MODEL 1
REMARK VINA RESULT:      -5.2      0.000      0.000
REMARK  Name = 2a_conf1
REMARK  32 active torsions:
REMARK  status: ('A' for Active; 'I' for Inactive)
REMARK    1  A    between atoms: C_2  and  C_3
REMARK    2  A    between atoms: C_2  and  O_8
REMARK    3  A    between atoms: O_8  and  C_9
REMARK    4  A    between atoms: C_9  and  C_10
REMARK    5  A    between atoms: C_9  and  C_29
REMARK    6  A    between atoms: C_10  and  C_11
REMARK    7  A    between atoms: C_11  and  C_12
REMARK    8  A    between atoms: C_12  and  C_13
REMARK    9  A    between atoms: C_12  and  C_14
REMARK   10  A    between atoms: C_14  and  O_15
REMARK   11  A    between atoms: C_14  and  C_17
REMARK   12  A    between atoms: O_15  and  C_16
REMARK   13  A    between atoms: C_17  and  C_18
REMARK   14  A    between atoms: C_18  and  O_19
REMARK   15  A    between atoms: C_18  and  C_26
REMARK   16  A    between atoms: O_19  and  C_20
REMARK   17  A    between atoms: C_20  and  C_21
REMARK   18  A    between atoms: C_21  and  C_22
REMARK   19  A    between atoms: C_22  and  C_23
REMARK   20  A    between atoms: C_23  and  N_24
REMARK   21  A    between atoms: C_26  and  C_27
REMARK   22  A    between atoms: C_26  and  C_28
REMARK   23  A    between atoms: C_29  and  C_30
REMARK   24  A    between atoms: C_29  and  C_31
REMARK   25  A    between atoms: C_31  and  O_32
REMARK   26  A    between atoms: C_31  and  C_34
REMARK   27  A    between atoms: O_32  and  C_33
REMARK   28  A    between atoms: C_34  and  C_35
REMARK   29  A    between atoms: C_34  and  C_36
REMARK   30  A    between atoms: C_37  and  N_38
REMARK   31  A    between atoms: N_38  and  C_39
REMARK   32  A    between atoms: C_39  and  C_40
REMARK                            x       y       z     vdW  Elec       q    Type
REMARK                         _______ _______ _______ _____ _____    ______ ____
ROOT
ATOM      1  C   UNL     1       7.306  15.676  24.588  0.00  0.00    +0.108 C 
ATOM      2  H   UNL     1       7.227  14.823  23.903  0.00  0.00    +0.074 HD
ENDROOT
BRANCH   1   3
ATOM      3  C   UNL     1       7.572  16.934  23.739  0.00  0.00    -0.015 C 
ATOM      4  H   UNL     1       7.138  17.820  24.214  0.00  0.00    +0.030 HD
ATOM      5  H   UNL     1       8.650  17.086  23.666  0.00  0.00    +0.030 HD
BRANCH   3   6
ATOM      6  C   UNL     1       6.999  16.812  22.321  0.00  0.00    -0.045 C 
ATOM      7  H   UNL     1       7.735  16.356  21.651  0.00  0.00    +0.027 HD
ATOM      8  H   UNL     1       6.156  16.109  22.361  0.00  0.00    +0.027 HD
BRANCH   6   9
ATOM      9  C   UNL     1       6.492  18.153  21.734  0.00  0.00    -0.017 C 
ATOM     10  H   UNL     1       7.165  18.412  20.908  0.00  0.00    +0.032 HD
BRANCH   9  11
ATOM     11  C   UNL     1       6.659  19.258  22.790  0.00  0.00    -0.060 C 
ATOM     12  H   UNL     1       6.300  20.221  22.408  0.00  0.00    +0.023 HD
ATOM     13  H   UNL     1       6.116  19.028  23.713  0.00  0.00    +0.023 HD
ATOM     14  H   UNL     1       7.715  19.389  23.051  0.00  0.00    +0.023 HD
ENDBRANCH   9  11
BRANCH   9  15
ATOM     15  C   UNL     1       5.032  18.144  21.184  0.00  0.00    +0.064 C 
ATOM     16  H   UNL     1       4.557  19.083  21.491  0.00  0.00    +0.060 HD
BRANCH  15  17
ATOM     17  C   UNL     1       4.190  16.968  21.725  0.00  0.00    +0.011 C 
ATOM     18  H   UNL     1       4.778  16.450  22.494  0.00  0.00    +0.033 HD
ATOM     19  H   UNL     1       3.287  17.349  22.213  0.00  0.00    +0.033 HD
BRANCH  17  20
ATOM     20  C   UNL     1       3.757  15.909  20.683  0.00  0.00    +0.108 C 
ATOM     21  H   UNL     1       3.842  16.364  19.688  0.00  0.00    +0.074 HD
BRANCH  20  22
ATOM     22  C   UNL     1       4.610  14.615  20.676  0.00  0.00    -0.009 C 
ATOM     23  H   UNL     1       5.414  14.708  21.417  0.00  0.00    +0.033 HD
BRANCH  22  24
ATOM     24  C   UNL     1       3.770  13.404  21.107  0.00  0.00    -0.059 C 
ATOM     25  H   UNL     1       2.826  13.724  21.563  0.00  0.00    +0.023 HD
ATOM     26  H   UNL     1       4.307  12.793  21.840  0.00  0.00    +0.023 HD
ATOM     27  H   UNL     1       3.522  12.772  20.250  0.00  0.00    +0.023 HD
ENDBRANCH  22  24
BRANCH  22  28
ATOM     28  C   UNL     1       5.232  14.329  19.308  0.00  0.00    -0.059 C 
ATOM     29  H   UNL     1       6.170  13.768  19.411  0.00  0.00    +0.023 HD
ATOM     30  H   UNL     1       4.559  13.751  18.668  0.00  0.00    +0.023 HD
ATOM     31  H   UNL     1       5.452  15.262  18.778  0.00  0.00    +0.023 HD
ENDBRANCH  22  28
ENDBRANCH  20  22
BRANCH  20  32
ATOM     32  O   UNL     1       2.379  15.520  20.885  0.00  0.00    -0.461 OA
BRANCH  32  33
ATOM     33  C   UNL     1       1.495  15.879  19.913  0.00  0.00    +0.307 C 
ATOM     34  O   UNL     1       1.320  17.017  19.501  0.00  0.00    -0.251 OA
BRANCH  33  35
ATOM     35  C   UNL     1       0.752  14.659  19.423  0.00  0.00    +0.046 C 
ATOM     36  H   UNL     1      -0.155  14.549  20.025  0.00  0.00    +0.038 HD
ATOM     37  H   UNL     1       1.387  13.780  19.577  0.00  0.00    +0.038 HD
BRANCH  35  38
ATOM     38  C   UNL     1       0.417  14.783  17.935  0.00  0.00    -0.031 C 
ATOM     39  H   UNL     1       0.948  15.640  17.501  0.00  0.00    +0.028 HD
ATOM     40  H   UNL     1       0.792  13.896  17.409  0.00  0.00    +0.028 HD
BRANCH  38  41
ATOM     41  C   UNL     1      -1.081  14.913  17.671  0.00  0.00    -0.006 C 
ATOM     42  H   UNL     1      -1.340  14.437  16.719  0.00  0.00    +0.042 HD
ATOM     43  H   UNL     1      -1.349  15.974  17.592  0.00  0.00    +0.042 HD
BRANCH  41  44
ATOM     44  N   UNL     1      -1.863  14.304  18.744  0.00  0.00    -0.330 NA
ATOM     45  H   UNL     1      -2.801  14.708  18.743  0.00  0.00    +0.118 HD
ATOM     46  H   UNL     1      -1.991  13.312  18.543  0.00  0.00    +0.118 HD
ENDBRANCH  41  44
ENDBRANCH  38  41
ENDBRANCH  35  38
ENDBRANCH  33  35
ENDBRANCH  32  33
ENDBRANCH  20  32
ENDBRANCH  17  20
ENDBRANCH  15  17
BRANCH  15  47
ATOM     47  O   UNL     1       5.008  18.076  19.752  0.00  0.00    -0.379 OA
BRANCH  47  48
ATOM     48  C   UNL     1       4.604  19.281  19.120  0.00  0.00    +0.037 C 
ATOM     49  H   UNL     1       3.874  19.813  19.736  0.00  0.00    +0.052 HD
ATOM     50  H   UNL     1       4.196  19.085  18.127  0.00  0.00    +0.052 HD
ATOM     51  H   UNL     1       5.486  19.918  19.013  0.00  0.00    +0.052 HD
ENDBRANCH  47  48
ENDBRANCH  15  47
ENDBRANCH   9  15
ENDBRANCH   6   9
ENDBRANCH   3   6
ENDBRANCH   1   3
BRANCH   1  52
ATOM     52  C   UNL     1       5.995  15.760  25.431  0.00  0.00    +0.020 C 
ATOM     53  H   UNL     1       6.184  15.196  26.354  0.00  0.00    +0.036 HD
BRANCH  52  54
ATOM     54  C   UNL     1       4.868  15.038  24.672  0.00  0.00    -0.057 C 
ATOM     55  H   UNL     1       4.991  13.950  24.738  0.00  0.00    +0.023 HD
ATOM     56  H   UNL     1       4.846  15.313  23.610  0.00  0.00    +0.023 HD
ATOM     57  H   UNL     1       3.888  15.268  25.099  0.00  0.00    +0.023 HD
ENDBRANCH  52  54
BRANCH  52  58
ATOM     58  C   UNL     1       5.603  17.213  25.854  0.00  0.00    +0.070 C 
ATOM     59  H   UNL     1       6.102  17.921  25.182  0.00  0.00    +0.061 HD
BRANCH  58  60
ATOM     60  C   UNL     1       4.072  17.514  25.774  0.00  0.00    +0.002 C 
ATOM     61  H   UNL     1       3.614  16.757  25.124  0.00  0.00    +0.037 HD
BRANCH  60  62
ATOM     62  C   UNL     1       3.392  17.490  27.131  0.00  0.00    -0.065 C 
ATOM     63  C   UNL     1       2.209  18.077  27.373  0.00  0.00    -0.005 C 
ATOM     64  H   UNL     1       3.935  16.964  27.914  0.00  0.00    +0.059 HD
ATOM     65  H   UNL     1       1.717  18.604  26.556  0.00  0.00    +0.078 HD
BRANCH  63  66
ATOM     66  N   UNL     1       1.533  18.101  28.584  0.00  0.00    -0.281 N 
ATOM     67  C   UNL     1       2.116  17.550  29.722  0.00  0.00    +0.206 C 
ATOM     68  O   UNL     1       1.612  17.469  30.836  0.00  0.00    -0.279 OA
ATOM     69  H   UNL     1       3.128  17.159  29.538  0.00  0.00    +0.126 HD
BRANCH  66  70
ATOM     70  C   UNL     1       0.184  18.648  28.724  0.00  0.00    +0.016 C 
ATOM     71  H   UNL     1       0.101  19.584  28.166  0.00  0.00    +0.047 HD
ATOM     72  H   UNL     1       0.011  18.911  29.776  0.00  0.00    +0.047 HD
BRANCH  70  73
ATOM     73  C   UNL     1      -0.884  17.655  28.295  0.00  0.00    -0.049 C 
ATOM     74  H   UNL     1      -0.533  17.021  27.472  0.00  0.00    +0.024 HD
ATOM     75  H   UNL     1      -1.782  18.187  27.965  0.00  0.00    +0.024 HD
ATOM     76  H   UNL     1      -1.156  16.996  29.124  0.00  0.00    +0.024 HD
ENDBRANCH  70  73
ENDBRANCH  66  70
ENDBRANCH  63  66
ENDBRANCH  60  62
BRANCH  60  77
ATOM     77  C   UNL     1       3.795  18.870  25.113  0.00  0.00    -0.057 C 
ATOM     78  H   UNL     1       4.690  19.287  24.636  0.00  0.00    +0.024 HD
ATOM     79  H   UNL     1       3.011  18.777  24.353  0.00  0.00    +0.024 HD
ATOM     80  H   UNL     1       3.449  19.600  25.855  0.00  0.00    +0.024 HD
ENDBRANCH  60  77
ENDBRANCH  58  60
BRANCH  58  81
ATOM     81  O   UNL     1       6.031  17.429  27.211  0.00  0.00    -0.379 OA
BRANCH  81  82
ATOM     82  C   UNL     1       7.001  18.458  27.354  0.00  0.00    +0.037 C 
ATOM     83  H   UNL     1       6.536  19.383  27.699  0.00  0.00    +0.052 HD
ATOM     84  H   UNL     1       7.795  18.157  28.043  0.00  0.00    +0.052 HD
ATOM     85  H   UNL     1       7.442  18.643  26.371  0.00  0.00    +0.052 HD
ENDBRANCH  81  82
ENDBRANCH  58  81
ENDBRANCH  52  58
ENDBRANCH   1  52
BRANCH   1  86
ATOM     86  O   UNL     1       8.455  15.490  25.440  0.00  0.00    -0.459 OA
BRANCH  86  88
ATOM     87  O   UNL     1       8.496  13.201  25.602  0.00  0.00    -0.248 OA
ATOM     88  C   UNL     1       9.058  14.269  25.396  0.00  0.00    +0.337 C 
BRANCH  88  89
ATOM     89  C   UNL     1      10.550  14.447  25.072  0.00  0.00    +0.155 C 
ATOM     90  O   UNL     1      10.919  15.831  24.937  0.00  0.00    -0.365 OA
ATOM     91  C   UNL     1      11.106  16.135  23.552  0.00  0.00    +0.049 C 
ATOM     92  C   UNL     1      10.663  14.922  22.762  0.00  0.00    -0.027 C 
ATOM     93  C   UNL     1      10.881  13.790  23.740  0.00  0.00    -0.014 C 
ATOM     94  H   UNL     1      11.133  14.024  25.899  0.00  0.00    +0.071 HD
ATOM     95  H   UNL     1      12.168  16.343  23.391  0.00  0.00    +0.056 HD
ATOM     96  H   UNL     1      10.532  17.029  23.294  0.00  0.00    +0.056 HD
ATOM     97  H   UNL     1      11.213  14.803  21.826  0.00  0.00    +0.029 HD
ATOM     98  H   UNL     1       9.597  15.001  22.516  0.00  0.00    +0.029 HD
ATOM     99  H   UNL     1      10.271  12.914  23.501  0.00  0.00    +0.030 HD
ATOM    100  H   UNL     1      11.940  13.493  23.726  0.00  0.00    +0.030 HD
ENDBRANCH  88  89
ENDBRANCH  86  88
ENDBRANCH   1  86
TORSDOF 32
ENDMDL
MODEL 2
REMARK VINA RESULT:      -5.2      5.084     12.071
REMARK  Name = 2a_conf1
REMARK  32 active torsions:
REMARK  status: ('A' for Active; 'I' for Inactive)
REMARK    1  A    between atoms: C_2  and  C_3
REMARK    2  A    between atoms: C_2  and  O_8
REMARK    3  A    between atoms: O_8  and  C_9
REMARK    4  A    between atoms: C_9  and  C_10
REMARK    5  A    between atoms: C_9  and  C_29
REMARK    6  A    between atoms: C_10  and  C_11
REMARK    7  A    between atoms: C_11  and  C_12
REMARK    8  A    between atoms: C_12  and  C_13
REMARK    9  A    between atoms: C_12  and  C_14
REMARK   10  A    between atoms: C_14  and  O_15
REMARK   11  A    between atoms: C_14  and  C_17
REMARK   12  A    between atoms: O_15  and  C_16
REMARK   13  A    between atoms: C_17  and  C_18
REMARK   14  A    between atoms: C_18  and  O_19
REMARK   15  A    between atoms: C_18  and  C_26
REMARK   16  A    between atoms: O_19  and  C_20
REMARK   17  A    between atoms: C_20  and  C_21
REMARK   18  A    between atoms: C_21  and  C_22
REMARK   19  A    between atoms: C_22  and  C_23
REMARK   20  A    between atoms: C_23  and  N_24
REMARK   21  A    between atoms: C_26  and  C_27
REMARK   22  A    between atoms: C_26  and  C_28
REMARK   23  A    between atoms: C_29  and  C_30
REMARK   24  A    between atoms: C_29  and  C_31
REMARK   25  A    between atoms: C_31  and  O_32
REMARK   26  A    between atoms: C_31  and  C_34
REMARK   27  A    between atoms: O_32  and  C_33
REMARK   28  A    between atoms: C_34  and  C_35
REMARK   29  A    between atoms: C_34  and  C_36
REMARK   30  A    between atoms: C_37  and  N_38
REMARK   31  A    between atoms: N_38  and  C_39
REMARK   32  A    between atoms: C_39  and  C_40
REMARK                            x       y       z     vdW  Elec       q    Type
REMARK                         _______ _______ _______ _____ _____    ______ ____
ROOT
ATOM      1  C   UNL     1      -4.070  15.808  18.284  0.00  0.00    +0.108 C 
ATOM      2  H   UNL     1      -4.159  16.021  19.356  0.00  0.00    +0.074 HD
ENDROOT
BRANCH   1   3
ATOM      3  C   UNL     1      -2.573  15.636  17.964  0.00  0.00    -0.015 C 
ATOM      4  H   UNL     1      -2.435  15.269  16.942  0.00  0.00    +0.030 HD
ATOM      5  H   UNL     1      -2.084  16.609  18.041  0.00  0.00    +0.030 HD
BRANCH   3   6
ATOM      6  C   UNL     1      -1.879  14.664  18.927  0.00  0.00    -0.045 C 
ATOM      7  H   UNL     1      -2.622  14.120  19.519  0.00  0.00    +0.027 HD
ATOM      8  H   UNL     1      -1.366  13.903  18.321  0.00  0.00    +0.027 HD
BRANCH   6   9
ATOM      9  C   UNL     1      -0.838  15.337  19.853  0.00  0.00    -0.017 C 
ATOM     10  H   UNL     1      -1.284  15.381  20.854  0.00  0.00    +0.032 HD
BRANCH   9  11
ATOM     11  C   UNL     1      -0.636  16.795  19.406  0.00  0.00    -0.060 C 
ATOM     12  H   UNL     1       0.424  17.071  19.439  0.00  0.00    +0.023 HD
ATOM     13  H   UNL     1      -1.007  16.966  18.390  0.00  0.00    +0.023 HD
ATOM     14  H   UNL     1      -1.168  17.482  20.074  0.00  0.00    +0.023 HD
ENDBRANCH   9  11
BRANCH   9  15
ATOM     15  C   UNL     1       0.538  14.611  19.970  0.00  0.00    +0.064 C 
ATOM     16  H   UNL     1       0.589  14.155  20.965  0.00  0.00    +0.060 HD
BRANCH  15  17
ATOM     17  C   UNL     1       1.741  15.567  19.807  0.00  0.00    +0.011 C 
ATOM     18  H   UNL     1       2.146  15.439  18.795  0.00  0.00    +0.033 HD
ATOM     19  H   UNL     1       1.407  16.606  19.890  0.00  0.00    +0.033 HD
BRANCH  17  20
ATOM     20  C   UNL     1       2.909  15.362  20.802  0.00  0.00    +0.108 C 
ATOM     21  H   UNL     1       2.800  16.103  21.604  0.00  0.00    +0.074 HD
BRANCH  20  22
ATOM     22  C   UNL     1       2.959  13.963  21.468  0.00  0.00    -0.009 C 
ATOM     23  H   UNL     1       1.956  13.520  21.455  0.00  0.00    +0.033 HD
BRANCH  22  24
ATOM     24  C   UNL     1       3.858  13.009  20.667  0.00  0.00    -0.059 C 
ATOM     25  H   UNL     1       4.918  13.223  20.850  0.00  0.00    +0.023 HD
ATOM     26  H   UNL     1       3.676  13.106  19.592  0.00  0.00    +0.023 HD
ATOM     27  H   UNL     1       3.681  11.968  20.952  0.00  0.00    +0.023 HD
ENDBRANCH  22  24
BRANCH  22  28
ATOM     28  C   UNL     1       3.455  14.018  22.914  0.00  0.00    -0.059 C 
ATOM     29  H   UNL     1       4.342  13.387  23.051  0.00  0.00    +0.023 HD
ATOM     30  H   UNL     1       3.713  15.037  23.218  0.00  0.00    +0.023 HD
ATOM     31  H   UNL     1       2.679  13.667  23.604  0.00  0.00    +0.023 HD
ENDBRANCH  22  28
ENDBRANCH  20  22
BRANCH  20  32
ATOM     32  O   UNL     1       4.182  15.581  20.154  0.00  0.00    -0.461 OA
BRANCH  32  33
ATOM     33  C   UNL     1       4.626  16.868  20.099  0.00  0.00    +0.307 C 
ATOM     34  O   UNL     1       4.732  17.536  19.080  0.00  0.00    -0.251 OA
BRANCH  33  35
ATOM     35  C   UNL     1       4.978  17.347  21.487  0.00  0.00    +0.046 C 
ATOM     36  H   UNL     1       4.621  16.602  22.204  0.00  0.00    +0.038 HD
ATOM     37  H   UNL     1       4.456  18.293  21.670  0.00  0.00    +0.038 HD
BRANCH  35  38
ATOM     38  C   UNL     1       6.485  17.570  21.624  0.00  0.00    -0.031 C 
ATOM     39  H   UNL     1       6.849  17.117  22.556  0.00  0.00    +0.028 HD
ATOM     40  H   UNL     1       7.000  17.044  20.811  0.00  0.00    +0.028 HD
BRANCH  38  41
ATOM     41  C   UNL     1       6.875  19.046  21.577  0.00  0.00    -0.006 C 
ATOM     42  H   UNL     1       7.837  19.198  22.079  0.00  0.00    +0.042 HD
ATOM     43  H   UNL     1       6.125  19.640  22.114  0.00  0.00    +0.042 HD
BRANCH  41  44
ATOM     44  N   UNL     1       6.965  19.526  20.201  0.00  0.00    -0.330 NA
ATOM     45  H   UNL     1       7.670  20.264  20.151  0.00  0.00    +0.118 HD
ATOM     46  H   UNL     1       7.313  18.774  19.606  0.00  0.00    +0.118 HD
ENDBRANCH  41  44
ENDBRANCH  38  41
ENDBRANCH  35  38
ENDBRANCH  33  35
ENDBRANCH  32  33
ENDBRANCH  20  32
ENDBRANCH  17  20
ENDBRANCH  15  17
BRANCH  15  47
ATOM     47  O   UNL     1       0.671  13.571  18.992  0.00  0.00    -0.379 OA
BRANCH  47  48
ATOM     48  C   UNL     1       1.528  13.900  17.909  0.00  0.00    +0.037 C 
ATOM     49  H   UNL     1       2.550  13.568  18.110  0.00  0.00    +0.052 HD
ATOM     50  H   UNL     1       1.507  14.972  17.704  0.00  0.00    +0.052 HD
ATOM     51  H   UNL     1       1.168  13.371  17.021  0.00  0.00    +0.052 HD
ENDBRANCH  47  48
ENDBRANCH  15  47
ENDBRANCH   9  15
ENDBRANCH   6   9
ENDBRANCH   3   6
ENDBRANCH   1   3
BRANCH   1  52
ATOM     52  C   UNL     1      -4.926  14.546  17.953  0.00  0.00    +0.020 C 
ATOM     53  H   UNL     1      -4.219  13.712  17.849  0.00  0.00    +0.036 HD
BRANCH  52  54
ATOM     54  C   UNL     1      -5.605  14.749  16.587  0.00  0.00    -0.057 C 
ATOM     55  H   UNL     1      -6.648  14.412  16.618  0.00  0.00    +0.023 HD
ATOM     56  H   UNL     1      -5.093  14.196  15.789  0.00  0.00    +0.023 HD
ATOM     57  H   UNL     1      -5.625  15.805  16.304  0.00  0.00    +0.023 HD
ENDBRANCH  52  54
BRANCH  52  58
ATOM     58  C   UNL     1      -5.938  14.151  19.077  0.00  0.00    +0.070 C 
ATOM     59  H   UNL     1      -6.920  13.980  18.621  0.00  0.00    +0.061 HD
BRANCH  58  60
ATOM     60  C   UNL     1      -5.563  12.844  19.847  0.00  0.00    +0.002 C 
ATOM     61  H   UNL     1      -6.451  12.516  20.403  0.00  0.00    +0.037 HD
BRANCH  60  62
ATOM     62  C   UNL     1      -5.102  11.726  18.929  0.00  0.00    -0.065 C 
ATOM     63  C   UNL     1      -5.944  10.869  18.331  0.00  0.00    -0.005 C 
ATOM     64  H   UNL     1      -4.025  11.655  18.788  0.00  0.00    +0.059 HD
ATOM     65  H   UNL     1      -7.012  10.977  18.521  0.00  0.00    +0.078 HD
BRANCH  63  66
ATOM     66  N   UNL     1      -5.596   9.825  17.487  0.00  0.00    -0.281 N 
ATOM     67  C   UNL     1      -4.698  10.039  16.445  0.00  0.00    +0.206 C 
ATOM     68  O   UNL     1      -4.341   9.217  15.608  0.00  0.00    -0.279 OA
ATOM     69  H   UNL     1      -4.310  11.067  16.418  0.00  0.00    +0.126 HD
BRANCH  66  70
ATOM     70  C   UNL     1      -6.171   8.486  17.608  0.00  0.00    +0.016 C 
ATOM     71  H   UNL     1      -5.492   7.747  17.174  0.00  0.00    +0.047 HD
ATOM     72  H   UNL     1      -7.090   8.435  17.010  0.00  0.00    +0.047 HD
BRANCH  70  73
ATOM     73  C   UNL     1      -6.514   8.139  19.047  0.00  0.00    -0.049 C 
ATOM     74  H   UNL     1      -5.694   7.597  19.534  0.00  0.00    +0.024 HD
ATOM     75  H   UNL     1      -7.411   7.514  19.081  0.00  0.00    +0.024 HD
ATOM     76  H   UNL     1      -6.701   9.045  19.631  0.00  0.00    +0.024 HD
ENDBRANCH  70  73
ENDBRANCH  66  70
ENDBRANCH  63  66
ENDBRANCH  60  62
BRANCH  60  77
ATOM     77  C   UNL     1      -4.472  13.098  20.895  0.00  0.00    -0.057 C 
ATOM     78  H   UNL     1      -4.396  12.278  21.618  0.00  0.00    +0.024 HD
ATOM     79  H   UNL     1      -3.496  13.224  20.412  0.00  0.00    +0.024 HD
ATOM     80  H   UNL     1      -4.680  14.015  21.458  0.00  0.00    +0.024 HD
ENDBRANCH  60  77
ENDBRANCH  58  60
BRANCH  58  81
ATOM     81  O   UNL     1      -6.012  15.227  20.030  0.00  0.00    -0.379 OA
BRANCH  81  82
ATOM     82  C   UNL     1      -7.324  15.736  20.228  0.00  0.00    +0.037 C 
ATOM     83  H   UNL     1      -7.809  15.936  19.271  0.00  0.00    +0.052 HD
ATOM     84  H   UNL     1      -7.929  15.044  20.819  0.00  0.00    +0.052 HD
ATOM     85  H   UNL     1      -7.239  16.680  20.772  0.00  0.00    +0.052 HD
ENDBRANCH  81  82
ENDBRANCH  58  81
ENDBRANCH  52  58
ENDBRANCH   1  52
BRANCH   1  86
ATOM     86  O   UNL     1      -4.533  16.954  17.539  0.00  0.00    -0.459 OA
BRANCH  86  88
ATOM     87  O   UNL     1      -6.175  18.499  17.965  0.00  0.00    -0.248 OA
ATOM     88  C   UNL     1      -5.117  17.955  18.255  0.00  0.00    +0.337 C 
BRANCH  88  89
ATOM     89  C   UNL     1      -4.233  18.304  19.463  0.00  0.00    +0.155 C 
ATOM     90  O   UNL     1      -5.000  18.790  20.579  0.00  0.00    -0.365 OA
ATOM     91  C   UNL     1      -4.824  20.206  20.688  0.00  0.00    +0.049 C 
ATOM     92  C   UNL     1      -4.043  20.657  19.473  0.00  0.00    -0.027 C 
ATOM     93  C   UNL     1      -3.263  19.417  19.100  0.00  0.00    -0.014 C 
ATOM     94  H   UNL     1      -3.717  17.391  19.784  0.00  0.00    +0.071 HD
ATOM     95  H   UNL     1      -4.270  20.408  21.610  0.00  0.00    +0.056 HD
ATOM     96  H   UNL     1      -5.802  20.691  20.756  0.00  0.00    +0.056 HD
ATOM     97  H   UNL     1      -3.413  21.526  19.674  0.00  0.00    +0.029 HD
ATOM     98  H   UNL     1      -4.730  20.922  18.661  0.00  0.00    +0.029 HD
ATOM     99  H   UNL     1      -2.950  19.424  18.052  0.00  0.00    +0.030 HD
ATOM    100  H   UNL     1      -2.365  19.346  19.732  0.00  0.00    +0.030 HD
ENDBRANCH  88  89
ENDBRANCH  86  88
ENDBRANCH   1  86
TORSDOF 32
ENDMDL
MODEL 3
REMARK VINA RESULT:      -5.1      2.697      5.074
REMARK  Name = 2a_conf1
REMARK  32 active torsions:
REMARK  status: ('A' for Active; 'I' for Inactive)
REMARK    1  A    between atoms: C_2  and  C_3
REMARK    2  A    between atoms: C_2  and  O_8
REMARK    3  A    between atoms: O_8  and  C_9
REMARK    4  A    between atoms: C_9  and  C_10
REMARK    5  A    between atoms: C_9  and  C_29
REMARK    6  A    between atoms: C_10  and  C_11
REMARK    7  A    between atoms: C_11  and  C_12
REMARK    8  A    between atoms: C_12  and  C_13
REMARK    9  A    between atoms: C_12  and  C_14
REMARK   10  A    between atoms: C_14  and  O_15
REMARK   11  A    between atoms: C_14  and  C_17
REMARK   12  A    between atoms: O_15  and  C_16
REMARK   13  A    between atoms: C_17  and  C_18
REMARK   14  A    between atoms: C_18  and  O_19
REMARK   15  A    between atoms: C_18  and  C_26
REMARK   16  A    between atoms: O_19  and  C_20
REMARK   17  A    between atoms: C_20  and  C_21
REMARK   18  A    between atoms: C_21  and  C_22
REMARK   19  A    between atoms: C_22  and  C_23
REMARK   20  A    between atoms: C_23  and  N_24
REMARK   21  A    between atoms: C_26  and  C_27
REMARK   22  A    between atoms: C_26  and  C_28
REMARK   23  A    between atoms: C_29  and  C_30
REMARK   24  A    between atoms: C_29  and  C_31
REMARK   25  A    between atoms: C_31  and  O_32
REMARK   26  A    between atoms: C_31  and  C_34
REMARK   27  A    between atoms: O_32  and  C_33
REMARK   28  A    between atoms: C_34  and  C_35
REMARK   29  A    between atoms: C_34  and  C_36
REMARK   30  A    between atoms: C_37  and  N_38
REMARK   31  A    between atoms: N_38  and  C_39
REMARK   32  A    between atoms: C_39  and  C_40
REMARK                            x       y       z     vdW  Elec       q    Type
REMARK                         _______ _______ _______ _____ _____    ______ ____
ROOT
ATOM      1  C   UNL     1       6.499  18.765  23.390  0.00  0.00    +0.108 C 
ATOM      2  H   UNL     1       6.484  17.717  23.067  0.00  0.00    +0.074 HD
ENDROOT
BRANCH   1   3
ATOM      3  C   UNL     1       5.442  19.523  22.565  0.00  0.00    -0.015 C 
ATOM      4  H   UNL     1       5.069  20.392  23.118  0.00  0.00    +0.030 HD
ATOM      5  H   UNL     1       5.907  19.885  21.647  0.00  0.00    +0.030 HD
BRANCH   3   6
ATOM      6  C   UNL     1       4.247  18.636  22.191  0.00  0.00    -0.045 C 
ATOM      7  H   UNL     1       4.357  17.643  22.637  0.00  0.00    +0.027 HD
ATOM      8  H   UNL     1       3.350  19.073  22.652  0.00  0.00    +0.027 HD
BRANCH   6   9
ATOM      9  C   UNL     1       4.009  18.520  20.666  0.00  0.00    -0.017 C 
ATOM     10  H   UNL     1       4.799  19.101  20.175  0.00  0.00    +0.032 HD
BRANCH   9  11
ATOM     11  C   UNL     1       2.681  19.210  20.311  0.00  0.00    -0.060 C 
ATOM     12  H   UNL     1       2.831  19.970  19.535  0.00  0.00    +0.023 HD
ATOM     13  H   UNL     1       1.931  18.496  19.956  0.00  0.00    +0.023 HD
ATOM     14  H   UNL     1       2.264  19.721  21.186  0.00  0.00    +0.023 HD
ENDBRANCH   9  11
BRANCH   9  15
ATOM     15  C   UNL     1       4.040  17.073  20.082  0.00  0.00    +0.064 C 
ATOM     16  H   UNL     1       3.676  17.124  19.050  0.00  0.00    +0.060 HD
BRANCH  15  17
ATOM     17  C   UNL     1       3.149  16.085  20.867  0.00  0.00    +0.011 C 
ATOM     18  H   UNL     1       3.776  15.573  21.609  0.00  0.00    +0.033 HD
ATOM     19  H   UNL     1       2.381  16.634  21.421  0.00  0.00    +0.033 HD
BRANCH  17  20
ATOM     20  C   UNL     1       2.442  14.995  20.027  0.00  0.00    +0.108 C 
ATOM     21  H   UNL     1       2.927  14.964  19.042  0.00  0.00    +0.074 HD
BRANCH  20  22
ATOM     22  C   UNL     1       2.513  13.565  20.623  0.00  0.00    -0.009 C 
ATOM     23  H   UNL     1       1.601  13.017  20.355  0.00  0.00    +0.033 HD
BRANCH  22  24
ATOM     24  C   UNL     1       3.682  12.778  20.015  0.00  0.00    -0.059 C 
ATOM     25  H   UNL     1       4.184  12.170  20.776  0.00  0.00    +0.023 HD
ATOM     26  H   UNL     1       4.426  13.452  19.578  0.00  0.00    +0.023 HD
ATOM     27  H   UNL     1       3.334  12.098  19.231  0.00  0.00    +0.023 HD
ENDBRANCH  22  24
BRANCH  22  28
ATOM     28  C   UNL     1       2.654  13.571  22.146  0.00  0.00    -0.059 C 
ATOM     29  H   UNL     1       3.700  13.429  22.445  0.00  0.00    +0.023 HD
ATOM     30  H   UNL     1       2.299  14.508  22.586  0.00  0.00    +0.023 HD
ATOM     31  H   UNL     1       2.062  12.765  22.594  0.00  0.00    +0.023 HD
ENDBRANCH  22  28
ENDBRANCH  20  22
BRANCH  20  32
ATOM     32  O   UNL     1       1.047  15.317  19.834  0.00  0.00    -0.461 OA
BRANCH  32  33
ATOM     33  C   UNL     1       0.499  14.965  18.638  0.00  0.00    +0.307 C 
ATOM     34  O   UNL     1       1.123  14.770  17.604  0.00  0.00    -0.251 OA
BRANCH  33  35
ATOM     35  C   UNL     1      -1.001  14.860  18.774  0.00  0.00    +0.046 C 
ATOM     36  H   UNL     1      -1.244  13.837  19.074  0.00  0.00    +0.038 HD
ATOM     37  H   UNL     1      -1.453  15.058  17.795  0.00  0.00    +0.038 HD
BRANCH  35  38
ATOM     38  C   UNL     1      -1.533  15.876  19.787  0.00  0.00    -0.031 C 
ATOM     39  H   UNL     1      -1.830  15.363  20.712  0.00  0.00    +0.028 HD
ATOM     40  H   UNL     1      -0.722  16.559  20.068  0.00  0.00    +0.028 HD
BRANCH  38  41
ATOM     41  C   UNL     1      -2.703  16.696  19.250  0.00  0.00    -0.006 C 
ATOM     42  H   UNL     1      -3.374  16.059  18.664  0.00  0.00    +0.042 HD
ATOM     43  H   UNL     1      -2.325  17.480  18.580  0.00  0.00    +0.042 HD
BRANCH  41  44
ATOM     44  N   UNL     1      -3.454  17.322  20.335  0.00  0.00    -0.330 NA
ATOM     45  H   UNL     1      -3.182  18.304  20.405  0.00  0.00    +0.118 HD
ATOM     46  H   UNL     1      -4.446  17.328  20.095  0.00  0.00    +0.118 HD
ENDBRANCH  41  44
ENDBRANCH  38  41
ENDBRANCH  35  38
ENDBRANCH  33  35
ENDBRANCH  32  33
ENDBRANCH  20  32
ENDBRANCH  17  20
ENDBRANCH  15  17
BRANCH  15  47
ATOM     47  O   UNL     1       5.371  16.540  20.063  0.00  0.00    -0.379 OA
BRANCH  47  48
ATOM     48  C   UNL     1       5.642  15.620  21.108  0.00  0.00    +0.037 C 
ATOM     49  H   UNL     1       4.713  15.263  21.560  0.00  0.00    +0.052 HD
ATOM     50  H   UNL     1       6.289  16.067  21.866  0.00  0.00    +0.052 HD
ATOM     51  H   UNL     1       6.161  14.760  20.675  0.00  0.00    +0.052 HD
ENDBRANCH  47  48
ENDBRANCH  15  47
ENDBRANCH   9  15
ENDBRANCH   6   9
ENDBRANCH   3   6
ENDBRANCH   1   3
BRANCH   1  52
ATOM     52  C   UNL     1       6.241  18.815  24.929  0.00  0.00    +0.020 C 
ATOM     53  H   UNL     1       5.538  19.642  25.097  0.00  0.00    +0.036 HD
BRANCH  52  54
ATOM     54  C   UNL     1       7.555  19.176  25.642  0.00  0.00    -0.057 C 
ATOM     55  H   UNL     1       7.383  19.345  26.712  0.00  0.00    +0.023 HD
ATOM     56  H   UNL     1       8.013  20.082  25.225  0.00  0.00    +0.023 HD
ATOM     57  H   UNL     1       8.286  18.366  25.568  0.00  0.00    +0.023 HD
ENDBRANCH  52  54
BRANCH  52  58
ATOM     58  C   UNL     1       5.576  17.524  25.505  0.00  0.00    +0.070 C 
ATOM     59  H   UNL     1       4.487  17.651  25.484  0.00  0.00    +0.061 HD
BRANCH  58  60
ATOM     60  C   UNL     1       5.897  16.223  24.701  0.00  0.00    +0.002 C 
ATOM     61  H   UNL     1       6.065  16.508  23.655  0.00  0.00    +0.037 HD
BRANCH  60  62
ATOM     62  C   UNL     1       7.117  15.488  25.226  0.00  0.00    -0.065 C 
ATOM     63  C   UNL     1       8.342  15.619  24.693  0.00  0.00    -0.005 C 
ATOM     64  H   UNL     1       6.934  14.829  26.073  0.00  0.00    +0.059 HD
ATOM     65  H   UNL     1       8.464  16.281  23.835  0.00  0.00    +0.078 HD
BRANCH  63  66
ATOM     66  N   UNL     1       9.497  14.979  25.114  0.00  0.00    -0.281 N 
ATOM     67  C   UNL     1      10.358  15.607  26.011  0.00  0.00    +0.206 C 
ATOM     68  O   UNL     1      11.424  15.171  26.427  0.00  0.00    -0.279 OA
ATOM     69  H   UNL     1       9.992  16.592  26.335  0.00  0.00    +0.126 HD
BRANCH  66  70
ATOM     70  C   UNL     1       9.895  13.661  24.621  0.00  0.00    +0.016 C 
ATOM     71  H   UNL     1       9.024  13.000  24.577  0.00  0.00    +0.047 HD
ATOM     72  H   UNL     1      10.583  13.200  25.341  0.00  0.00    +0.047 HD
BRANCH  70  73
ATOM     73  C   UNL     1      10.592  13.741  23.272  0.00  0.00    -0.049 C 
ATOM     74  H   UNL     1      11.670  13.565  23.369  0.00  0.00    +0.024 HD
ATOM     75  H   UNL     1      10.440  14.728  22.827  0.00  0.00    +0.024 HD
ATOM     76  H   UNL     1      10.197  12.986  22.586  0.00  0.00    +0.024 HD
ENDBRANCH  70  73
ENDBRANCH  66  70
ENDBRANCH  63  66
ENDBRANCH  60  62
BRANCH  60  77
ATOM     77  C   UNL     1       4.708  15.254  24.695  0.00  0.00    -0.057 C 
ATOM     78  H   UNL     1       4.893  14.371  25.318  0.00  0.00    +0.024 HD
ATOM     79  H   UNL     1       3.803  15.751  25.062  0.00  0.00    +0.024 HD
ATOM     80  H   UNL     1       4.500  14.901  23.678  0.00  0.00    +0.024 HD
ENDBRANCH  60  77
ENDBRANCH  58  60
BRANCH  58  81
ATOM     81  O   UNL     1       6.029  17.337  26.858  0.00  0.00    -0.379 OA
BRANCH  81  82
ATOM     82  C   UNL     1       4.997  17.424  27.832  0.00  0.00    +0.037 C 
ATOM     83  H   UNL     1       5.386  17.812  28.774  0.00  0.00    +0.052 HD
ATOM     84  H   UNL     1       4.174  18.051  27.478  0.00  0.00    +0.052 HD
ATOM     85  H   UNL     1       4.616  16.415  28.009  0.00  0.00    +0.052 HD
ENDBRANCH  81  82
ENDBRANCH  58  81
ENDBRANCH  52  58
ENDBRANCH   1  52
BRANCH   1  86
ATOM     86  O   UNL     1       7.782  19.339  23.064  0.00  0.00    -0.459 OA
BRANCH  86  88
ATOM     87  O   UNL     1       8.134  17.763  21.433  0.00  0.00    -0.248 OA
ATOM     88  C   UNL     1       8.540  18.665  22.155  0.00  0.00    +0.337 C 
BRANCH  88  89
ATOM     89  C   UNL     1       9.982  19.198  22.194  0.00  0.00    +0.155 C 
ATOM     90  O   UNL     1      10.768  18.732  21.083  0.00  0.00    -0.365 OA
ATOM     91  C   UNL     1      11.672  17.721  21.539  0.00  0.00    +0.049 C 
ATOM     92  C   UNL     1      11.315  17.415  22.977  0.00  0.00    -0.027 C 
ATOM     93  C   UNL     1      10.689  18.708  23.448  0.00  0.00    -0.014 C 
ATOM     94  H   UNL     1       9.943  20.293  22.141  0.00  0.00    +0.071 HD
ATOM     95  H   UNL     1      12.689  18.116  21.461  0.00  0.00    +0.056 HD
ATOM     96  H   UNL     1      11.589  16.841  20.895  0.00  0.00    +0.056 HD
ATOM     97  H   UNL     1      12.178  17.105  23.570  0.00  0.00    +0.029 HD
ATOM     98  H   UNL     1      10.575  16.607  23.018  0.00  0.00    +0.029 HD
ATOM     99  H   UNL     1      10.035  18.560  24.312  0.00  0.00    +0.030 HD
ATOM    100  H   UNL     1      11.482  19.417  23.727  0.00  0.00    +0.030 HD
ENDBRANCH  88  89
ENDBRANCH  86  88
ENDBRANCH   1  86
TORSDOF 32
ENDMDL
MODEL 4
REMARK VINA RESULT:      -5.1      3.238      4.992
REMARK  Name = 2a_conf1
REMARK  32 active torsions:
REMARK  status: ('A' for Active; 'I' for Inactive)
REMARK    1  A    between atoms: C_2  and  C_3
REMARK    2  A    between atoms: C_2  and  O_8
REMARK    3  A    between atoms: O_8  and  C_9
REMARK    4  A    between atoms: C_9  and  C_10
REMARK    5  A    between atoms: C_9  and  C_29
REMARK    6  A    between atoms: C_10  and  C_11
REMARK    7  A    between atoms: C_11  and  C_12
REMARK    8  A    between atoms: C_12  and  C_13
REMARK    9  A    between atoms: C_12  and  C_14
REMARK   10  A    between atoms: C_14  and  O_15
REMARK   11  A    between atoms: C_14  and  C_17
REMARK   12  A    between atoms: O_15  and  C_16
REMARK   13  A    between atoms: C_17  and  C_18
REMARK   14  A    between atoms: C_18  and  O_19
REMARK   15  A    between atoms: C_18  and  C_26
REMARK   16  A    between atoms: O_19  and  C_20
REMARK   17  A    between atoms: C_20  and  C_21
REMARK   18  A    between atoms: C_21  and  C_22
REMARK   19  A    between atoms: C_22  and  C_23
REMARK   20  A    between atoms: C_23  and  N_24
REMARK   21  A    between atoms: C_26  and  C_27
REMARK   22  A    between atoms: C_26  and  C_28
REMARK   23  A    between atoms: C_29  and  C_30
REMARK   24  A    between atoms: C_29  and  C_31
REMARK   25  A    between atoms: C_31  and  O_32
REMARK   26  A    between atoms: C_31  and  C_34
REMARK   27  A    between atoms: O_32  and  C_33
REMARK   28  A    between atoms: C_34  and  C_35
REMARK   29  A    between atoms: C_34  and  C_36
REMARK   30  A    between atoms: C_37  and  N_38
REMARK   31  A    between atoms: N_38  and  C_39
REMARK   32  A    between atoms: C_39  and  C_40
REMARK                            x       y       z     vdW  Elec       q    Type
REMARK                         _______ _______ _______ _____ _____    ______ ____
ROOT
ATOM      1  C   UNL     1       9.108  17.368  23.450  0.00  0.00    +0.108 C 
ATOM      2  H   UNL     1       8.824  17.775  24.429  0.00  0.00    +0.074 HD
ENDROOT
BRANCH   1   3
ATOM      3  C   UNL     1       8.131  16.225  23.117  0.00  0.00    -0.015 C 
ATOM      4  H   UNL     1       8.633  15.442  22.539  0.00  0.00    +0.030 HD
ATOM      5  H   UNL     1       7.780  15.781  24.050  0.00  0.00    +0.030 HD
BRANCH   3   6
ATOM      6  C   UNL     1       6.914  16.712  22.320  0.00  0.00    -0.045 C 
ATOM      7  H   UNL     1       7.131  17.673  21.843  0.00  0.00    +0.027 HD
ATOM      8  H   UNL     1       6.747  16.002  21.499  0.00  0.00    +0.027 HD
BRANCH   6   9
ATOM      9  C   UNL     1       5.615  16.807  23.158  0.00  0.00    -0.017 C 
ATOM     10  H   UNL     1       5.704  17.705  23.781  0.00  0.00    +0.032 HD
BRANCH   9  11
ATOM     11  C   UNL     1       5.553  15.615  24.126  0.00  0.00    -0.060 C 
ATOM     12  H   UNL     1       4.710  15.716  24.819  0.00  0.00    +0.023 HD
ATOM     13  H   UNL     1       5.451  14.662  23.596  0.00  0.00    +0.023 HD
ATOM     14  H   UNL     1       6.464  15.560  24.733  0.00  0.00    +0.023 HD
ENDBRANCH   9  11
BRANCH   9  15
ATOM     15  C   UNL     1       4.288  16.915  22.344  0.00  0.00    +0.064 C 
ATOM     16  H   UNL     1       3.541  16.289  22.845  0.00  0.00    +0.060 HD
BRANCH  15  17
ATOM     17  C   UNL     1       4.434  16.431  20.885  0.00  0.00    +0.011 C 
ATOM     18  H   UNL     1       4.214  17.275  20.219  0.00  0.00    +0.033 HD
ATOM     19  H   UNL     1       5.470  16.132  20.692  0.00  0.00    +0.033 HD
BRANCH  17  20
ATOM     20  C   UNL     1       3.515  15.258  20.464  0.00  0.00    +0.108 C 
ATOM     21  H   UNL     1       3.595  15.145  19.375  0.00  0.00    +0.074 HD
BRANCH  20  22
ATOM     22  C   UNL     1       3.872  13.890  21.101  0.00  0.00    -0.009 C 
ATOM     23  H   UNL     1       4.886  13.939  21.517  0.00  0.00    +0.033 HD
BRANCH  22  24
ATOM     24  C   UNL     1       2.939  13.577  22.279  0.00  0.00    -0.059 C 
ATOM     25  H   UNL     1       2.299  12.716  22.055  0.00  0.00    +0.023 HD
ATOM     26  H   UNL     1       2.290  14.430  22.505  0.00  0.00    +0.023 HD
ATOM     27  H   UNL     1       3.511  13.334  23.180  0.00  0.00    +0.023 HD
ENDBRANCH  22  24
BRANCH  22  28
ATOM     28  C   UNL     1       3.808  12.740  20.094  0.00  0.00    -0.059 C 
ATOM     29  H   UNL     1       4.405  12.964  19.201  0.00  0.00    +0.023 HD
ATOM     30  H   UNL     1       4.175  11.803  20.522  0.00  0.00    +0.023 HD
ATOM     31  H   UNL     1       2.775  12.561  19.774  0.00  0.00    +0.023 HD
ENDBRANCH  22  28
ENDBRANCH  20  22
BRANCH  20  32
ATOM     32  O   UNL     1       2.136  15.543  20.789  0.00  0.00    -0.461 OA
BRANCH  32  33
ATOM     33  C   UNL     1       1.324  15.891  19.752  0.00  0.00    +0.307 C 
ATOM     34  O   UNL     1       1.131  17.033  19.358  0.00  0.00    -0.251 OA
BRANCH  33  35
ATOM     35  C   UNL     1       0.687  14.655  19.164  0.00  0.00    +0.046 C 
ATOM     36  H   UNL     1       0.032  14.217  19.922  0.00  0.00    +0.038 HD
ATOM     37  H   UNL     1       1.478  13.937  18.923  0.00  0.00    +0.038 HD
BRANCH  35  38
ATOM     38  C   UNL     1      -0.090  14.993  17.889  0.00  0.00    -0.031 C 
ATOM     39  H   UNL     1       0.359  15.865  17.396  0.00  0.00    +0.028 HD
ATOM     40  H   UNL     1       0.006  14.162  17.181  0.00  0.00    +0.028 HD
BRANCH  38  41
ATOM     41  C   UNL     1      -1.573  15.250  18.147  0.00  0.00    -0.006 C 
ATOM     42  H   UNL     1      -2.052  15.636  17.241  0.00  0.00    +0.042 HD
ATOM     43  H   UNL     1      -1.683  16.012  18.929  0.00  0.00    +0.042 HD
BRANCH  41  44
ATOM     44  N   UNL     1      -2.255  14.031  18.573  0.00  0.00    -0.330 NA
ATOM     45  H   UNL     1      -3.151  14.281  18.996  0.00  0.00    +0.118 HD
ATOM     46  H   UNL     1      -2.487  13.473  17.751  0.00  0.00    +0.118 HD
ENDBRANCH  41  44
ENDBRANCH  38  41
ENDBRANCH  35  38
ENDBRANCH  33  35
ENDBRANCH  32  33
ENDBRANCH  20  32
ENDBRANCH  17  20
ENDBRANCH  15  17
BRANCH  15  47
ATOM     47  O   UNL     1       3.796  18.261  22.310  0.00  0.00    -0.379 OA
BRANCH  47  48
ATOM     48  C   UNL     1       3.772  18.902  23.576  0.00  0.00    +0.037 C 
ATOM     49  H   UNL     1       2.744  19.032  23.924  0.00  0.00    +0.052 HD
ATOM     50  H   UNL     1       4.288  19.863  23.539  0.00  0.00    +0.052 HD
ATOM     51  H   UNL     1       4.292  18.257  24.291  0.00  0.00    +0.052 HD
ENDBRANCH  47  48
ENDBRANCH  15  47
ENDBRANCH   9  15
ENDBRANCH   6   9
ENDBRANCH   3   6
ENDBRANCH   1   3
BRANCH   1  52
ATOM     52  C   UNL     1       9.090  18.527  22.404  0.00  0.00    +0.020 C 
ATOM     53  H   UNL     1       8.144  18.431  21.855  0.00  0.00    +0.036 HD
BRANCH  52  54
ATOM     54  C   UNL     1      10.232  18.306  21.398  0.00  0.00    -0.057 C 
ATOM     55  H   UNL     1      10.888  17.491  21.728  0.00  0.00    +0.023 HD
ATOM     56  H   UNL     1      10.847  19.206  21.272  0.00  0.00    +0.023 HD
ATOM     57  H   UNL     1       9.849  18.020  20.415  0.00  0.00    +0.023 HD
ENDBRANCH  52  54
BRANCH  52  58
ATOM     58  C   UNL     1       9.110  19.955  23.038  0.00  0.00    +0.070 C 
ATOM     59  H   UNL     1       9.890  20.547  22.544  0.00  0.00    +0.061 HD
BRANCH  58  60
ATOM     60  C   UNL     1       7.772  20.747  22.879  0.00  0.00    +0.002 C 
ATOM     61  H   UNL     1       8.023  21.807  22.749  0.00  0.00    +0.037 HD
BRANCH  60  62
ATOM     62  C   UNL     1       6.942  20.277  21.698  0.00  0.00    -0.065 C 
ATOM     63  C   UNL     1       5.836  20.909  21.277  0.00  0.00    -0.005 C 
ATOM     64  H   UNL     1       7.301  19.374  21.207  0.00  0.00    +0.059 HD
ATOM     65  H   UNL     1       5.513  21.800  21.816  0.00  0.00    +0.078 HD
BRANCH  63  66
ATOM     66  N   UNL     1       5.028  20.537  20.213  0.00  0.00    -0.281 N 
ATOM     67  C   UNL     1       5.477  19.597  19.289  0.00  0.00    +0.206 C 
ATOM     68  O   UNL     1       4.883  19.214  18.288  0.00  0.00    -0.279 OA
ATOM     69  H   UNL     1       6.473  19.199  19.533  0.00  0.00    +0.126 HD
BRANCH  66  70
ATOM     70  C   UNL     1       3.711  21.127  19.977  0.00  0.00    +0.016 C 
ATOM     71  H   UNL     1       3.159  21.198  20.918  0.00  0.00    +0.047 HD
ATOM     72  H   UNL     1       3.126  20.455  19.337  0.00  0.00    +0.047 HD
BRANCH  70  73
ATOM     73  C   UNL     1       3.805  22.481  19.292  0.00  0.00    -0.049 C 
ATOM     74  H   UNL     1       2.828  22.809  18.918  0.00  0.00    +0.024 HD
ATOM     75  H   UNL     1       4.500  22.430  18.449  0.00  0.00    +0.024 HD
ATOM     76  H   UNL     1       4.161  23.245  19.990  0.00  0.00    +0.024 HD
ENDBRANCH  70  73
ENDBRANCH  66  70
ENDBRANCH  63  66
ENDBRANCH  60  62
BRANCH  60  77
ATOM     77  C   UNL     1       6.911  20.662  24.146  0.00  0.00    -0.057 C 
ATOM     78  H   UNL     1       6.663  21.653  24.543  0.00  0.00    +0.024 HD
ATOM     79  H   UNL     1       5.976  20.128  23.941  0.00  0.00    +0.024 HD
ATOM     80  H   UNL     1       7.437  20.114  24.936  0.00  0.00    +0.024 HD
ENDBRANCH  60  77
ENDBRANCH  58  60
BRANCH  58  81
ATOM     81  O   UNL     1       9.394  19.833  24.443  0.00  0.00    -0.379 OA
BRANCH  81  82
ATOM     82  C   UNL     1      10.605  20.457  24.846  0.00  0.00    +0.037 C 
ATOM     83  H   UNL     1      10.577  20.708  25.908  0.00  0.00    +0.052 HD
ATOM     84  H   UNL     1      11.467  19.819  24.633  0.00  0.00    +0.052 HD
ATOM     85  H   UNL     1      10.709  21.386  24.278  0.00  0.00    +0.052 HD
ENDBRANCH  81  82
ENDBRANCH  58  81
ENDBRANCH  52  58
ENDBRANCH   1  52
BRANCH   1  86
ATOM     86  O   UNL     1      10.424  16.784  23.549  0.00  0.00    -0.459 OA
BRANCH  86  88
ATOM     87  O   UNL     1      10.661  17.037  25.818  0.00  0.00    -0.248 OA
ATOM     88  C   UNL     1      10.828  16.393  24.790  0.00  0.00    +0.337 C 
BRANCH  88  89
ATOM     89  C   UNL     1      11.543  15.036  24.692  0.00  0.00    +0.155 C 
ATOM     90  O   UNL     1      11.428  14.451  23.383  0.00  0.00    -0.365 OA
ATOM     91  C   UNL     1      10.486  13.375  23.430  0.00  0.00    +0.049 C 
ATOM     92  C   UNL     1       9.849  13.397  24.803  0.00  0.00    -0.027 C 
ATOM     93  C   UNL     1      10.917  14.041  25.657  0.00  0.00    -0.014 C 
ATOM     94  H   UNL     1      12.609  15.196  24.894  0.00  0.00    +0.071 HD
ATOM     95  H   UNL     1      11.030  12.441  23.264  0.00  0.00    +0.056 HD
ATOM     96  H   UNL     1       9.751  13.498  22.630  0.00  0.00    +0.056 HD
ATOM     97  H   UNL     1       9.553  12.403  25.148  0.00  0.00    +0.029 HD
ATOM     98  H   UNL     1       8.952  14.027  24.792  0.00  0.00    +0.029 HD
ATOM     99  H   UNL     1      10.507  14.486  26.568  0.00  0.00    +0.030 HD
ATOM    100  H   UNL     1      11.662  13.283  25.943  0.00  0.00    +0.030 HD
ENDBRANCH  88  89
ENDBRANCH  86  88
ENDBRANCH   1  86
TORSDOF 32
ENDMDL
MODEL 5
REMARK VINA RESULT:      -5.1      5.617     12.264
REMARK  Name = 2a_conf1
REMARK  32 active torsions:
REMARK  status: ('A' for Active; 'I' for Inactive)
REMARK    1  A    between atoms: C_2  and  C_3
REMARK    2  A    between atoms: C_2  and  O_8
REMARK    3  A    between atoms: O_8  and  C_9
REMARK    4  A    between atoms: C_9  and  C_10
REMARK    5  A    between atoms: C_9  and  C_29
REMARK    6  A    between atoms: C_10  and  C_11
REMARK    7  A    between atoms: C_11  and  C_12
REMARK    8  A    between atoms: C_12  and  C_13
REMARK    9  A    between atoms: C_12  and  C_14
REMARK   10  A    between atoms: C_14  and  O_15
REMARK   11  A    between atoms: C_14  and  C_17
REMARK   12  A    between atoms: O_15  and  C_16
REMARK   13  A    between atoms: C_17  and  C_18
REMARK   14  A    between atoms: C_18  and  O_19
REMARK   15  A    between atoms: C_18  and  C_26
REMARK   16  A    between atoms: O_19  and  C_20
REMARK   17  A    between atoms: C_20  and  C_21
REMARK   18  A    between atoms: C_21  and  C_22
REMARK   19  A    between atoms: C_22  and  C_23
REMARK   20  A    between atoms: C_23  and  N_24
REMARK   21  A    between atoms: C_26  and  C_27
REMARK   22  A    between atoms: C_26  and  C_28
REMARK   23  A    between atoms: C_29  and  C_30
REMARK   24  A    between atoms: C_29  and  C_31
REMARK   25  A    between atoms: C_31  and  O_32
REMARK   26  A    between atoms: C_31  and  C_34
REMARK   27  A    between atoms: O_32  and  C_33
REMARK   28  A    between atoms: C_34  and  C_35
REMARK   29  A    between atoms: C_34  and  C_36
REMARK   30  A    between atoms: C_37  and  N_38
REMARK   31  A    between atoms: N_38  and  C_39
REMARK   32  A    between atoms: C_39  and  C_40
REMARK                            x       y       z     vdW  Elec       q    Type
REMARK                         _______ _______ _______ _____ _____    ______ ____
ROOT
ATOM      1  C   UNL     1      -3.834  15.628  18.224  0.00  0.00    +0.108 C 
ATOM      2  H   UNL     1      -3.700  15.652  19.313  0.00  0.00    +0.074 HD
ENDROOT
BRANCH   1   3
ATOM      3  C   UNL     1      -2.472  15.282  17.593  0.00  0.00    -0.015 C 
ATOM      4  H   UNL     1      -2.593  14.545  16.792  0.00  0.00    +0.030 HD
ATOM      5  H   UNL     1      -2.048  16.187  17.155  0.00  0.00    +0.030 HD
BRANCH   3   6
ATOM      6  C   UNL     1      -1.479  14.724  18.620  0.00  0.00    -0.045 C 
ATOM      7  H   UNL     1      -1.701  15.117  19.617  0.00  0.00    +0.027 HD
ATOM      8  H   UNL     1      -1.639  13.638  18.684  0.00  0.00    +0.027 HD
BRANCH   6   9
ATOM      9  C   UNL     1       0.005  14.979  18.257  0.00  0.00    -0.017 C 
ATOM     10  H   UNL     1       0.013  15.457  17.270  0.00  0.00    +0.032 HD
BRANCH   9  11
ATOM     11  C   UNL     1       0.720  13.629  18.089  0.00  0.00    -0.060 C 
ATOM     12  H   UNL     1       0.083  12.804  18.428  0.00  0.00    +0.023 HD
ATOM     13  H   UNL     1       1.003  13.442  17.048  0.00  0.00    +0.023 HD
ATOM     14  H   UNL     1       1.635  13.597  18.691  0.00  0.00    +0.023 HD
ENDBRANCH   9  11
BRANCH   9  15
ATOM     15  C   UNL     1       0.797  15.894  19.243  0.00  0.00    +0.064 C 
ATOM     16  H   UNL     1       1.658  16.298  18.699  0.00  0.00    +0.060 HD
BRANCH  15  17
ATOM     17  C   UNL     1       1.314  15.137  20.486  0.00  0.00    +0.011 C 
ATOM     18  H   UNL     1       0.684  15.412  21.342  0.00  0.00    +0.033 HD
ATOM     19  H   UNL     1       1.203  14.058  20.339  0.00  0.00    +0.033 HD
BRANCH  17  20
ATOM     20  C   UNL     1       2.783  15.414  20.886  0.00  0.00    +0.108 C 
ATOM     21  H   UNL     1       2.773  16.105  21.739  0.00  0.00    +0.074 HD
BRANCH  20  22
ATOM     22  C   UNL     1       3.589  14.160  21.314  0.00  0.00    -0.009 C 
ATOM     23  H   UNL     1       4.595  14.466  21.625  0.00  0.00    +0.033 HD
BRANCH  22  24
ATOM     24  C   UNL     1       2.947  13.492  22.539  0.00  0.00    -0.059 C 
ATOM     25  H   UNL     1       2.032  14.015  22.838  0.00  0.00    +0.023 HD
ATOM     26  H   UNL     1       3.632  13.496  23.394  0.00  0.00    +0.023 HD
ATOM     27  H   UNL     1       2.676  12.454  22.324  0.00  0.00    +0.023 HD
ENDBRANCH  22  24
BRANCH  22  28
ATOM     28  C   UNL     1       3.712  13.129  20.191  0.00  0.00    -0.059 C 
ATOM     29  H   UNL     1       2.740  12.948  19.714  0.00  0.00    +0.023 HD
ATOM     30  H   UNL     1       4.415  13.451  19.417  0.00  0.00    +0.023 HD
ATOM     31  H   UNL     1       4.082  12.174  20.579  0.00  0.00    +0.023 HD
ENDBRANCH  22  28
ENDBRANCH  20  22
BRANCH  20  32
ATOM     32  O   UNL     1       3.502  16.044  19.802  0.00  0.00    -0.461 OA
BRANCH  32  33
ATOM     33  C   UNL     1       4.561  16.828  20.147  0.00  0.00    +0.307 C 
ATOM     34  O   UNL     1       5.731  16.471  20.160  0.00  0.00    -0.251 OA
BRANCH  33  35
ATOM     35  C   UNL     1       4.075  18.208  20.520  0.00  0.00    +0.046 C 
ATOM     36  H   UNL     1       4.075  18.284  21.611  0.00  0.00    +0.038 HD
ATOM     37  H   UNL     1       3.048  18.325  20.157  0.00  0.00    +0.038 HD
BRANCH  35  38
ATOM     38  C   UNL     1       4.957  19.289  19.891  0.00  0.00    -0.031 C 
ATOM     39  H   UNL     1       5.040  20.149  20.569  0.00  0.00    +0.028 HD
ATOM     40  H   UNL     1       5.975  18.897  19.773  0.00  0.00    +0.028 HD
BRANCH  38  41
ATOM     41  C   UNL     1       4.449  19.751  18.526  0.00  0.00    -0.006 C 
ATOM     42  H   UNL     1       4.458  20.844  18.471  0.00  0.00    +0.042 HD
ATOM     43  H   UNL     1       3.410  19.422  18.392  0.00  0.00    +0.042 HD
BRANCH  41  44
ATOM     44  N   UNL     1       5.264  19.204  17.445  0.00  0.00    -0.330 NA
ATOM     45  H   UNL     1       5.843  18.448  17.814  0.00  0.00    +0.118 HD
ATOM     46  H   UNL     1       4.652  18.768  16.754  0.00  0.00    +0.118 HD
ENDBRANCH  41  44
ENDBRANCH  38  41
ENDBRANCH  35  38
ENDBRANCH  33  35
ENDBRANCH  32  33
ENDBRANCH  20  32
ENDBRANCH  17  20
ENDBRANCH  15  17
BRANCH  15  47
ATOM     47  O   UNL     1      -0.001  16.993  19.701  0.00  0.00    -0.379 OA
BRANCH  47  48
ATOM     48  C   UNL     1       0.592  18.266  19.498  0.00  0.00    +0.037 C 
ATOM     49  H   UNL     1       1.640  18.257  19.809  0.00  0.00    +0.052 HD
ATOM     50  H   UNL     1       0.042  19.044  20.030  0.00  0.00    +0.052 HD
ATOM     51  H   UNL     1       0.558  18.487  18.427  0.00  0.00    +0.052 HD
ENDBRANCH  47  48
ENDBRANCH  15  47
ENDBRANCH   9  15
ENDBRANCH   6   9
ENDBRANCH   3   6
ENDBRANCH   1   3
BRANCH   1  52
ATOM     52  C   UNL     1      -4.958  14.599  17.883  0.00  0.00    +0.020 C 
ATOM     53  H   UNL     1      -4.451  13.649  17.666  0.00  0.00    +0.036 HD
BRANCH  52  54
ATOM     54  C   UNL     1      -5.668  15.047  16.594  0.00  0.00    -0.057 C 
ATOM     55  H   UNL     1      -5.437  16.096  16.368  0.00  0.00    +0.023 HD
ATOM     56  H   UNL     1      -6.758  14.948  16.670  0.00  0.00    +0.023 HD
ATOM     57  H   UNL     1      -5.337  14.462  15.731  0.00  0.00    +0.023 HD
ENDBRANCH  52  54
BRANCH  52  58
ATOM     58  C   UNL     1      -5.952  14.330  19.058  0.00  0.00    +0.070 C 
ATOM     59  H   UNL     1      -6.973  14.313  18.657  0.00  0.00    +0.061 HD
BRANCH  58  60
ATOM     60  C   UNL     1      -5.729  12.967  19.789  0.00  0.00    +0.002 C 
ATOM     61  H   UNL     1      -6.561  12.823  20.490  0.00  0.00    +0.037 HD
BRANCH  60  62
ATOM     62  C   UNL     1      -5.663  11.788  18.835  0.00  0.00    -0.065 C 
ATOM     63  C   UNL     1      -6.735  11.297  18.194  0.00  0.00    -0.005 C 
ATOM     64  H   UNL     1      -4.675  11.350  18.706  0.00  0.00    +0.059 HD
ATOM     65  H   UNL     1      -7.703  11.765  18.374  0.00  0.00    +0.078 HD
BRANCH  63  66
ATOM     66  N   UNL     1      -6.751  10.224  17.316  0.00  0.00    -0.281 N 
ATOM     67  C   UNL     1      -7.909   9.919  16.606  0.00  0.00    +0.206 C 
ATOM     68  O   UNL     1      -8.067   8.979  15.835  0.00  0.00    -0.279 OA
ATOM     69  H   UNL     1      -8.730  10.623  16.803  0.00  0.00    +0.126 HD
BRANCH  66  70
ATOM     70  C   UNL     1      -5.599   9.345  17.123  0.00  0.00    +0.016 C 
ATOM     71  H   UNL     1      -5.936   8.314  16.980  0.00  0.00    +0.047 HD
ATOM     72  H   UNL     1      -4.995   9.337  18.039  0.00  0.00    +0.047 HD
BRANCH  70  73
ATOM     73  C   UNL     1      -4.718   9.800  15.971  0.00  0.00    -0.049 C 
ATOM     74  H   UNL     1      -4.303  10.797  16.155  0.00  0.00    +0.024 HD
ATOM     75  H   UNL     1      -5.297   9.830  15.043  0.00  0.00    +0.024 HD
ATOM     76  H   UNL     1      -3.876   9.114  15.832  0.00  0.00    +0.024 HD
ENDBRANCH  70  73
ENDBRANCH  66  70
ENDBRANCH  63  66
ENDBRANCH  60  62
BRANCH  60  77
ATOM     77  C   UNL     1      -4.451  12.982  20.637  0.00  0.00    -0.057 C 
ATOM     78  H   UNL     1      -3.697  12.283  20.259  0.00  0.00    +0.024 HD
ATOM     79  H   UNL     1      -4.013  13.987  20.656  0.00  0.00    +0.024 HD
ATOM     80  H   UNL     1      -4.671  12.700  21.674  0.00  0.00    +0.024 HD
ENDBRANCH  60  77
ENDBRANCH  58  60
BRANCH  58  81
ATOM     81  O   UNL     1      -5.817  15.385  20.027  0.00  0.00    -0.379 OA
BRANCH  81  82
ATOM     82  C   UNL     1      -7.054  15.888  20.513  0.00  0.00    +0.037 C 
ATOM     83  H   UNL     1      -6.892  16.588  21.334  0.00  0.00    +0.052 HD
ATOM     84  H   UNL     1      -7.624  16.370  19.715  0.00  0.00    +0.052 HD
ATOM     85  H   UNL     1      -7.633  15.042  20.895  0.00  0.00    +0.052 HD
ENDBRANCH  81  82
ENDBRANCH  58  81
ENDBRANCH  52  58
ENDBRANCH   1  52
BRANCH   1  86
ATOM     86  O   UNL     1      -4.190  16.949  17.766  0.00  0.00    -0.459 OA
BRANCH  86  88
ATOM     87  O   UNL     1      -3.228  18.156  19.464  0.00  0.00    -0.248 OA
ATOM     88  C   UNL     1      -4.155  17.948  18.692  0.00  0.00    +0.337 C 
BRANCH  88  89
ATOM     89  C   UNL     1      -5.464  18.751  18.628  0.00  0.00    +0.155 C 
ATOM     90  O   UNL     1      -6.209  18.488  17.426  0.00  0.00    -0.365 OA
ATOM     91  C   UNL     1      -6.079  19.603  16.539  0.00  0.00    +0.049 C 
ATOM     92  C   UNL     1      -5.059  20.542  17.146  0.00  0.00    -0.027 C 
ATOM     93  C   UNL     1      -5.166  20.243  18.623  0.00  0.00    -0.014 C 
ATOM     94  H   UNL     1      -6.088  18.455  19.480  0.00  0.00    +0.071 HD
ATOM     95  H   UNL     1      -7.058  20.086  16.457  0.00  0.00    +0.056 HD
ATOM     96  H   UNL     1      -5.780  19.250  15.549  0.00  0.00    +0.056 HD
ATOM     97  H   UNL     1      -5.247  21.589  16.897  0.00  0.00    +0.029 HD
ATOM     98  H   UNL     1      -4.054  20.289  16.787  0.00  0.00    +0.029 HD
ATOM     99  H   UNL     1      -4.263  20.528  19.171  0.00  0.00    +0.030 HD
ATOM    100  H   UNL     1      -6.020  20.792  19.047  0.00  0.00    +0.030 HD
ENDBRANCH  88  89
ENDBRANCH  86  88
ENDBRANCH   1  86
TORSDOF 32
ENDMDL
MODEL 6
REMARK VINA RESULT:      -5.1      3.789      9.124
REMARK  Name = 2a_conf1
REMARK  32 active torsions:
REMARK  status: ('A' for Active; 'I' for Inactive)
REMARK    1  A    between atoms: C_2  and  C_3
REMARK    2  A    between atoms: C_2  and  O_8
REMARK    3  A    between atoms: O_8  and  C_9
REMARK    4  A    between atoms: C_9  and  C_10
REMARK    5  A    between atoms: C_9  and  C_29
REMARK    6  A    between atoms: C_10  and  C_11
REMARK    7  A    between atoms: C_11  and  C_12
REMARK    8  A    between atoms: C_12  and  C_13
REMARK    9  A    between atoms: C_12  and  C_14
REMARK   10  A    between atoms: C_14  and  O_15
REMARK   11  A    between atoms: C_14  and  C_17
REMARK   12  A    between atoms: O_15  and  C_16
REMARK   13  A    between atoms: C_17  and  C_18
REMARK   14  A    between atoms: C_18  and  O_19
REMARK   15  A    between atoms: C_18  and  C_26
REMARK   16  A    between atoms: O_19  and  C_20
REMARK   17  A    between atoms: C_20  and  C_21
REMARK   18  A    between atoms: C_21  and  C_22
REMARK   19  A    between atoms: C_22  and  C_23
REMARK   20  A    between atoms: C_23  and  N_24
REMARK   21  A    between atoms: C_26  and  C_27
REMARK   22  A    between atoms: C_26  and  C_28
REMARK   23  A    between atoms: C_29  and  C_30
REMARK   24  A    between atoms: C_29  and  C_31
REMARK   25  A    between atoms: C_31  and  O_32
REMARK   26  A    between atoms: C_31  and  C_34
REMARK   27  A    between atoms: O_32  and  C_33
REMARK   28  A    between atoms: C_34  and  C_35
REMARK   29  A    between atoms: C_34  and  C_36
REMARK   30  A    between atoms: C_37  and  N_38
REMARK   31  A    between atoms: N_38  and  C_39
REMARK   32  A    between atoms: C_39  and  C_40
REMARK                            x       y       z     vdW  Elec       q    Type
REMARK                         _______ _______ _______ _____ _____    ______ ____
ROOT
ATOM      1  C   UNL     1       4.833  16.972  20.839  0.00  0.00    +0.108 C 
ATOM      2  H   UNL     1       5.891  16.690  20.900  0.00  0.00    +0.074 HD
ENDROOT
BRANCH   1   3
ATOM      3  C   UNL     1       4.234  16.846  22.253  0.00  0.00    -0.015 C 
ATOM      4  H   UNL     1       4.015  17.835  22.670  0.00  0.00    +0.030 HD
ATOM      5  H   UNL     1       3.294  16.294  22.187  0.00  0.00    +0.030 HD
BRANCH   3   6
ATOM      6  C   UNL     1       5.169  16.107  23.219  0.00  0.00    -0.045 C 
ATOM      7  H   UNL     1       4.816  15.083  23.380  0.00  0.00    +0.027 HD
ATOM      8  H   UNL     1       6.147  16.012  22.728  0.00  0.00    +0.027 HD
BRANCH   6   9
ATOM      9  C   UNL     1       5.367  16.830  24.573  0.00  0.00    -0.017 C 
ATOM     10  H   UNL     1       4.540  16.519  25.223  0.00  0.00    +0.032 HD
BRANCH   9  11
ATOM     11  C   UNL     1       5.205  18.344  24.363  0.00  0.00    -0.060 C 
ATOM     12  H   UNL     1       4.547  18.777  25.125  0.00  0.00    +0.023 HD
ATOM     13  H   UNL     1       6.166  18.867  24.399  0.00  0.00    +0.023 HD
ATOM     14  H   UNL     1       4.751  18.554  23.388  0.00  0.00    +0.023 HD
ENDBRANCH   9  11
BRANCH   9  15
ATOM     15  C   UNL     1       6.705  16.525  25.316  0.00  0.00    +0.064 C 
ATOM     16  H   UNL     1       6.461  16.303  26.361  0.00  0.00    +0.060 HD
BRANCH  15  17
ATOM     17  C   UNL     1       7.695  17.711  25.286  0.00  0.00    +0.011 C 
ATOM     18  H   UNL     1       7.140  18.615  25.003  0.00  0.00    +0.033 HD
ATOM     19  H   UNL     1       8.102  17.884  26.287  0.00  0.00    +0.033 HD
BRANCH  17  20
ATOM     20  C   UNL     1       8.886  17.574  24.306  0.00  0.00    +0.108 C 
ATOM     21  H   UNL     1       8.793  16.604  23.800  0.00  0.00    +0.074 HD
BRANCH  20  22
ATOM     22  C   UNL     1       8.953  18.665  23.207  0.00  0.00    -0.009 C 
ATOM     23  H   UNL     1       7.988  19.184  23.153  0.00  0.00    +0.033 HD
BRANCH  22  24
ATOM     24  C   UNL     1       9.994  19.736  23.565  0.00  0.00    -0.059 C 
ATOM     25  H   UNL     1      10.977  19.284  23.743  0.00  0.00    +0.023 HD
ATOM     26  H   UNL     1       9.705  20.279  24.472  0.00  0.00    +0.023 HD
ATOM     27  H   UNL     1      10.109  20.461  22.754  0.00  0.00    +0.023 HD
ENDBRANCH  22  24
BRANCH  22  28
ATOM     28  C   UNL     1       9.283  18.091  21.828  0.00  0.00    -0.059 C 
ATOM     29  H   UNL     1       9.824  17.140  21.917  0.00  0.00    +0.023 HD
ATOM     30  H   UNL     1       8.382  17.915  21.234  0.00  0.00    +0.023 HD
ATOM     31  H   UNL     1       9.911  18.785  21.258  0.00  0.00    +0.023 HD
ENDBRANCH  22  28
ENDBRANCH  20  22
BRANCH  20  32
ATOM     32  O   UNL     1      10.143  17.594  25.018  0.00  0.00    -0.461 OA
BRANCH  32  33
ATOM     33  C   UNL     1      10.725  16.387  25.264  0.00  0.00    +0.307 C 
ATOM     34  O   UNL     1      10.699  15.795  26.334  0.00  0.00    -0.251 OA
BRANCH  33  35
ATOM     35  C   UNL     1      11.418  15.890  24.018  0.00  0.00    +0.046 C 
ATOM     36  H   UNL     1      12.397  16.373  23.958  0.00  0.00    +0.038 HD
ATOM     37  H   UNL     1      10.823  16.187  23.147  0.00  0.00    +0.038 HD
BRANCH  35  38
ATOM     38  C   UNL     1      11.553  14.366  24.037  0.00  0.00    -0.031 C 
ATOM     39  H   UNL     1      12.533  14.070  23.638  0.00  0.00    +0.028 HD
ATOM     40  H   UNL     1      11.533  14.018  25.077  0.00  0.00    +0.028 HD
BRANCH  38  41
ATOM     41  C   UNL     1      10.443  13.660  23.262  0.00  0.00    -0.006 C 
ATOM     42  H   UNL     1       9.917  14.375  22.621  0.00  0.00    +0.042 HD
ATOM     43  H   UNL     1       9.709  13.247  23.967  0.00  0.00    +0.042 HD
BRANCH  41  44
ATOM     44  N   UNL     1      10.976  12.575  22.443  0.00  0.00    -0.330 NA
ATOM     45  H   UNL     1      10.213  11.950  22.180  0.00  0.00    +0.118 HD
ATOM     46  H   UNL     1      11.328  12.961  21.566  0.00  0.00    +0.118 HD
ENDBRANCH  41  44
ENDBRANCH  38  41
ENDBRANCH  35  38
ENDBRANCH  33  35
ENDBRANCH  32  33
ENDBRANCH  20  32
ENDBRANCH  17  20
ENDBRANCH  15  17
BRANCH  15  47
ATOM     47  O   UNL     1       7.371  15.385  24.758  0.00  0.00    -0.379 OA
BRANCH  47  48
ATOM     48  C   UNL     1       7.517  14.299  25.660  0.00  0.00    +0.037 C 
ATOM     49  H   UNL     1       8.206  13.553  25.258  0.00  0.00    +0.052 HD
ATOM     50  H   UNL     1       6.550  13.845  25.886  0.00  0.00    +0.052 HD
ATOM     51  H   UNL     1       7.942  14.687  26.591  0.00  0.00    +0.052 HD
ENDBRANCH  47  48
ENDBRANCH  15  47
ENDBRANCH   9  15
ENDBRANCH   6   9
ENDBRANCH   3   6
ENDBRANCH   1   3
BRANCH   1  52
ATOM     52  C   UNL     1       4.734  18.413  20.247  0.00  0.00    +0.020 C 
ATOM     53  H   UNL     1       4.865  18.311  19.162  0.00  0.00    +0.036 HD
BRANCH  52  54
ATOM     54  C   UNL     1       5.911  19.250  20.777  0.00  0.00    -0.057 C 
ATOM     55  H   UNL     1       5.862  20.276  20.393  0.00  0.00    +0.023 HD
ATOM     56  H   UNL     1       6.880  18.825  20.487  0.00  0.00    +0.023 HD
ATOM     57  H   UNL     1       5.890  19.324  21.868  0.00  0.00    +0.023 HD
ENDBRANCH  52  54
BRANCH  52  58
ATOM     58  C   UNL     1       3.351  19.102  20.479  0.00  0.00    +0.070 C 
ATOM     59  H   UNL     1       2.902  18.692  21.392  0.00  0.00    +0.061 HD
BRANCH  58  60
ATOM     60  C   UNL     1       3.428  20.651  20.668  0.00  0.00    +0.002 C 
ATOM     61  H   UNL     1       4.420  20.890  21.074  0.00  0.00    +0.037 HD
BRANCH  60  62
ATOM     62  C   UNL     1       3.215  21.418  19.375  0.00  0.00    -0.065 C 
ATOM     63  C   UNL     1       4.211  21.727  18.529  0.00  0.00    -0.005 C 
ATOM     64  H   UNL     1       2.187  21.714  19.174  0.00  0.00    +0.059 HD
ATOM     65  H   UNL     1       5.224  21.418  18.788  0.00  0.00    +0.078 HD
BRANCH  63  66
ATOM     66  N   UNL     1       4.092  22.425  17.337  0.00  0.00    -0.281 N 
ATOM     67  C   UNL     1       2.944  23.166  17.071  0.00  0.00    +0.206 C 
ATOM     68  O   UNL     1       2.698  23.790  16.045  0.00  0.00    -0.279 OA
ATOM     69  H   UNL     1       2.220  23.144  17.898  0.00  0.00    +0.126 HD
BRANCH  66  70
ATOM     70  C   UNL     1       5.119  22.390  16.296  0.00  0.00    +0.016 C 
ATOM     71  H   UNL     1       6.111  22.481  16.746  0.00  0.00    +0.047 HD
ATOM     72  H   UNL     1       5.003  23.267  15.647  0.00  0.00    +0.047 HD
BRANCH  70  73
ATOM     73  C   UNL     1       5.019  21.141  15.436  0.00  0.00    -0.049 C 
ATOM     74  H   UNL     1       5.355  21.334  14.410  0.00  0.00    +0.024 HD
ATOM     75  H   UNL     1       3.984  20.788  15.402  0.00  0.00    +0.024 HD
ATOM     76  H   UNL     1       5.645  20.340  15.841  0.00  0.00    +0.024 HD
ENDBRANCH  70  73
ENDBRANCH  66  70
ENDBRANCH  63  66
ENDBRANCH  60  62
BRANCH  60  77
ATOM     77  C   UNL     1       2.410  21.147  21.703  0.00  0.00    -0.057 C 
ATOM     78  H   UNL     1       1.904  22.063  21.378  0.00  0.00    +0.024 HD
ATOM     79  H   UNL     1       1.650  20.381  21.893  0.00  0.00    +0.024 HD
ATOM     80  H   UNL     1       2.903  21.365  22.658  0.00  0.00    +0.024 HD
ENDBRANCH  60  77
ENDBRANCH  58  60
BRANCH  58  81
ATOM     81  O   UNL     1       2.506  18.832  19.345  0.00  0.00    -0.379 OA
BRANCH  81  82
ATOM     82  C   UNL     1       1.258  18.242  19.681  0.00  0.00    +0.037 C 
ATOM     83  H   UNL     1       0.709  17.958  18.782  0.00  0.00    +0.052 HD
ATOM     84  H   UNL     1       1.395  17.371  20.328  0.00  0.00    +0.052 HD
ATOM     85  H   UNL     1       0.668  18.988  20.220  0.00  0.00    +0.052 HD
ENDBRANCH  81  82
ENDBRANCH  58  81
ENDBRANCH  52  58
ENDBRANCH   1  52
BRANCH   1  86
ATOM     86  O   UNL     1       4.142  16.023  20.000  0.00  0.00    -0.459 OA
BRANCH  86  88
ATOM     87  O   UNL     1       5.831  14.695  19.193  0.00  0.00    -0.248 OA
ATOM     88  C   UNL     1       4.765  14.831  19.781  0.00  0.00    +0.337 C 
BRANCH  88  89
ATOM     89  C   UNL     1       3.914  13.693  20.366  0.00  0.00    +0.155 C 
ATOM     90  O   UNL     1       3.945  12.511  19.545  0.00  0.00    -0.365 OA
ATOM     91  C   UNL     1       2.703  12.394  18.845  0.00  0.00    +0.049 C 
ATOM     92  C   UNL     1       1.917  13.660  19.108  0.00  0.00    -0.027 C 
ATOM     93  C   UNL     1       2.455  14.115  20.446  0.00  0.00    -0.014 C 
ATOM     94  H   UNL     1       4.324  13.429  21.348  0.00  0.00    +0.071 HD
ATOM     95  H   UNL     1       2.177  11.517  19.234  0.00  0.00    +0.056 HD
ATOM     96  H   UNL     1       2.897  12.240  17.781  0.00  0.00    +0.056 HD
ATOM     97  H   UNL     1       0.837  13.497  19.103  0.00  0.00    +0.029 HD
ATOM     98  H   UNL     1       2.145  14.411  18.341  0.00  0.00    +0.029 HD
ATOM     99  H   UNL     1       2.299  15.184  20.613  0.00  0.00    +0.030 HD
ATOM    100  H   UNL     1       1.952  13.558  21.250  0.00  0.00    +0.030 HD
ENDBRANCH  88  89
ENDBRANCH  86  88
ENDBRANCH   1  86
TORSDOF 32
ENDMDL
MODEL 7
REMARK VINA RESULT:      -5.1      3.697      9.153
REMARK  Name = 2a_conf1
REMARK  32 active torsions:
REMARK  status: ('A' for Active; 'I' for Inactive)
REMARK    1  A    between atoms: C_2  and  C_3
REMARK    2  A    between atoms: C_2  and  O_8
REMARK    3  A    between atoms: O_8  and  C_9
REMARK    4  A    between atoms: C_9  and  C_10
REMARK    5  A    between atoms: C_9  and  C_29
REMARK    6  A    between atoms: C_10  and  C_11
REMARK    7  A    between atoms: C_11  and  C_12
REMARK    8  A    between atoms: C_12  and  C_13
REMARK    9  A    between atoms: C_12  and  C_14
REMARK   10  A    between atoms: C_14  and  O_15
REMARK   11  A    between atoms: C_14  and  C_17
REMARK   12  A    between atoms: O_15  and  C_16
REMARK   13  A    between atoms: C_17  and  C_18
REMARK   14  A    between atoms: C_18  and  O_19
REMARK   15  A    between atoms: C_18  and  C_26
REMARK   16  A    between atoms: O_19  and  C_20
REMARK   17  A    between atoms: C_20  and  C_21
REMARK   18  A    between atoms: C_21  and  C_22
REMARK   19  A    between atoms: C_22  and  C_23
REMARK   20  A    between atoms: C_23  and  N_24
REMARK   21  A    between atoms: C_26  and  C_27
REMARK   22  A    between atoms: C_26  and  C_28
REMARK   23  A    between atoms: C_29  and  C_30
REMARK   24  A    between atoms: C_29  and  C_31
REMARK   25  A    between atoms: C_31  and  O_32
REMARK   26  A    between atoms: C_31  and  C_34
REMARK   27  A    between atoms: O_32  and  C_33
REMARK   28  A    between atoms: C_34  and  C_35
REMARK   29  A    between atoms: C_34  and  C_36
REMARK   30  A    between atoms: C_37  and  N_38
REMARK   31  A    between atoms: N_38  and  C_39
REMARK   32  A    between atoms: C_39  and  C_40
REMARK                            x       y       z     vdW  Elec       q    Type
REMARK                         _______ _______ _______ _____ _____    ______ ____
ROOT
ATOM      1  C   UNL     1       4.741  17.594  20.115  0.00  0.00    +0.108 C 
ATOM      2  H   UNL     1       5.795  17.502  20.403  0.00  0.00    +0.074 HD
ENDROOT
BRANCH   1   3
ATOM      3  C   UNL     1       3.887  17.268  21.355  0.00  0.00    -0.015 C 
ATOM      4  H   UNL     1       2.970  17.866  21.362  0.00  0.00    +0.030 HD
ATOM      5  H   UNL     1       3.601  16.215  21.317  0.00  0.00    +0.030 HD
BRANCH   3   6
ATOM      6  C   UNL     1       4.642  17.522  22.666  0.00  0.00    -0.045 C 
ATOM      7  H   UNL     1       5.250  18.428  22.586  0.00  0.00    +0.027 HD
ATOM      8  H   UNL     1       3.896  17.731  23.446  0.00  0.00    +0.027 HD
BRANCH   6   9
ATOM      9  C   UNL     1       5.512  16.327  23.128  0.00  0.00    -0.017 C 
ATOM     10  H   UNL     1       5.939  15.877  22.224  0.00  0.00    +0.032 HD
BRANCH   9  11
ATOM     11  C   UNL     1       4.604  15.257  23.755  0.00  0.00    -0.060 C 
ATOM     12  H   UNL     1       4.408  14.445  23.046  0.00  0.00    +0.023 HD
ATOM     13  H   UNL     1       5.044  14.826  24.661  0.00  0.00    +0.023 HD
ATOM     14  H   UNL     1       3.633  15.685  24.031  0.00  0.00    +0.023 HD
ENDBRANCH   9  11
BRANCH   9  15
ATOM     15  C   UNL     1       6.687  16.676  24.094  0.00  0.00    +0.064 C 
ATOM     16  H   UNL     1       7.420  17.260  23.528  0.00  0.00    +0.060 HD
BRANCH  15  17
ATOM     17  C   UNL     1       7.391  15.424  24.663  0.00  0.00    +0.011 C 
ATOM     18  H   UNL     1       6.984  15.226  25.663  0.00  0.00    +0.033 HD
ATOM     19  H   UNL     1       7.161  14.551  24.044  0.00  0.00    +0.033 HD
BRANCH  17  20
ATOM     20  C   UNL     1       8.930  15.517  24.801  0.00  0.00    +0.108 C 
ATOM     21  H   UNL     1       9.154  15.917  25.798  0.00  0.00    +0.074 HD
BRANCH  20  22
ATOM     22  C   UNL     1       9.679  14.166  24.665  0.00  0.00    -0.009 C 
ATOM     23  H   UNL     1       8.960  13.343  24.760  0.00  0.00    +0.033 HD
BRANCH  22  24
ATOM     24  C   UNL     1      10.306  14.028  23.270  0.00  0.00    -0.059 C 
ATOM     25  H   UNL     1      10.247  14.972  22.718  0.00  0.00    +0.023 HD
ATOM     26  H   UNL     1       9.792  13.261  22.681  0.00  0.00    +0.023 HD
ATOM     27  H   UNL     1      11.364  13.755  23.339  0.00  0.00    +0.023 HD
ENDBRANCH  22  24
BRANCH  22  28
ATOM     28  C   UNL     1      10.770  13.991  25.722  0.00  0.00    -0.059 C 
ATOM     29  H   UNL     1      10.854  14.884  26.354  0.00  0.00    +0.023 HD
ATOM     30  H   UNL     1      10.575  13.133  26.372  0.00  0.00    +0.023 HD
ATOM     31  H   UNL     1      11.744  13.818  25.250  0.00  0.00    +0.023 HD
ENDBRANCH  22  28
ENDBRANCH  20  22
BRANCH  20  32
ATOM     32  O   UNL     1       9.482  16.421  23.817  0.00  0.00    -0.461 OA
BRANCH  32  33
ATOM     33  C   UNL     1      10.270  17.427  24.287  0.00  0.00    +0.307 C 
ATOM     34  O   UNL     1      10.470  17.677  25.468  0.00  0.00    -0.251 OA
BRANCH  33  35
ATOM     35  C   UNL     1      10.858  18.199  23.130  0.00  0.00    +0.046 C 
ATOM     36  H   UNL     1      11.021  17.501  22.304  0.00  0.00    +0.038 HD
ATOM     37  H   UNL     1      11.825  18.609  23.443  0.00  0.00    +0.038 HD
BRANCH  35  38
ATOM     38  C   UNL     1       9.937  19.347  22.712  0.00  0.00    -0.031 C 
ATOM     39  H   UNL     1       9.152  19.492  23.467  0.00  0.00    +0.028 HD
ATOM     40  H   UNL     1      10.513  20.279  22.691  0.00  0.00    +0.028 HD
BRANCH  38  41
ATOM     41  C   UNL     1       9.303  19.131  21.339  0.00  0.00    -0.006 C 
ATOM     42  H   UNL     1      10.079  18.933  20.592  0.00  0.00    +0.042 HD
ATOM     43  H   UNL     1       8.774  20.043  21.032  0.00  0.00    +0.042 HD
BRANCH  41  44
ATOM     44  N   UNL     1       8.357  18.019  21.362  0.00  0.00    -0.330 NA
ATOM     45  H   UNL     1       8.258  17.646  20.416  0.00  0.00    +0.118 HD
ATOM     46  H   UNL     1       8.750  17.257  21.916  0.00  0.00    +0.118 HD
ENDBRANCH  41  44
ENDBRANCH  38  41
ENDBRANCH  35  38
ENDBRANCH  33  35
ENDBRANCH  32  33
ENDBRANCH  20  32
ENDBRANCH  17  20
ENDBRANCH  15  17
BRANCH  15  47
ATOM     47  O   UNL     1       6.241  17.468  25.203  0.00  0.00    -0.379 OA
BRANCH  47  48
ATOM     48  C   UNL     1       6.951  18.685  25.369  0.00  0.00    +0.037 C 
ATOM     49  H   UNL     1       7.993  18.491  25.639  0.00  0.00    +0.052 HD
ATOM     50  H   UNL     1       6.474  19.319  26.119  0.00  0.00    +0.052 HD
ATOM     51  H   UNL     1       6.942  19.215  24.412  0.00  0.00    +0.052 HD
ENDBRANCH  47  48
ENDBRANCH  15  47
ENDBRANCH   9  15
ENDBRANCH   6   9
ENDBRANCH   3   6
ENDBRANCH   1   3
BRANCH   1  52
ATOM     52  C   UNL     1       4.501  19.032  19.556  0.00  0.00    +0.020 C 
ATOM     53  H   UNL     1       4.534  18.946  18.461  0.00  0.00    +0.036 HD
BRANCH  52  54
ATOM     54  C   UNL     1       5.671  19.934  19.983  0.00  0.00    -0.057 C 
ATOM     55  H   UNL     1       6.592  19.348  20.094  0.00  0.00    +0.023 HD
ATOM     56  H   UNL     1       5.472  20.438  20.937  0.00  0.00    +0.023 HD
ATOM     57  H   UNL     1       5.878  20.703  19.234  0.00  0.00    +0.023 HD
ENDBRANCH  52  54
BRANCH  52  58
ATOM     58  C   UNL     1       3.107  19.634  19.926  0.00  0.00    +0.070 C 
ATOM     59  H   UNL     1       2.843  19.311  20.940  0.00  0.00    +0.061 HD
BRANCH  58  60
ATOM     60  C   UNL     1       3.061  21.196  19.921  0.00  0.00    +0.002 C 
ATOM     61  H   UNL     1       4.084  21.562  20.070  0.00  0.00    +0.037 HD
BRANCH  60  62
ATOM     62  C   UNL     1       2.504  21.768  18.629  0.00  0.00    -0.065 C 
ATOM     63  C   UNL     1       3.276  22.251  17.644  0.00  0.00    -0.005 C 
ATOM     64  H   UNL     1       1.418  21.770  18.552  0.00  0.00    +0.059 HD
ATOM     65  H   UNL     1       4.358  22.238  17.782  0.00  0.00    +0.078 HD
BRANCH  63  66
ATOM     66  N   UNL     1       2.840  22.790  16.443  0.00  0.00    -0.281 N 
ATOM     67  C   UNL     1       1.640  22.364  15.880  0.00  0.00    +0.206 C 
ATOM     68  O   UNL     1       1.165  22.728  14.811  0.00  0.00    -0.279 OA
ATOM     69  H   UNL     1       1.116  21.622  16.500  0.00  0.00    +0.126 HD
BRANCH  66  70
ATOM     70  C   UNL     1       3.614  23.779  15.694  0.00  0.00    +0.016 C 
ATOM     71  H   UNL     1       4.046  24.513  16.380  0.00  0.00    +0.047 HD
ATOM     72  H   UNL     1       2.938  24.343  15.039  0.00  0.00    +0.047 HD
BRANCH  70  73
ATOM     73  C   UNL     1       4.688  23.132  14.834  0.00  0.00    -0.049 C 
ATOM     74  H   UNL     1       5.621  23.707  14.861  0.00  0.00    +0.024 HD
ATOM     75  H   UNL     1       4.350  23.068  13.795  0.00  0.00    +0.024 HD
ATOM     76  H   UNL     1       4.913  22.122  15.189  0.00  0.00    +0.024 HD
ENDBRANCH  70  73
ENDBRANCH  66  70
ENDBRANCH  63  66
ENDBRANCH  60  62
BRANCH  60  77
ATOM     77  C   UNL     1       2.235  21.742  21.093  0.00  0.00    -0.057 C 
ATOM     78  H   UNL     1       1.361  22.309  20.753  0.00  0.00    +0.024 HD
ATOM     79  H   UNL     1       1.887  20.923  21.733  0.00  0.00    +0.024 HD
ATOM     80  H   UNL     1       2.840  22.411  21.715  0.00  0.00    +0.024 HD
ENDBRANCH  60  77
ENDBRANCH  58  60
BRANCH  58  81
ATOM     81  O   UNL     1       2.132  19.154  18.983  0.00  0.00    -0.379 OA
BRANCH  81  82
ATOM     82  C   UNL     1       1.002  18.535  19.582  0.00  0.00    +0.037 C 
ATOM     83  H   UNL     1       0.117  19.166  19.483  0.00  0.00    +0.052 HD
ATOM     84  H   UNL     1       0.813  17.552  19.144  0.00  0.00    +0.052 HD
ATOM     85  H   UNL     1       1.214  18.409  20.647  0.00  0.00    +0.052 HD
ENDBRANCH  81  82
ENDBRANCH  58  81
ENDBRANCH  52  58
ENDBRANCH   1  52
BRANCH   1  86
ATOM     86  O   UNL     1       4.438  16.597  19.118  0.00  0.00    -0.459 OA
BRANCH  86  88
ATOM     87  O   UNL     1       5.902  15.002  19.878  0.00  0.00    -0.248 OA
ATOM     88  C   UNL     1       4.824  15.319  19.393  0.00  0.00    +0.337 C 
BRANCH  88  89
ATOM     89  C   UNL     1       3.708  14.346  18.980  0.00  0.00    +0.155 C 
ATOM     90  O   UNL     1       2.417  14.980  18.939  0.00  0.00    -0.365 OA
ATOM     91  C   UNL     1       1.655  14.567  20.077  0.00  0.00    +0.049 C 
ATOM     92  C   UNL     1       2.579  13.766  20.970  0.00  0.00    -0.027 C 
ATOM     93  C   UNL     1       3.593  13.217  19.992  0.00  0.00    -0.014 C 
ATOM     94  H   UNL     1       3.932  13.978  17.971  0.00  0.00    +0.071 HD
ATOM     95  H   UNL     1       0.822  13.954  19.722  0.00  0.00    +0.056 HD
ATOM     96  H   UNL     1       1.250  15.447  20.584  0.00  0.00    +0.056 HD
ATOM     97  H   UNL     1       2.055  12.993  21.536  0.00  0.00    +0.029 HD
ATOM     98  H   UNL     1       3.076  14.428  21.689  0.00  0.00    +0.029 HD
ATOM     99  H   UNL     1       4.534  12.946  20.480  0.00  0.00    +0.030 HD
ATOM    100  H   UNL     1       3.182  12.321  19.503  0.00  0.00    +0.030 HD
ENDBRANCH  88  89
ENDBRANCH  86  88
ENDBRANCH   1  86
TORSDOF 32
ENDMDL
MODEL 8
REMARK VINA RESULT:      -5.0      5.418     11.428
REMARK  Name = 2a_conf1
REMARK  32 active torsions:
REMARK  status: ('A' for Active; 'I' for Inactive)
REMARK    1  A    between atoms: C_2  and  C_3
REMARK    2  A    between atoms: C_2  and  O_8
REMARK    3  A    between atoms: O_8  and  C_9
REMARK    4  A    between atoms: C_9  and  C_10
REMARK    5  A    between atoms: C_9  and  C_29
REMARK    6  A    between atoms: C_10  and  C_11
REMARK    7  A    between atoms: C_11  and  C_12
REMARK    8  A    between atoms: C_12  and  C_13
REMARK    9  A    between atoms: C_12  and  C_14
REMARK   10  A    between atoms: C_14  and  O_15
REMARK   11  A    between atoms: C_14  and  C_17
REMARK   12  A    between atoms: O_15  and  C_16
REMARK   13  A    between atoms: C_17  and  C_18
REMARK   14  A    between atoms: C_18  and  O_19
REMARK   15  A    between atoms: C_18  and  C_26
REMARK   16  A    between atoms: O_19  and  C_20
REMARK   17  A    between atoms: C_20  and  C_21
REMARK   18  A    between atoms: C_21  and  C_22
REMARK   19  A    between atoms: C_22  and  C_23
REMARK   20  A    between atoms: C_23  and  N_24
REMARK   21  A    between atoms: C_26  and  C_27
REMARK   22  A    between atoms: C_26  and  C_28
REMARK   23  A    between atoms: C_29  and  C_30
REMARK   24  A    between atoms: C_29  and  C_31
REMARK   25  A    between atoms: C_31  and  O_32
REMARK   26  A    between atoms: C_31  and  C_34
REMARK   27  A    between atoms: O_32  and  C_33
REMARK   28  A    between atoms: C_34  and  C_35
REMARK   29  A    between atoms: C_34  and  C_36
REMARK   30  A    between atoms: C_37  and  N_38
REMARK   31  A    between atoms: N_38  and  C_39
REMARK   32  A    between atoms: C_39  and  C_40
REMARK                            x       y       z     vdW  Elec       q    Type
REMARK                         _______ _______ _______ _____ _____    ______ ____
ROOT
ATOM      1  C   UNL     1      -3.426  14.448  18.898  0.00  0.00    +0.108 C 
ATOM      2  H   UNL     1      -4.135  14.716  18.105  0.00  0.00    +0.074 HD
ENDROOT
BRANCH   1   3
ATOM      3  C   UNL     1      -2.097  14.055  18.225  0.00  0.00    -0.015 C 
ATOM      4  H   UNL     1      -1.476  13.467  18.908  0.00  0.00    +0.030 HD
ATOM      5  H   UNL     1      -2.316  13.437  17.353  0.00  0.00    +0.030 HD
BRANCH   3   6
ATOM      6  C   UNL     1      -1.292  15.278  17.767  0.00  0.00    -0.045 C 
ATOM      7  H   UNL     1      -1.494  15.494  16.713  0.00  0.00    +0.027 HD
ATOM      8  H   UNL     1      -1.662  16.149  18.326  0.00  0.00    +0.027 HD
BRANCH   6   9
ATOM      9  C   UNL     1       0.232  15.151  18.011  0.00  0.00    -0.017 C 
ATOM     10  H   UNL     1       0.730  15.507  17.101  0.00  0.00    +0.032 HD
BRANCH   9  11
ATOM     11  C   UNL     1       0.595  13.663  18.149  0.00  0.00    -0.060 C 
ATOM     12  H   UNL     1       0.698  13.193  17.164  0.00  0.00    +0.023 HD
ATOM     13  H   UNL     1       1.531  13.520  18.699  0.00  0.00    +0.023 HD
ATOM     14  H   UNL     1      -0.191  13.120  18.684  0.00  0.00    +0.023 HD
ENDBRANCH   9  11
BRANCH   9  15
ATOM     15  C   UNL     1       0.797  15.961  19.219  0.00  0.00    +0.064 C 
ATOM     16  H   UNL     1       1.760  16.385  18.912  0.00  0.00    +0.060 HD
BRANCH  15  17
ATOM     17  C   UNL     1       1.021  15.092  20.476  0.00  0.00    +0.011 C 
ATOM     18  H   UNL     1       0.403  15.497  21.288  0.00  0.00    +0.033 HD
ATOM     19  H   UNL     1       0.679  14.069  20.290  0.00  0.00    +0.033 HD
BRANCH  17  20
ATOM     20  C   UNL     1       2.477  15.018  20.997  0.00  0.00    +0.108 C 
ATOM     21  H   UNL     1       2.578  15.748  21.811  0.00  0.00    +0.074 HD
BRANCH  20  22
ATOM     22  C   UNL     1       2.898  13.636  21.559  0.00  0.00    -0.009 C 
ATOM     23  H   UNL     1       2.007  13.007  21.676  0.00  0.00    +0.033 HD
BRANCH  22  24
ATOM     24  C   UNL     1       3.814  12.901  20.570  0.00  0.00    -0.059 C 
ATOM     25  H   UNL     1       3.228  12.357  19.821  0.00  0.00    +0.023 HD
ATOM     26  H   UNL     1       4.453  12.178  21.088  0.00  0.00    +0.023 HD
ATOM     27  H   UNL     1       4.459  13.604  20.033  0.00  0.00    +0.023 HD
ENDBRANCH  22  24
BRANCH  22  28
ATOM     28  C   UNL     1       3.607  13.742  22.910  0.00  0.00    -0.059 C 
ATOM     29  H   UNL     1       3.288  14.642  23.452  0.00  0.00    +0.023 HD
ATOM     30  H   UNL     1       3.407  12.874  23.545  0.00  0.00    +0.023 HD
ATOM     31  H   UNL     1       4.693  13.796  22.776  0.00  0.00    +0.023 HD
ENDBRANCH  22  28
ENDBRANCH  20  22
BRANCH  20  32
ATOM     32  O   UNL     1       3.416  15.369  19.956  0.00  0.00    -0.461 OA
BRANCH  32  33
ATOM     33  C   UNL     1       4.378  16.277  20.281  0.00  0.00    +0.307 C 
ATOM     34  O   UNL     1       5.569  16.168  20.024  0.00  0.00    -0.251 OA
BRANCH  33  35
ATOM     35  C   UNL     1       3.756  17.439  21.018  0.00  0.00    +0.046 C 
ATOM     36  H   UNL     1       3.775  17.212  22.087  0.00  0.00    +0.038 HD
ATOM     37  H   UNL     1       2.714  17.537  20.695  0.00  0.00    +0.038 HD
BRANCH  35  38
ATOM     38  C   UNL     1       4.502  18.741  20.716  0.00  0.00    -0.031 C 
ATOM     39  H   UNL     1       4.353  19.458  21.534  0.00  0.00    +0.028 HD
ATOM     40  H   UNL     1       5.579  18.537  20.683  0.00  0.00    +0.028 HD
BRANCH  38  41
ATOM     41  C   UNL     1       4.082  19.373  19.390  0.00  0.00    -0.006 C 
ATOM     42  H   UNL     1       4.149  20.464  19.454  0.00  0.00    +0.042 HD
ATOM     43  H   UNL     1       3.035  19.118  19.178  0.00  0.00    +0.042 HD
BRANCH  41  44
ATOM     44  N   UNL     1       4.917  18.900  18.290  0.00  0.00    -0.330 NA
ATOM     45  H   UNL     1       5.095  19.676  17.650  0.00  0.00    +0.118 HD
ATOM     46  H   UNL     1       5.831  18.632  18.656  0.00  0.00    +0.118 HD
ENDBRANCH  41  44
ENDBRANCH  38  41
ENDBRANCH  35  38
ENDBRANCH  33  35
ENDBRANCH  32  33
ENDBRANCH  20  32
ENDBRANCH  17  20
ENDBRANCH  15  17
BRANCH  15  47
ATOM     47  O   UNL     1      -0.073  17.041  19.584  0.00  0.00    -0.379 OA
BRANCH  47  48
ATOM     48  C   UNL     1       0.537  18.321  19.530  0.00  0.00    +0.037 C 
ATOM     49  H   UNL     1       0.122  18.913  18.710  0.00  0.00    +0.052 HD
ATOM     50  H   UNL     1       1.621  18.235  19.429  0.00  0.00    +0.052 HD
ATOM     51  H   UNL     1       0.318  18.839  20.468  0.00  0.00    +0.052 HD
ENDBRANCH  47  48
ENDBRANCH  15  47
ENDBRANCH   9  15
ENDBRANCH   6   9
ENDBRANCH   3   6
ENDBRANCH   1   3
BRANCH   1  52
ATOM     52  C   UNL     1      -3.294  15.655  19.879  0.00  0.00    +0.020 C 
ATOM     53  H   UNL     1      -2.436  16.245  19.528  0.00  0.00    +0.036 HD
BRANCH  52  54
ATOM     54  C   UNL     1      -2.947  15.123  21.279  0.00  0.00    -0.057 C 
ATOM     55  H   UNL     1      -3.852  14.798  21.807  0.00  0.00    +0.023 HD
ATOM     56  H   UNL     1      -2.450  15.883  21.895  0.00  0.00    +0.023 HD
ATOM     57  H   UNL     1      -2.288  14.252  21.224  0.00  0.00    +0.023 HD
ENDBRANCH  52  54
BRANCH  52  58
ATOM     58  C   UNL     1      -4.533  16.608  19.884  0.00  0.00    +0.070 C 
ATOM     59  H   UNL     1      -5.192  16.323  20.713  0.00  0.00    +0.061 HD
BRANCH  58  60
ATOM     60  C   UNL     1      -4.181  18.118  20.084  0.00  0.00    +0.002 C 
ATOM     61  H   UNL     1      -3.157  18.174  20.477  0.00  0.00    +0.037 HD
BRANCH  60  62
ATOM     62  C   UNL     1      -4.273  18.922  18.800  0.00  0.00    -0.065 C 
ATOM     63  C   UNL     1      -4.874  20.120  18.723  0.00  0.00    -0.005 C 
ATOM     64  H   UNL     1      -3.821  18.457  17.926  0.00  0.00    +0.059 HD
ATOM     65  H   UNL     1      -5.324  20.532  19.626  0.00  0.00    +0.078 HD
BRANCH  63  66
ATOM     66  N   UNL     1      -5.000  20.907  17.588  0.00  0.00    -0.281 N 
ATOM     67  C   UNL     1      -4.758  22.277  17.656  0.00  0.00    +0.206 C 
ATOM     68  O   UNL     1      -4.875  23.086  16.743  0.00  0.00    -0.279 OA
ATOM     69  H   UNL     1      -4.443  22.606  18.657  0.00  0.00    +0.126 HD
BRANCH  66  70
ATOM     70  C   UNL     1      -5.427  20.369  16.297  0.00  0.00    +0.016 C 
ATOM     71  H   UNL     1      -4.807  19.509  16.027  0.00  0.00    +0.047 HD
ATOM     72  H   UNL     1      -5.251  21.121  15.518  0.00  0.00    +0.047 HD
BRANCH  70  73
ATOM     73  C   UNL     1      -6.903  20.006  16.289  0.00  0.00    -0.049 C 
ATOM     74  H   UNL     1      -7.396  20.313  17.219  0.00  0.00    +0.024 HD
ATOM     75  H   UNL     1      -7.025  18.925  16.172  0.00  0.00    +0.024 HD
ATOM     76  H   UNL     1      -7.420  20.504  15.464  0.00  0.00    +0.024 HD
ENDBRANCH  70  73
ENDBRANCH  66  70
ENDBRANCH  63  66
ENDBRANCH  60  62
BRANCH  60  77
ATOM     77  C   UNL     1      -5.081  18.774  21.138  0.00  0.00    -0.057 C 
ATOM     78  H   UNL     1      -5.016  19.868  21.113  0.00  0.00    +0.024 HD
ATOM     79  H   UNL     1      -6.128  18.487  20.984  0.00  0.00    +0.024 HD
ATOM     80  H   UNL     1      -4.797  18.452  22.146  0.00  0.00    +0.024 HD
ENDBRANCH  60  77
ENDBRANCH  58  60
BRANCH  58  81
ATOM     81  O   UNL     1      -5.225  16.472  18.630  0.00  0.00    -0.379 OA
BRANCH  81  82
ATOM     82  C   UNL     1      -6.628  16.288  18.760  0.00  0.00    +0.037 C 
ATOM     83  H   UNL     1      -6.919  15.288  18.431  0.00  0.00    +0.052 HD
ATOM     84  H   UNL     1      -6.953  16.453  19.790  0.00  0.00    +0.052 HD
ATOM     85  H   UNL     1      -7.124  17.018  18.115  0.00  0.00    +0.052 HD
ENDBRANCH  81  82
ENDBRANCH  58  81
ENDBRANCH  52  58
ENDBRANCH   1  52
BRANCH   1  86
ATOM     86  O   UNL     1      -3.914  13.277  19.586  0.00  0.00    -0.459 OA
BRANCH  86  88
ATOM     87  O   UNL     1      -6.073  13.127  20.349  0.00  0.00    -0.248 OA
ATOM     88  C   UNL     1      -5.242  13.001  19.459  0.00  0.00    +0.337 C 
BRANCH  88  89
ATOM     89  C   UNL     1      -5.525  12.488  18.038  0.00  0.00    +0.155 C 
ATOM     90  O   UNL     1      -6.920  12.206  17.826  0.00  0.00    -0.365 OA
ATOM     91  C   UNL     1      -7.117  10.789  17.826  0.00  0.00    +0.049 C 
ATOM     92  C   UNL     1      -5.805  10.153  18.231  0.00  0.00    -0.027 C 
ATOM     93  C   UNL     1      -4.787  11.181  17.794  0.00  0.00    -0.014 C 
ATOM     94  H   UNL     1      -5.230  13.270  17.327  0.00  0.00    +0.071 HD
ATOM     95  H   UNL     1      -7.406  10.488  16.815  0.00  0.00    +0.056 HD
ATOM     96  H   UNL     1      -7.930  10.535  18.511  0.00  0.00    +0.056 HD
ATOM     97  H   UNL     1      -5.655   9.169  17.780  0.00  0.00    +0.029 HD
ATOM     98  H   UNL     1      -5.766  10.030  19.320  0.00  0.00    +0.029 HD
ATOM     99  H   UNL     1      -3.842  11.084  18.336  0.00  0.00    +0.030 HD
ATOM    100  H   UNL     1      -4.587  11.063  16.718  0.00  0.00    +0.030 HD
ENDBRANCH  88  89
ENDBRANCH  86  88
ENDBRANCH   1  86
TORSDOF 32
ENDMDL
MODEL 9
REMARK VINA RESULT:      -5.0      3.603      8.289
REMARK  Name = 2a_conf1
REMARK  32 active torsions:
REMARK  status: ('A' for Active; 'I' for Inactive)
REMARK    1  A    between atoms: C_2  and  C_3
REMARK    2  A    between atoms: C_2  and  O_8
REMARK    3  A    between atoms: O_8  and  C_9
REMARK    4  A    between atoms: C_9  and  C_10
REMARK    5  A    between atoms: C_9  and  C_29
REMARK    6  A    between atoms: C_10  and  C_11
REMARK    7  A    between atoms: C_11  and  C_12
REMARK    8  A    between atoms: C_12  and  C_13
REMARK    9  A    between atoms: C_12  and  C_14
REMARK   10  A    between atoms: C_14  and  O_15
REMARK   11  A    between atoms: C_14  and  C_17
REMARK   12  A    between atoms: O_15  and  C_16
REMARK   13  A    between atoms: C_17  and  C_18
REMARK   14  A    between atoms: C_18  and  O_19
REMARK   15  A    between atoms: C_18  and  C_26
REMARK   16  A    between atoms: O_19  and  C_20
REMARK   17  A    between atoms: C_20  and  C_21
REMARK   18  A    between atoms: C_21  and  C_22
REMARK   19  A    between atoms: C_22  and  C_23
REMARK   20  A    between atoms: C_23  and  N_24
REMARK   21  A    between atoms: C_26  and  C_27
REMARK   22  A    between atoms: C_26  and  C_28
REMARK   23  A    between atoms: C_29  and  C_30
REMARK   24  A    between atoms: C_29  and  C_31
REMARK   25  A    between atoms: C_31  and  O_32
REMARK   26  A    between atoms: C_31  and  C_34
REMARK   27  A    between atoms: O_32  and  C_33
REMARK   28  A    between atoms: C_34  and  C_35
REMARK   29  A    between atoms: C_34  and  C_36
REMARK   30  A    between atoms: C_37  and  N_38
REMARK   31  A    between atoms: N_38  and  C_39
REMARK   32  A    between atoms: C_39  and  C_40
REMARK                            x       y       z     vdW  Elec       q    Type
REMARK                         _______ _______ _______ _____ _____    ______ ____
ROOT
ATOM      1  C   UNL     1       4.726  16.930  20.623  0.00  0.00    +0.108 C 
ATOM      2  H   UNL     1       5.705  17.317  20.315  0.00  0.00    +0.074 HD
ENDROOT
BRANCH   1   3
ATOM      3  C   UNL     1       4.968  15.822  21.666  0.00  0.00    -0.015 C 
ATOM      4  H   UNL     1       4.156  15.796  22.399  0.00  0.00    +0.030 HD
ATOM      5  H   UNL     1       4.990  14.858  21.154  0.00  0.00    +0.030 HD
BRANCH   3   6
ATOM      6  C   UNL     1       6.294  16.006  22.415  0.00  0.00    -0.045 C 
ATOM      7  H   UNL     1       7.088  15.429  21.931  0.00  0.00    +0.027 HD
ATOM      8  H   UNL     1       6.589  17.060  22.316  0.00  0.00    +0.027 HD
BRANCH   6   9
ATOM      9  C   UNL     1       6.215  15.658  23.922  0.00  0.00    -0.017 C 
ATOM     10  H   UNL     1       6.446  14.590  24.014  0.00  0.00    +0.032 HD
BRANCH   9  11
ATOM     11  C   UNL     1       4.763  15.828  24.400  0.00  0.00    -0.060 C 
ATOM     12  H   UNL     1       4.230  16.559  23.782  0.00  0.00    +0.023 HD
ATOM     13  H   UNL     1       4.210  14.883  24.372  0.00  0.00    +0.023 HD
ATOM     14  H   UNL     1       4.736  16.197  25.431  0.00  0.00    +0.023 HD
ENDBRANCH   9  11
BRANCH   9  15
ATOM     15  C   UNL     1       7.188  16.446  24.853  0.00  0.00    +0.064 C 
ATOM     16  H   UNL     1       7.764  17.134  24.225  0.00  0.00    +0.060 HD
BRANCH  15  17
ATOM     17  C   UNL     1       8.176  15.528  25.607  0.00  0.00    +0.011 C 
ATOM     18  H   UNL     1       8.188  15.830  26.662  0.00  0.00    +0.033 HD
ATOM     19  H   UNL     1       7.824  14.492  25.574  0.00  0.00    +0.033 HD
BRANCH  17  20
ATOM     20  C   UNL     1       9.639  15.548  25.103  0.00  0.00    +0.108 C 
ATOM     21  H   UNL     1       9.703  16.286  24.292  0.00  0.00    +0.074 HD
BRANCH  20  22
ATOM     22  C   UNL     1      10.691  15.943  26.172  0.00  0.00    -0.009 C 
ATOM     23  H   UNL     1      10.180  16.158  27.119  0.00  0.00    +0.033 HD
BRANCH  22  24
ATOM     24  C   UNL     1      11.645  14.774  26.456  0.00  0.00    -0.059 C 
ATOM     25  H   UNL     1      11.105  13.920  26.880  0.00  0.00    +0.023 HD
ATOM     26  H   UNL     1      12.425  15.067  27.168  0.00  0.00    +0.023 HD
ATOM     27  H   UNL     1      12.132  14.431  25.538  0.00  0.00    +0.023 HD
ENDBRANCH  22  24
BRANCH  22  28
ATOM     28  C   UNL     1      11.510  17.169  25.765  0.00  0.00    -0.059 C 
ATOM     29  H   UNL     1      12.586  16.966  25.841  0.00  0.00    +0.023 HD
ATOM     30  H   UNL     1      11.295  17.481  24.739  0.00  0.00    +0.023 HD
ATOM     31  H   UNL     1      11.280  18.023  26.413  0.00  0.00    +0.023 HD
ENDBRANCH  22  28
ENDBRANCH  20  22
BRANCH  20  32
ATOM     32  O   UNL     1      10.020  14.259  24.574  0.00  0.00    -0.461 OA
BRANCH  32  33
ATOM     33  C   UNL     1      10.550  14.246  23.319  0.00  0.00    +0.307 C 
ATOM     34  O   UNL     1      11.309  13.393  22.880  0.00  0.00    -0.251 OA
BRANCH  33  35
ATOM     35  C   UNL     1      10.069  15.452  22.548  0.00  0.00    +0.046 C 
ATOM     36  H   UNL     1       9.541  16.111  23.243  0.00  0.00    +0.038 HD
ATOM     37  H   UNL     1       9.366  15.114  21.778  0.00  0.00    +0.038 HD
BRANCH  35  38
ATOM     38  C   UNL     1      11.238  16.176  21.877  0.00  0.00    -0.031 C 
ATOM     39  H   UNL     1      12.191  15.743  22.212  0.00  0.00    +0.028 HD
ATOM     40  H   UNL     1      11.192  16.005  20.795  0.00  0.00    +0.028 HD
BRANCH  38  41
ATOM     41  C   UNL     1      11.234  17.681  22.137  0.00  0.00    -0.006 C 
ATOM     42  H   UNL     1      12.255  18.039  22.303  0.00  0.00    +0.042 HD
ATOM     43  H   UNL     1      10.657  17.894  23.046  0.00  0.00    +0.042 HD
BRANCH  41  44
ATOM     44  N   UNL     1      10.641  18.410  21.018  0.00  0.00    -0.330 NA
ATOM     45  H   UNL     1      11.241  19.202  20.782  0.00  0.00    +0.118 HD
ATOM     46  H   UNL     1      10.642  17.811  20.192  0.00  0.00    +0.118 HD
ENDBRANCH  41  44
ENDBRANCH  38  41
ENDBRANCH  35  38
ENDBRANCH  33  35
ENDBRANCH  32  33
ENDBRANCH  20  32
ENDBRANCH  17  20
ENDBRANCH  15  17
BRANCH  15  47
ATOM     47  O   UNL     1       6.477  17.217  25.830  0.00  0.00    -0.379 OA
BRANCH  47  48
ATOM     48  C   UNL     1       7.313  17.949  26.713  0.00  0.00    +0.037 C 
ATOM     49  H   UNL     1       7.415  17.428  27.668  0.00  0.00    +0.052 HD
ATOM     50  H   UNL     1       6.931  18.959  26.867  0.00  0.00    +0.052 HD
ATOM     51  H   UNL     1       8.305  18.020  26.257  0.00  0.00    +0.052 HD
ENDBRANCH  47  48
ENDBRANCH  15  47
ENDBRANCH   9  15
ENDBRANCH   6   9
ENDBRANCH   3   6
ENDBRANCH   1   3
BRANCH   1  52
ATOM     52  C   UNL     1       3.869  18.117  21.165  0.00  0.00    +0.020 C 
ATOM     53  H   UNL     1       3.417  17.768  22.103  0.00  0.00    +0.036 HD
BRANCH  52  54
ATOM     54  C   UNL     1       2.725  18.398  20.177  0.00  0.00    -0.057 C 
ATOM     55  H   UNL     1       2.661  19.469  19.950  0.00  0.00    +0.023 HD
ATOM     56  H   UNL     1       1.753  18.075  20.572  0.00  0.00    +0.023 HD
ATOM     57  H   UNL     1       2.886  17.886  19.224  0.00  0.00    +0.023 HD
ENDBRANCH  52  54
BRANCH  52  58
ATOM     58  C   UNL     1       4.700  19.397  21.506  0.00  0.00    +0.070 C 
ATOM     59  H   UNL     1       4.056  20.276  21.384  0.00  0.00    +0.061 HD
BRANCH  58  60
ATOM     60  C   UNL     1       5.248  19.436  22.969  0.00  0.00    +0.002 C 
ATOM     61  H   UNL     1       5.808  18.508  23.142  0.00  0.00    +0.037 HD
BRANCH  60  62
ATOM     62  C   UNL     1       6.151  20.628  23.231  0.00  0.00    -0.065 C 
ATOM     63  C   UNL     1       7.237  20.570  24.019  0.00  0.00    -0.005 C 
ATOM     64  H   UNL     1       5.856  21.552  22.739  0.00  0.00    +0.059 HD
ATOM     65  H   UNL     1       7.477  19.621  24.499  0.00  0.00    +0.078 HD
BRANCH  63  66
ATOM     66  N   UNL     1       8.103  21.614  24.306  0.00  0.00    -0.281 N 
ATOM     67  C   UNL     1       8.075  22.220  25.559  0.00  0.00    +0.206 C 
ATOM     68  O   UNL     1       8.754  23.173  25.925  0.00  0.00    -0.279 OA
ATOM     69  H   UNL     1       7.347  21.759  26.242  0.00  0.00    +0.126 HD
BRANCH  66  70
ATOM     70  C   UNL     1       9.040  22.157  23.323  0.00  0.00    +0.016 C 
ATOM     71  H   UNL     1       9.286  23.193  23.575  0.00  0.00    +0.047 HD
ATOM     72  H   UNL     1       8.548  22.196  22.343  0.00  0.00    +0.047 HD
BRANCH  70  73
ATOM     73  C   UNL     1      10.294  21.309  23.199  0.00  0.00    -0.049 C 
ATOM     74  H   UNL     1      10.984  21.722  22.453  0.00  0.00    +0.024 HD
ATOM     75  H   UNL     1      10.032  20.289  22.901  0.00  0.00    +0.024 HD
ATOM     76  H   UNL     1      10.830  21.265  24.152  0.00  0.00    +0.024 HD
ENDBRANCH  70  73
ENDBRANCH  66  70
ENDBRANCH  63  66
ENDBRANCH  60  62
BRANCH  60  77
ATOM     77  C   UNL     1       4.111  19.449  23.999  0.00  0.00    -0.057 C 
ATOM     78  H   UNL     1       3.323  18.728  23.752  0.00  0.00    +0.024 HD
ATOM     79  H   UNL     1       4.494  19.213  24.999  0.00  0.00    +0.024 HD
ATOM     80  H   UNL     1       3.645  20.440  24.051  0.00  0.00    +0.024 HD
ENDBRANCH  60  77
ENDBRANCH  58  60
BRANCH  58  81
ATOM     81  O   UNL     1       5.820  19.473  20.606  0.00  0.00    -0.379 OA
BRANCH  81  82
ATOM     82  C   UNL     1       5.608  20.323  19.488  0.00  0.00    +0.037 C 
ATOM     83  H   UNL     1       4.733  20.004  18.920  0.00  0.00    +0.052 HD
ATOM     84  H   UNL     1       5.494  21.364  19.801  0.00  0.00    +0.052 HD
ATOM     85  H   UNL     1       6.484  20.248  18.838  0.00  0.00    +0.052 HD
ENDBRANCH  81  82
ENDBRANCH  58  81
ENDBRANCH  52  58
ENDBRANCH   1  52
BRANCH   1  86
ATOM     86  O   UNL     1       4.087  16.311  19.488  0.00  0.00    -0.459 OA
BRANCH  86  88
ATOM     87  O   UNL     1       5.783  14.843  19.005  0.00  0.00    -0.248 OA
ATOM     88  C   UNL     1       4.591  15.113  19.080  0.00  0.00    +0.337 C 
BRANCH  88  89
ATOM     89  C   UNL     1       3.435  14.170  18.708  0.00  0.00    +0.155 C 
ATOM     90  O   UNL     1       2.162  14.840  18.707  0.00  0.00    -0.365 OA
ATOM     91  C   UNL     1       1.427  14.453  19.872  0.00  0.00    +0.049 C 
ATOM     92  C   UNL     1       2.357  13.630  20.737  0.00  0.00    -0.027 C 
ATOM     93  C   UNL     1       3.322  13.049  19.730  0.00  0.00    -0.014 C 
ATOM     94  H   UNL     1       3.615  13.792  17.695  0.00  0.00    +0.071 HD
ATOM     95  H   UNL     1       0.565  13.863  19.548  0.00  0.00    +0.056 HD
ATOM     96  H   UNL     1       1.063  15.346  20.387  0.00  0.00    +0.056 HD
ATOM     97  H   UNL     1       1.830  12.875  21.325  0.00  0.00    +0.029 HD
ATOM     98  H   UNL     1       2.895  14.281  21.436  0.00  0.00    +0.029 HD
ATOM     99  H   UNL     1       4.270  12.753  20.188  0.00  0.00    +0.030 HD
ATOM    100  H   UNL     1       2.870  12.163  19.259  0.00  0.00    +0.030 HD
ENDBRANCH  88  89
ENDBRANCH  86  88
ENDBRANCH   1  86
TORSDOF 32
ENDMDL
MODEL 10
REMARK VINA RESULT:      -5.0      3.897      9.669
REMARK  Name = 2a_conf1
REMARK  32 active torsions:
REMARK  status: ('A' for Active; 'I' for Inactive)
REMARK    1  A    between atoms: C_2  and  C_3
REMARK    2  A    between atoms: C_2  and  O_8
REMARK    3  A    between atoms: O_8  and  C_9
REMARK    4  A    between atoms: C_9  and  C_10
REMARK    5  A    between atoms: C_9  and  C_29
REMARK    6  A    between atoms: C_10  and  C_11
REMARK    7  A    between atoms: C_11  and  C_12
REMARK    8  A    between atoms: C_12  and  C_13
REMARK    9  A    between atoms: C_12  and  C_14
REMARK   10  A    between atoms: C_14  and  O_15
REMARK   11  A    between atoms: C_14  and  C_17
REMARK   12  A    between atoms: O_15  and  C_16
REMARK   13  A    between atoms: C_17  and  C_18
REMARK   14  A    between atoms: C_18  and  O_19
REMARK   15  A    between atoms: C_18  and  C_26
REMARK   16  A    between atoms: O_19  and  C_20
REMARK   17  A    between atoms: C_20  and  C_21
REMARK   18  A    between atoms: C_21  and  C_22
REMARK   19  A    between atoms: C_22  and  C_23
REMARK   20  A    between atoms: C_23  and  N_24
REMARK   21  A    between atoms: C_26  and  C_27
REMARK   22  A    between atoms: C_26  and  C_28
REMARK   23  A    between atoms: C_29  and  C_30
REMARK   24  A    between atoms: C_29  and  C_31
REMARK   25  A    between atoms: C_31  and  O_32
REMARK   26  A    between atoms: C_31  and  C_34
REMARK   27  A    between atoms: O_32  and  C_33
REMARK   28  A    between atoms: C_34  and  C_35
REMARK   29  A    between atoms: C_34  and  C_36
REMARK   30  A    between atoms: C_37  and  N_38
REMARK   31  A    between atoms: N_38  and  C_39
REMARK   32  A    between atoms: C_39  and  C_40
REMARK                            x       y       z     vdW  Elec       q    Type
REMARK                         _______ _______ _______ _____ _____    ______ ____
ROOT
ATOM      1  C   UNL     1       4.169  18.047  20.055  0.00  0.00    +0.108 C 
ATOM      2  H   UNL     1       5.022  17.910  19.379  0.00  0.00    +0.074 HD
ENDROOT
BRANCH   1   3
ATOM      3  C   UNL     1       4.714  18.067  21.496  0.00  0.00    -0.015 C 
ATOM      4  H   UNL     1       4.782  19.094  21.870  0.00  0.00    +0.030 HD
ATOM      5  H   UNL     1       4.024  17.520  22.140  0.00  0.00    +0.030 HD
BRANCH   3   6
ATOM      6  C   UNL     1       6.100  17.418  21.605  0.00  0.00    -0.045 C 
ATOM      7  H   UNL     1       6.053  16.522  22.231  0.00  0.00    +0.027 HD
ATOM      8  H   UNL     1       6.384  17.068  20.602  0.00  0.00    +0.027 HD
BRANCH   6   9
ATOM      9  C   UNL     1       7.202  18.378  22.118  0.00  0.00    -0.017 C 
ATOM     10  H   UNL     1       6.804  18.867  23.015  0.00  0.00    +0.032 HD
BRANCH   9  11
ATOM     11  C   UNL     1       7.422  19.491  21.081  0.00  0.00    -0.060 C 
ATOM     12  H   UNL     1       7.161  19.144  20.074  0.00  0.00    +0.023 HD
ATOM     13  H   UNL     1       6.826  20.382  21.304  0.00  0.00    +0.023 HD
ATOM     14  H   UNL     1       8.474  19.794  21.054  0.00  0.00    +0.023 HD
ENDBRANCH   9  11
BRANCH   9  15
ATOM     15  C   UNL     1       8.561  17.712  22.495  0.00  0.00    +0.064 C 
ATOM     16  H   UNL     1       9.092  17.491  21.562  0.00  0.00    +0.060 HD
BRANCH  15  17
ATOM     17  C   UNL     1       8.390  16.396  23.285  0.00  0.00    +0.011 C 
ATOM     18  H   UNL     1       7.519  15.863  22.881  0.00  0.00    +0.033 HD
ATOM     19  H   UNL     1       9.261  15.751  23.131  0.00  0.00    +0.033 HD
BRANCH  17  20
ATOM     20  C   UNL     1       8.173  16.544  24.811  0.00  0.00    +0.108 C 
ATOM     21  H   UNL     1       8.568  17.524  25.111  0.00  0.00    +0.074 HD
BRANCH  20  22
ATOM     22  C   UNL     1       6.693  16.483  25.267  0.00  0.00    -0.009 C 
ATOM     23  H   UNL     1       6.050  16.864  24.464  0.00  0.00    +0.033 HD
BRANCH  22  24
ATOM     24  C   UNL     1       6.257  15.030  25.510  0.00  0.00    -0.059 C 
ATOM     25  H   UNL     1       5.167  14.931  25.447  0.00  0.00    +0.023 HD
ATOM     26  H   UNL     1       6.569  14.687  26.502  0.00  0.00    +0.023 HD
ATOM     27  H   UNL     1       6.691  14.359  24.763  0.00  0.00    +0.023 HD
ENDBRANCH  22  24
BRANCH  22  28
ATOM     28  C   UNL     1       6.434  17.299  26.534  0.00  0.00    -0.059 C 
ATOM     29  H   UNL     1       7.323  17.321  27.177  0.00  0.00    +0.023 HD
ATOM     30  H   UNL     1       6.156  18.332  26.305  0.00  0.00    +0.023 HD
ATOM     31  H   UNL     1       5.609  16.868  27.113  0.00  0.00    +0.023 HD
ENDBRANCH  22  28
ENDBRANCH  20  22
BRANCH  20  32
ATOM     32  O   UNL     1       8.895  15.524  25.536  0.00  0.00    -0.461 OA
BRANCH  32  33
ATOM     33  C   UNL     1      10.223  15.745  25.742  0.00  0.00    +0.307 C 
ATOM     34  O   UNL     1      10.724  16.824  26.029  0.00  0.00    -0.251 OA
BRANCH  33  35
ATOM     35  C   UNL     1      10.991  14.459  25.556  0.00  0.00    +0.046 C 
ATOM     36  H   UNL     1      10.374  13.637  25.930  0.00  0.00    +0.038 HD
ATOM     37  H   UNL     1      11.908  14.512  26.152  0.00  0.00    +0.038 HD
BRANCH  35  38
ATOM     38  C   UNL     1      11.359  14.248  24.085  0.00  0.00    -0.031 C 
ATOM     39  H   UNL     1      11.411  15.217  23.569  0.00  0.00    +0.028 HD
ATOM     40  H   UNL     1      12.367  13.820  24.026  0.00  0.00    +0.028 HD
BRANCH  38  41
ATOM     41  C   UNL     1      10.389  13.322  23.355  0.00  0.00    -0.006 C 
ATOM     42  H   UNL     1       9.582  13.905  22.899  0.00  0.00    +0.042 HD
ATOM     43  H   UNL     1       9.931  12.631  24.075  0.00  0.00    +0.042 HD
BRANCH  41  44
ATOM     44  N   UNL     1      11.072  12.548  22.322  0.00  0.00    -0.330 NA
ATOM     45  H   UNL     1      11.134  13.110  21.471  0.00  0.00    +0.118 HD
ATOM     46  H   UNL     1      12.036  12.382  22.612  0.00  0.00    +0.118 HD
ENDBRANCH  41  44
ENDBRANCH  38  41
ENDBRANCH  35  38
ENDBRANCH  33  35
ENDBRANCH  32  33
ENDBRANCH  20  32
ENDBRANCH  17  20
ENDBRANCH  15  17
BRANCH  15  47
ATOM     47  O   UNL     1       9.380  18.589  23.280  0.00  0.00    -0.379 OA
BRANCH  47  48
ATOM     48  C   UNL     1      10.762  18.533  22.962  0.00  0.00    +0.037 C 
ATOM     49  H   UNL     1      11.207  17.607  23.335  0.00  0.00    +0.052 HD
ATOM     50  H   UNL     1      11.291  19.400  23.362  0.00  0.00    +0.052 HD
ATOM     51  H   UNL     1      10.858  18.541  21.872  0.00  0.00    +0.052 HD
ENDBRANCH  47  48
ENDBRANCH  15  47
ENDBRANCH   9  15
ENDBRANCH   6   9
ENDBRANCH   3   6
ENDBRANCH   1   3
BRANCH   1  52
ATOM     52  C   UNL     1       3.420  19.357  19.655  0.00  0.00    +0.020 C 
ATOM     53  H   UNL     1       3.727  20.121  20.381  0.00  0.00    +0.036 HD
BRANCH  52  54
ATOM     54  C   UNL     1       1.908  19.137  19.827  0.00  0.00    -0.057 C 
ATOM     55  H   UNL     1       1.705  18.491  20.690  0.00  0.00    +0.023 HD
ATOM     56  H   UNL     1       1.458  18.671  18.941  0.00  0.00    +0.023 HD
ATOM     57  H   UNL     1       1.386  20.080  20.013  0.00  0.00    +0.023 HD
ENDBRANCH  52  54
BRANCH  52  58
ATOM     58  C   UNL     1       3.795  19.895  18.237  0.00  0.00    +0.070 C 
ATOM     59  H   UNL     1       2.962  19.694  17.553  0.00  0.00    +0.061 HD
BRANCH  58  60
ATOM     60  C   UNL     1       4.063  21.434  18.184  0.00  0.00    +0.002 C 
ATOM     61  H   UNL     1       5.087  21.584  17.817  0.00  0.00    +0.037 HD
BRANCH  60  62
ATOM     62  C   UNL     1       3.091  22.174  17.283  0.00  0.00    -0.065 C 
ATOM     63  C   UNL     1       3.361  22.484  16.005  0.00  0.00    -0.005 C 
ATOM     64  H   UNL     1       2.146  22.450  17.746  0.00  0.00    +0.059 HD
ATOM     65  H   UNL     1       4.330  22.196  15.597  0.00  0.00    +0.078 HD
BRANCH  63  66
ATOM     66  N   UNL     1       2.527  23.160  15.127  0.00  0.00    -0.281 N 
ATOM     67  C   UNL     1       1.151  22.950  15.167  0.00  0.00    +0.206 C 
ATOM     68  O   UNL     1       0.314  23.448  14.424  0.00  0.00    -0.279 OA
ATOM     69  H   UNL     1       0.848  22.252  15.961  0.00  0.00    +0.126 HD
BRANCH  66  70
ATOM     70  C   UNL     1       3.032  24.073  14.103  0.00  0.00    +0.016 C 
ATOM     71  H   UNL     1       2.605  25.069  14.247  0.00  0.00    +0.047 HD
ATOM     72  H   UNL     1       2.682  23.737  13.118  0.00  0.00    +0.047 HD
BRANCH  70  73
ATOM     73  C   UNL     1       4.551  24.125  14.081  0.00  0.00    -0.049 C 
ATOM     74  H   UNL     1       4.988  23.150  14.328  0.00  0.00    +0.024 HD
ATOM     75  H   UNL     1       4.914  24.861  14.804  0.00  0.00    +0.024 HD
ATOM     76  H   UNL     1       4.915  24.405  13.088  0.00  0.00    +0.024 HD
ENDBRANCH  70  73
ENDBRANCH  66  70
ENDBRANCH  63  66
ENDBRANCH  60  62
BRANCH  60  77
ATOM     77  C   UNL     1       4.012  22.065  19.581  0.00  0.00    -0.057 C 
ATOM     78  H   UNL     1       3.959  23.159  19.537  0.00  0.00    +0.024 HD
ATOM     79  H   UNL     1       3.141  21.699  20.138  0.00  0.00    +0.024 HD
ATOM     80  H   UNL     1       4.906  21.803  20.159  0.00  0.00    +0.024 HD
ENDBRANCH  60  77
ENDBRANCH  58  60
BRANCH  58  81
ATOM     81  O   UNL     1       4.983  19.219  17.785  0.00  0.00    -0.379 OA
BRANCH  81  82
ATOM     82  C   UNL     1       5.390  19.578  16.472  0.00  0.00    +0.037 C 
ATOM     83  H   UNL     1       6.344  20.108  16.495  0.00  0.00    +0.052 HD
ATOM     84  H   UNL     1       5.464  18.698  15.828  0.00  0.00    +0.052 HD
ATOM     85  H   UNL     1       4.635  20.252  16.059  0.00  0.00    +0.052 HD
ENDBRANCH  81  82
ENDBRANCH  58  81
ENDBRANCH  52  58
ENDBRANCH   1  52
BRANCH   1  86
ATOM     86  O   UNL     1       3.298  16.902  19.949  0.00  0.00    -0.459 OA
BRANCH  86  88
ATOM     87  O   UNL     1       4.875  15.760  18.735  0.00  0.00    -0.248 OA
ATOM     88  C   UNL     1       3.810  15.797  19.338  0.00  0.00    +0.337 C 
BRANCH  88  89
ATOM     89  C   UNL     1       2.835  14.621  19.506  0.00  0.00    +0.155 C 
ATOM     90  O   UNL     1       1.965  14.789  20.639  0.00  0.00    -0.365 OA
ATOM     91  C   UNL     1       2.393  13.920  21.692  0.00  0.00    +0.049 C 
ATOM     92  C   UNL     1       3.704  13.299  21.258  0.00  0.00    -0.027 C 
ATOM     93  C   UNL     1       3.604  13.331  19.750  0.00  0.00    -0.014 C 
ATOM     94  H   UNL     1       2.208  14.566  18.608  0.00  0.00    +0.071 HD
ATOM     95  H   UNL     1       1.623  13.155  21.834  0.00  0.00    +0.056 HD
ATOM     96  H   UNL     1       2.492  14.491  22.619  0.00  0.00    +0.056 HD
ATOM     97  H   UNL     1       3.852  12.297  21.666  0.00  0.00    +0.029 HD
ATOM     98  H   UNL     1       4.543  13.922  21.589  0.00  0.00    +0.029 HD
ATOM     99  H   UNL     1       4.586  13.289  19.270  0.00  0.00    +0.030 HD
ATOM    100  H   UNL     1       3.008  12.473  19.404  0.00  0.00    +0.030 HD
ENDBRANCH  88  89
ENDBRANCH  86  88
ENDBRANCH   1  86
TORSDOF 32
ENDMDL
