MODEL 1
REMARK VINA RESULT:      -4.8      0.000      0.000
REMARK  Name = 2c_conf2
REMARK  32 active torsions:
REMARK  status: ('A' for Active; 'I' for Inactive)
REMARK    1  A    between atoms: N_2  and  C_3
REMARK    2  A    between atoms: N_2  and  C_5
REMARK    3  A    between atoms: C_3  and  C_4
REMARK    4  A    between atoms: C_6  and  C_7
REMARK    5  A    between atoms: C_7  and  C_8
REMARK    6  A    between atoms: C_7  and  C_9
REMARK    7  A    between atoms: C_9  and  O_10
REMARK    8  A    between atoms: C_9  and  C_12
REMARK    9  A    between atoms: O_10  and  C_11
REMARK   10  A    between atoms: C_12  and  C_13
REMARK   11  A    between atoms: C_12  and  C_14
REMARK   12  A    between atoms: C_14  and  O_15
REMARK   13  A    between atoms: C_14  and  C_21
REMARK   14  A    between atoms: O_15  and  C_16
REMARK   15  A    between atoms: C_16  and  C_17
REMARK   16  A    between atoms: C_17  and  C_18
REMARK   17  A    between atoms: C_17  and  C_19
REMARK   18  A    between atoms: C_21  and  C_22
REMARK   19  A    between atoms: C_22  and  C_23
REMARK   20  A    between atoms: C_23  and  C_24
REMARK   21  A    between atoms: C_23  and  C_25
REMARK   22  A    between atoms: C_25  and  O_26
REMARK   23  A    between atoms: C_25  and  C_28
REMARK   24  A    between atoms: O_26  and  C_27
REMARK   25  A    between atoms: C_28  and  C_29
REMARK   26  A    between atoms: C_29  and  O_30
REMARK   27  A    between atoms: C_29  and  C_35
REMARK   28  A    between atoms: O_30  and  C_31
REMARK   29  A    between atoms: C_31  and  C_32
REMARK   30  A    between atoms: C_32  and  C_33
REMARK   31  A    between atoms: C_35  and  C_36
REMARK   32  A    between atoms: C_35  and  C_37
REMARK                            x       y       z     vdW  Elec       q    Type
REMARK                         _______ _______ _______ _____ _____    ______ ____
ROOT
ATOM      1  C   UNL     1       9.224  15.985  23.030  0.00  0.00    +0.108 C 
ATOM      2  H   UNL     1       9.363  16.031  24.121  0.00  0.00    +0.074 HD
ENDROOT
BRANCH   1   3
ATOM      3  C   UNL     1       7.716  16.108  22.755  0.00  0.00    -0.015 C 
ATOM      4  H   UNL     1       7.404  15.329  22.058  0.00  0.00    +0.030 HD
ATOM      5  H   UNL     1       7.459  17.074  22.309  0.00  0.00    +0.030 HD
BRANCH   3   6
ATOM      6  C   UNL     1       6.905  15.966  24.057  0.00  0.00    -0.045 C 
ATOM      7  H   UNL     1       7.012  14.953  24.471  0.00  0.00    +0.027 HD
ATOM      8  H   UNL     1       7.348  16.649  24.795  0.00  0.00    +0.027 HD
BRANCH   6   9
ATOM      9  C   UNL     1       5.403  16.305  23.871  0.00  0.00    -0.017 C 
ATOM     10  H   UNL     1       5.331  17.346  23.545  0.00  0.00    +0.032 HD
BRANCH   9  11
ATOM     11  C   UNL     1       4.707  16.193  25.236  0.00  0.00    -0.060 C 
ATOM     12  H   UNL     1       4.610  17.183  25.692  0.00  0.00    +0.023 HD
ATOM     13  H   UNL     1       5.273  15.563  25.931  0.00  0.00    +0.023 HD
ATOM     14  H   UNL     1       3.699  15.779  25.155  0.00  0.00    +0.023 HD
ENDBRANCH   9  11
BRANCH   9  15
ATOM     15  C   UNL     1       4.755  15.375  22.804  0.00  0.00    +0.064 C 
ATOM     16  H   UNL     1       5.554  14.855  22.271  0.00  0.00    +0.060 HD
BRANCH  15  17
ATOM     17  C   UNL     1       3.848  16.111  21.792  0.00  0.00    +0.011 C 
ATOM     18  H   UNL     1       3.452  17.010  22.276  0.00  0.00    +0.033 HD
ATOM     19  H   UNL     1       2.945  15.523  21.599  0.00  0.00    +0.033 HD
BRANCH  17  20
ATOM     20  C   UNL     1       4.469  16.472  20.429  0.00  0.00    +0.108 C 
ATOM     21  H   UNL     1       5.536  16.700  20.511  0.00  0.00    +0.074 HD
BRANCH  20  22
ATOM     22  C   UNL     1       4.269  15.398  19.321  0.00  0.00    -0.009 C 
ATOM     23  H   UNL     1       4.451  15.870  18.346  0.00  0.00    +0.033 HD
BRANCH  22  24
ATOM     24  C   UNL     1       2.875  14.775  19.293  0.00  0.00    -0.059 C 
ATOM     25  H   UNL     1       2.571  14.521  18.276  0.00  0.00    +0.023 HD
ATOM     26  H   UNL     1       2.840  13.877  19.913  0.00  0.00    +0.023 HD
ATOM     27  H   UNL     1       2.132  15.468  19.699  0.00  0.00    +0.023 HD
ENDBRANCH  22  24
BRANCH  22  28
ATOM     28  C   UNL     1       5.320  14.285  19.465  0.00  0.00    -0.059 C 
ATOM     29  H   UNL     1       5.621  14.165  20.510  0.00  0.00    +0.023 HD
ATOM     30  H   UNL     1       4.922  13.329  19.116  0.00  0.00    +0.023 HD
ATOM     31  H   UNL     1       6.216  14.499  18.877  0.00  0.00    +0.023 HD
ENDBRANCH  22  28
ENDBRANCH  20  22
BRANCH  20  32
ATOM     32  O   UNL     1       3.766  17.652  19.947  0.00  0.00    -0.461 OA
BRANCH  32  33
ATOM     33  C   UNL     1       4.535  18.672  19.477  0.00  0.00    +0.307 C 
ATOM     34  O   UNL     1       4.858  18.841  18.310  0.00  0.00    -0.251 OA
BRANCH  33  35
ATOM     35  C   UNL     1       4.953  19.576  20.611  0.00  0.00    +0.042 C 
ATOM     36  H   UNL     1       4.593  20.587  20.396  0.00  0.00    +0.037 HD
ATOM     37  H   UNL     1       4.459  19.246  21.532  0.00  0.00    +0.037 HD
BRANCH  35  38
ATOM     38  C   UNL     1       6.460  19.592  20.773  0.00  0.00    -0.055 C 
ATOM     39  H   UNL     1       6.952  19.471  19.803  0.00  0.00    +0.023 HD
ATOM     40  H   UNL     1       6.806  20.535  21.208  0.00  0.00    +0.023 HD
ATOM     41  H   UNL     1       6.793  18.779  21.435  0.00  0.00    +0.023 HD
ENDBRANCH  35  38
ENDBRANCH  33  35
ENDBRANCH  32  33
ENDBRANCH  20  32
ENDBRANCH  17  20
ENDBRANCH  15  17
BRANCH  15  42
ATOM     42  O   UNL     1       3.987  14.387  23.521  0.00  0.00    -0.379 OA
BRANCH  42  43
ATOM     43  C   UNL     1       3.207  13.534  22.702  0.00  0.00    +0.037 C 
ATOM     44  H   UNL     1       2.745  12.775  23.343  0.00  0.00    +0.052 HD
ATOM     45  H   UNL     1       2.401  14.085  22.207  0.00  0.00    +0.052 HD
ATOM     46  H   UNL     1       3.834  13.026  21.962  0.00  0.00    +0.052 HD
ENDBRANCH  42  43
ENDBRANCH  15  42
ENDBRANCH   9  15
ENDBRANCH   6   9
ENDBRANCH   3   6
ENDBRANCH   1   3
BRANCH   1  47
ATOM     47  C   UNL     1      10.144  17.069  22.403  0.00  0.00    +0.020 C 
ATOM     48  H   UNL     1       9.564  17.454  21.551  0.00  0.00    +0.036 HD
BRANCH  47  49
ATOM     49  C   UNL     1      11.383  16.470  21.733  0.00  0.00    -0.057 C 
ATOM     50  H   UNL     1      11.307  16.455  20.644  0.00  0.00    +0.023 HD
ATOM     51  H   UNL     1      11.563  15.441  22.070  0.00  0.00    +0.023 HD
ATOM     52  H   UNL     1      12.277  17.052  21.988  0.00  0.00    +0.023 HD
ENDBRANCH  47  49
BRANCH  47  53
ATOM     53  C   UNL     1      10.415  18.340  23.265  0.00  0.00    +0.070 C 
ATOM     54  H   UNL     1      11.379  18.754  22.948  0.00  0.00    +0.061 HD
BRANCH  53  55
ATOM     55  C   UNL     1       9.398  19.516  23.176  0.00  0.00    +0.002 C 
ATOM     56  H   UNL     1       8.771  19.366  22.295  0.00  0.00    +0.037 HD
BRANCH  55  58
ATOM     57  C   UNL     1       7.194  19.593  24.383  0.00  0.00    -0.005 C 
ATOM     58  C   UNL     1       8.532  19.683  24.406  0.00  0.00    -0.065 C 
ATOM     59  H   UNL     1       6.693  19.395  23.435  0.00  0.00    +0.078 HD
ATOM     60  H   UNL     1       9.070  19.882  25.329  0.00  0.00    +0.059 HD
BRANCH  57  62
ATOM     61  C   UNL     1       4.970  19.869  25.240  0.00  0.00    +0.206 C 
ATOM     62  N   UNL     1       6.338  19.723  25.466  0.00  0.00    -0.281 N 
ATOM     63  O   UNL     1       4.411  19.920  24.151  0.00  0.00    -0.279 OA
ATOM     64  H   UNL     1       4.387  19.939  26.172  0.00  0.00    +0.126 HD
BRANCH  62  65
ATOM     65  C   UNL     1       6.809  19.684  26.849  0.00  0.00    +0.016 C 
ATOM     66  H   UNL     1       7.784  20.173  26.924  0.00  0.00    +0.047 HD
ATOM     67  H   UNL     1       6.123  20.276  27.470  0.00  0.00    +0.047 HD
BRANCH  65  68
ATOM     68  C   UNL     1       6.859  18.269  27.403  0.00  0.00    -0.049 C 
ATOM     69  H   UNL     1       7.875  17.868  27.326  0.00  0.00    +0.024 HD
ATOM     70  H   UNL     1       6.553  18.247  28.449  0.00  0.00    +0.024 HD
ATOM     71  H   UNL     1       6.196  17.597  26.846  0.00  0.00    +0.024 HD
ENDBRANCH  65  68
ENDBRANCH  62  65
ENDBRANCH  57  62
ENDBRANCH  55  58
BRANCH  55  72
ATOM     72  C   UNL     1      10.147  20.838  22.941  0.00  0.00    -0.057 C 
ATOM     73  H   UNL     1      10.057  21.521  23.792  0.00  0.00    +0.024 HD
ATOM     74  H   UNL     1      11.214  20.654  22.773  0.00  0.00    +0.024 HD
ATOM     75  H   UNL     1       9.759  21.356  22.056  0.00  0.00    +0.024 HD
ENDBRANCH  55  72
ENDBRANCH  53  55
BRANCH  53  76
ATOM     76  O   UNL     1      10.532  17.979  24.660  0.00  0.00    -0.379 OA
BRANCH  76  77
ATOM     77  C   UNL     1      11.850  18.110  25.180  0.00  0.00    +0.037 C 
ATOM     78  H   UNL     1      11.832  18.638  26.139  0.00  0.00    +0.052 HD
ATOM     79  H   UNL     1      12.250  17.107  25.345  0.00  0.00    +0.052 HD
ATOM     80  H   UNL     1      12.506  18.633  24.476  0.00  0.00    +0.052 HD
ENDBRANCH  76  77
ENDBRANCH  53  76
ENDBRANCH  47  53
ENDBRANCH   1  47
BRANCH   1  81
ATOM     81  O   UNL     1       9.605  14.672  22.561  0.00  0.00    -0.461 OA
BRANCH  81  82
ATOM     82  C   UNL     1      10.298  13.875  23.416  0.00  0.00    +0.310 C 
ATOM     83  O   UNL     1      11.069  12.990  23.071  0.00  0.00    -0.251 OA
BRANCH  82  84
ATOM     84  C   UNL     1      10.014  14.220  24.868  0.00  0.00    +0.051 C 
ATOM     85  H   UNL     1       9.459  15.169  24.857  0.00  0.00    +0.041 HD
BRANCH  84  86
ATOM     86  C   UNL     1      11.275  14.441  25.703  0.00  0.00    -0.053 C 
ATOM     87  H   UNL     1      11.575  15.497  25.720  0.00  0.00    +0.024 HD
ATOM     88  H   UNL     1      12.114  13.861  25.301  0.00  0.00    +0.024 HD
ATOM     89  H   UNL     1      11.114  14.125  26.740  0.00  0.00    +0.024 HD
ENDBRANCH  84  86
BRANCH  84  90
ATOM     90  C   UNL     1       9.137  13.133  25.484  0.00  0.00    -0.053 C 
ATOM     91  H   UNL     1       8.320  13.564  26.077  0.00  0.00    +0.024 HD
ATOM     92  H   UNL     1       9.725  12.492  26.153  0.00  0.00    +0.024 HD
ATOM     93  H   UNL     1       8.706  12.492  24.704  0.00  0.00    +0.024 HD
ENDBRANCH  84  90
ENDBRANCH  82  84
ENDBRANCH  81  82
ENDBRANCH   1  81
TORSDOF 32
ENDMDL
MODEL 2
REMARK VINA RESULT:      -4.7      2.152      6.229
REMARK  Name = 2c_conf2
REMARK  32 active torsions:
REMARK  status: ('A' for Active; 'I' for Inactive)
REMARK    1  A    between atoms: N_2  and  C_3
REMARK    2  A    between atoms: N_2  and  C_5
REMARK    3  A    between atoms: C_3  and  C_4
REMARK    4  A    between atoms: C_6  and  C_7
REMARK    5  A    between atoms: C_7  and  C_8
REMARK    6  A    between atoms: C_7  and  C_9
REMARK    7  A    between atoms: C_9  and  O_10
REMARK    8  A    between atoms: C_9  and  C_12
REMARK    9  A    between atoms: O_10  and  C_11
REMARK   10  A    between atoms: C_12  and  C_13
REMARK   11  A    between atoms: C_12  and  C_14
REMARK   12  A    between atoms: C_14  and  O_15
REMARK   13  A    between atoms: C_14  and  C_21
REMARK   14  A    between atoms: O_15  and  C_16
REMARK   15  A    between atoms: C_16  and  C_17
REMARK   16  A    between atoms: C_17  and  C_18
REMARK   17  A    between atoms: C_17  and  C_19
REMARK   18  A    between atoms: C_21  and  C_22
REMARK   19  A    between atoms: C_22  and  C_23
REMARK   20  A    between atoms: C_23  and  C_24
REMARK   21  A    between atoms: C_23  and  C_25
REMARK   22  A    between atoms: C_25  and  O_26
REMARK   23  A    between atoms: C_25  and  C_28
REMARK   24  A    between atoms: O_26  and  C_27
REMARK   25  A    between atoms: C_28  and  C_29
REMARK   26  A    between atoms: C_29  and  O_30
REMARK   27  A    between atoms: C_29  and  C_35
REMARK   28  A    between atoms: O_30  and  C_31
REMARK   29  A    between atoms: C_31  and  C_32
REMARK   30  A    between atoms: C_32  and  C_33
REMARK   31  A    between atoms: C_35  and  C_36
REMARK   32  A    between atoms: C_35  and  C_37
REMARK                            x       y       z     vdW  Elec       q    Type
REMARK                         _______ _______ _______ _____ _____    ______ ____
ROOT
ATOM      1  C   UNL     1       5.032  16.721  20.732  0.00  0.00    +0.108 C 
ATOM      2  H   UNL     1       5.496  16.768  19.736  0.00  0.00    +0.074 HD
ENDROOT
BRANCH   1   3
ATOM      3  C   UNL     1       6.133  17.022  21.763  0.00  0.00    -0.015 C 
ATOM      4  H   UNL     1       6.628  17.961  21.509  0.00  0.00    +0.030 HD
ATOM      5  H   UNL     1       6.897  16.240  21.787  0.00  0.00    +0.030 HD
BRANCH   3   6
ATOM      6  C   UNL     1       5.542  17.140  23.182  0.00  0.00    -0.045 C 
ATOM      7  H   UNL     1       5.982  17.994  23.715  0.00  0.00    +0.027 HD
ATOM      8  H   UNL     1       4.472  17.362  23.072  0.00  0.00    +0.027 HD
BRANCH   6   9
ATOM      9  C   UNL     1       5.721  15.846  24.018  0.00  0.00    -0.017 C 
ATOM     10  H   UNL     1       6.121  15.071  23.358  0.00  0.00    +0.032 HD
BRANCH   9  11
ATOM     11  C   UNL     1       4.337  15.384  24.499  0.00  0.00    -0.060 C 
ATOM     12  H   UNL     1       4.030  15.963  25.375  0.00  0.00    +0.023 HD
ATOM     13  H   UNL     1       4.338  14.326  24.784  0.00  0.00    +0.023 HD
ATOM     14  H   UNL     1       3.566  15.524  23.738  0.00  0.00    +0.023 HD
ENDBRANCH   9  11
BRANCH   9  15
ATOM     15  C   UNL     1       6.703  16.086  25.202  0.00  0.00    +0.064 C 
ATOM     16  H   UNL     1       7.213  17.037  25.039  0.00  0.00    +0.060 HD
BRANCH  15  17
ATOM     17  C   UNL     1       7.747  14.962  25.394  0.00  0.00    +0.011 C 
ATOM     18  H   UNL     1       7.329  14.033  24.992  0.00  0.00    +0.033 HD
ATOM     19  H   UNL     1       7.862  14.734  26.459  0.00  0.00    +0.033 HD
BRANCH  17  20
ATOM     20  C   UNL     1       9.153  15.207  24.815  0.00  0.00    +0.108 C 
ATOM     21  H   UNL     1       9.623  16.100  25.240  0.00  0.00    +0.074 HD
BRANCH  20  22
ATOM     22  C   UNL     1      10.132  14.007  24.959  0.00  0.00    -0.009 C 
ATOM     23  H   UNL     1      10.608  13.830  23.984  0.00  0.00    +0.033 HD
BRANCH  22  24
ATOM     24  C   UNL     1       9.470  12.706  25.405  0.00  0.00    -0.059 C 
ATOM     25  H   UNL     1       9.983  12.270  26.265  0.00  0.00    +0.023 HD
ATOM     26  H   UNL     1       8.421  12.872  25.659  0.00  0.00    +0.023 HD
ATOM     27  H   UNL     1       9.485  11.965  24.599  0.00  0.00    +0.023 HD
ENDBRANCH  22  24
BRANCH  22  28
ATOM     28  C   UNL     1      11.266  14.361  25.935  0.00  0.00    -0.059 C 
ATOM     29  H   UNL     1      12.172  14.648  25.393  0.00  0.00    +0.023 HD
ATOM     30  H   UNL     1      10.977  15.196  26.579  0.00  0.00    +0.023 HD
ATOM     31  H   UNL     1      11.514  13.518  26.585  0.00  0.00    +0.023 HD
ENDBRANCH  22  28
ENDBRANCH  20  22
BRANCH  20  32
ATOM     32  O   UNL     1       8.989  15.395  23.381  0.00  0.00    -0.461 OA
BRANCH  32  33
ATOM     33  C   UNL     1       9.693  16.412  22.812  0.00  0.00    +0.307 C 
ATOM     34  O   UNL     1      10.141  16.419  21.675  0.00  0.00    -0.251 OA
BRANCH  33  35
ATOM     35  C   UNL     1       9.859  17.545  23.795  0.00  0.00    +0.042 C 
ATOM     36  H   UNL     1       9.590  17.180  24.790  0.00  0.00    +0.037 HD
ATOM     37  H   UNL     1      10.916  17.833  23.831  0.00  0.00    +0.037 HD
BRANCH  35  38
ATOM     38  C   UNL     1       8.983  18.725  23.426  0.00  0.00    -0.055 C 
ATOM     39  H   UNL     1       8.086  18.748  24.053  0.00  0.00    +0.023 HD
ATOM     40  H   UNL     1       9.510  19.675  23.563  0.00  0.00    +0.023 HD
ATOM     41  H   UNL     1       8.669  18.669  22.374  0.00  0.00    +0.023 HD
ENDBRANCH  35  38
ENDBRANCH  33  35
ENDBRANCH  32  33
ENDBRANCH  20  32
ENDBRANCH  17  20
ENDBRANCH  15  17
BRANCH  15  42
ATOM     42  O   UNL     1       5.899  16.215  26.392  0.00  0.00    -0.379 OA
BRANCH  42  43
ATOM     43  C   UNL     1       6.005  17.467  27.046  0.00  0.00    +0.037 C 
ATOM     44  H   UNL     1       6.960  17.922  26.759  0.00  0.00    +0.052 HD
ATOM     45  H   UNL     1       5.207  18.148  26.734  0.00  0.00    +0.052 HD
ATOM     46  H   UNL     1       5.997  17.340  28.134  0.00  0.00    +0.052 HD
ENDBRANCH  42  43
ENDBRANCH  15  42
ENDBRANCH   9  15
ENDBRANCH   6   9
ENDBRANCH   3   6
ENDBRANCH   1   3
BRANCH   1  47
ATOM     47  C   UNL     1       3.806  17.675  20.714  0.00  0.00    +0.020 C 
ATOM     48  H   UNL     1       3.619  17.893  21.776  0.00  0.00    +0.036 HD
BRANCH  47  49
ATOM     49  C   UNL     1       2.520  16.968  20.277  0.00  0.00    -0.057 C 
ATOM     50  H   UNL     1       1.624  17.555  20.486  0.00  0.00    +0.023 HD
ATOM     51  H   UNL     1       2.408  15.996  20.775  0.00  0.00    +0.023 HD
ATOM     52  H   UNL     1       2.537  16.775  19.197  0.00  0.00    +0.023 HD
ENDBRANCH  47  49
BRANCH  47  53
ATOM     53  C   UNL     1       4.026  19.085  20.084  0.00  0.00    +0.070 C 
ATOM     54  H   UNL     1       3.136  19.322  19.490  0.00  0.00    +0.061 HD
BRANCH  53  55
ATOM     55  C   UNL     1       4.229  20.292  21.046  0.00  0.00    +0.002 C 
ATOM     56  H   UNL     1       3.842  21.191  20.560  0.00  0.00    +0.037 HD
BRANCH  55  58
ATOM     57  C   UNL     1       2.718  20.999  22.926  0.00  0.00    -0.005 C 
ATOM     58  C   UNL     1       3.586  20.120  22.405  0.00  0.00    -0.065 C 
ATOM     59  H   UNL     1       2.458  21.890  22.354  0.00  0.00    +0.078 HD
ATOM     60  H   UNL     1       3.873  19.220  22.943  0.00  0.00    +0.059 HD
BRANCH  57  62
ATOM     61  C   UNL     1       0.691  20.970  24.210  0.00  0.00    +0.206 C 
ATOM     62  N   UNL     1       2.082  20.903  24.156  0.00  0.00    -0.281 N 
ATOM     63  O   UNL     1      -0.071  21.133  23.264  0.00  0.00    -0.279 OA
ATOM     64  H   UNL     1       0.297  20.858  25.233  0.00  0.00    +0.126 HD
BRANCH  62  65
ATOM     65  C   UNL     1       2.813  20.703  25.405  0.00  0.00    +0.016 C 
ATOM     66  H   UNL     1       3.850  21.028  25.285  0.00  0.00    +0.047 HD
ATOM     67  H   UNL     1       2.378  21.354  26.174  0.00  0.00    +0.047 HD
BRANCH  65  68
ATOM     68  C   UNL     1       2.740  19.265  25.894  0.00  0.00    -0.049 C 
ATOM     69  H   UNL     1       3.224  18.595  25.176  0.00  0.00    +0.024 HD
ATOM     70  H   UNL     1       3.231  19.155  26.862  0.00  0.00    +0.024 HD
ATOM     71  H   UNL     1       1.702  18.932  26.006  0.00  0.00    +0.024 HD
ENDBRANCH  65  68
ENDBRANCH  62  65
ENDBRANCH  57  62
ENDBRANCH  55  58
BRANCH  55  72
ATOM     72  C   UNL     1       5.730  20.543  21.261  0.00  0.00    -0.057 C 
ATOM     73  H   UNL     1       6.078  21.441  20.738  0.00  0.00    +0.024 HD
ATOM     74  H   UNL     1       5.953  20.670  22.326  0.00  0.00    +0.024 HD
ATOM     75  H   UNL     1       6.325  19.697  20.898  0.00  0.00    +0.024 HD
ENDBRANCH  55  72
ENDBRANCH  53  55
BRANCH  53  76
ATOM     76  O   UNL     1       5.157  19.057  19.186  0.00  0.00    -0.379 OA
BRANCH  76  77
ATOM     77  C   UNL     1       4.906  19.665  17.925  0.00  0.00    +0.037 C 
ATOM     78  H   UNL     1       4.035  19.205  17.445  0.00  0.00    +0.052 HD
ATOM     79  H   UNL     1       4.687  20.721  18.096  0.00  0.00    +0.052 HD
ATOM     80  H   UNL     1       5.779  19.593  17.267  0.00  0.00    +0.052 HD
ENDBRANCH  76  77
ENDBRANCH  53  76
ENDBRANCH  47  53
ENDBRANCH   1  47
BRANCH   1  81
ATOM     81  O   UNL     1       4.608  15.364  20.993  0.00  0.00    -0.461 OA
BRANCH  81  82
ATOM     82  C   UNL     1       4.893  14.424  20.053  0.00  0.00    +0.310 C 
ATOM     83  O   UNL     1       5.750  14.543  19.188  0.00  0.00    -0.251 OA
BRANCH  82  84
ATOM     84  C   UNL     1       4.025  13.187  20.209  0.00  0.00    +0.051 C 
ATOM     85  H   UNL     1       4.707  12.325  20.182  0.00  0.00    +0.041 HD
BRANCH  84  86
ATOM     86  C   UNL     1       3.013  13.002  19.079  0.00  0.00    -0.053 C 
ATOM     87  H   UNL     1       3.356  13.462  18.144  0.00  0.00    +0.024 HD
ATOM     88  H   UNL     1       2.050  13.454  19.341  0.00  0.00    +0.024 HD
ATOM     89  H   UNL     1       2.842  11.938  18.882  0.00  0.00    +0.024 HD
ENDBRANCH  84  86
BRANCH  84  90
ATOM     90  C   UNL     1       3.324  13.228  21.566  0.00  0.00    -0.053 C 
ATOM     91  H   UNL     1       3.689  12.436  22.231  0.00  0.00    +0.024 HD
ATOM     92  H   UNL     1       2.243  13.087  21.448  0.00  0.00    +0.024 HD
ATOM     93  H   UNL     1       3.481  14.199  22.054  0.00  0.00    +0.024 HD
ENDBRANCH  84  90
ENDBRANCH  82  84
ENDBRANCH  81  82
ENDBRANCH   1  81
TORSDOF 32
ENDMDL
MODEL 3
REMARK VINA RESULT:      -4.7      1.658      2.889
REMARK  Name = 2c_conf2
REMARK  32 active torsions:
REMARK  status: ('A' for Active; 'I' for Inactive)
REMARK    1  A    between atoms: N_2  and  C_3
REMARK    2  A    between atoms: N_2  and  C_5
REMARK    3  A    between atoms: C_3  and  C_4
REMARK    4  A    between atoms: C_6  and  C_7
REMARK    5  A    between atoms: C_7  and  C_8
REMARK    6  A    between atoms: C_7  and  C_9
REMARK    7  A    between atoms: C_9  and  O_10
REMARK    8  A    between atoms: C_9  and  C_12
REMARK    9  A    between atoms: O_10  and  C_11
REMARK   10  A    between atoms: C_12  and  C_13
REMARK   11  A    between atoms: C_12  and  C_14
REMARK   12  A    between atoms: C_14  and  O_15
REMARK   13  A    between atoms: C_14  and  C_21
REMARK   14  A    between atoms: O_15  and  C_16
REMARK   15  A    between atoms: C_16  and  C_17
REMARK   16  A    between atoms: C_17  and  C_18
REMARK   17  A    between atoms: C_17  and  C_19
REMARK   18  A    between atoms: C_21  and  C_22
REMARK   19  A    between atoms: C_22  and  C_23
REMARK   20  A    between atoms: C_23  and  C_24
REMARK   21  A    between atoms: C_23  and  C_25
REMARK   22  A    between atoms: C_25  and  O_26
REMARK   23  A    between atoms: C_25  and  C_28
REMARK   24  A    between atoms: O_26  and  C_27
REMARK   25  A    between atoms: C_28  and  C_29
REMARK   26  A    between atoms: C_29  and  O_30
REMARK   27  A    between atoms: C_29  and  C_35
REMARK   28  A    between atoms: O_30  and  C_31
REMARK   29  A    between atoms: C_31  and  C_32
REMARK   30  A    between atoms: C_32  and  C_33
REMARK   31  A    between atoms: C_35  and  C_36
REMARK   32  A    between atoms: C_35  and  C_37
REMARK                            x       y       z     vdW  Elec       q    Type
REMARK                         _______ _______ _______ _____ _____    ______ ____
ROOT
ATOM      1  C   UNL     1       9.833  16.239  22.821  0.00  0.00    +0.108 C 
ATOM      2  H   UNL     1       9.892  16.289  23.919  0.00  0.00    +0.074 HD
ENDROOT
BRANCH   1   3
ATOM      3  C   UNL     1       8.343  16.203  22.445  0.00  0.00    -0.015 C 
ATOM      4  H   UNL     1       8.074  15.202  22.105  0.00  0.00    +0.030 HD
ATOM      5  H   UNL     1       8.108  16.901  21.636  0.00  0.00    +0.030 HD
BRANCH   3   6
ATOM      6  C   UNL     1       7.460  16.574  23.651  0.00  0.00    -0.045 C 
ATOM      7  H   UNL     1       7.187  15.675  24.222  0.00  0.00    +0.027 HD
ATOM      8  H   UNL     1       8.069  17.193  24.324  0.00  0.00    +0.027 HD
BRANCH   6   9
ATOM      9  C   UNL     1       6.181  17.352  23.246  0.00  0.00    -0.017 C 
ATOM     10  H   UNL     1       6.433  17.996  22.399  0.00  0.00    +0.032 HD
BRANCH   9  11
ATOM     11  C   UNL     1       5.771  18.257  24.418  0.00  0.00    -0.060 C 
ATOM     12  H   UNL     1       6.552  18.998  24.612  0.00  0.00    +0.023 HD
ATOM     13  H   UNL     1       5.619  17.685  25.339  0.00  0.00    +0.023 HD
ATOM     14  H   UNL     1       4.852  18.810  24.211  0.00  0.00    +0.023 HD
ENDBRANCH   9  11
BRANCH   9  15
ATOM     15  C   UNL     1       5.044  16.369  22.837  0.00  0.00    +0.064 C 
ATOM     16  H   UNL     1       5.500  15.438  22.496  0.00  0.00    +0.060 HD
BRANCH  15  17
ATOM     17  C   UNL     1       4.099  16.916  21.743  0.00  0.00    +0.011 C 
ATOM     18  H   UNL     1       4.529  17.845  21.352  0.00  0.00    +0.033 HD
ATOM     19  H   UNL     1       3.160  17.255  22.192  0.00  0.00    +0.033 HD
BRANCH  17  20
ATOM     20  C   UNL     1       3.746  15.965  20.584  0.00  0.00    +0.108 C 
ATOM     21  H   UNL     1       3.830  16.456  19.609  0.00  0.00    +0.074 HD
BRANCH  20  22
ATOM     22  C   UNL     1       4.570  14.646  20.554  0.00  0.00    -0.009 C 
ATOM     23  H   UNL     1       5.396  14.738  21.274  0.00  0.00    +0.033 HD
BRANCH  22  24
ATOM     24  C   UNL     1       5.167  14.308  19.190  0.00  0.00    -0.059 C 
ATOM     25  H   UNL     1       4.562  14.714  18.376  0.00  0.00    +0.023 HD
ATOM     26  H   UNL     1       6.185  14.693  19.106  0.00  0.00    +0.023 HD
ATOM     27  H   UNL     1       5.227  13.224  19.050  0.00  0.00    +0.023 HD
ENDBRANCH  22  24
BRANCH  22  28
ATOM     28  C   UNL     1       3.706  13.469  21.036  0.00  0.00    -0.059 C 
ATOM     29  H   UNL     1       3.423  13.596  22.085  0.00  0.00    +0.023 HD
ATOM     30  H   UNL     1       2.790  13.393  20.444  0.00  0.00    +0.023 HD
ATOM     31  H   UNL     1       4.235  12.517  20.942  0.00  0.00    +0.023 HD
ENDBRANCH  22  28
ENDBRANCH  20  22
BRANCH  20  32
ATOM     32  O   UNL     1       2.367  15.548  20.789  0.00  0.00    -0.461 OA
BRANCH  32  33
ATOM     33  C   UNL     1       1.461  15.946  19.855  0.00  0.00    +0.307 C 
ATOM     34  O   UNL     1       1.292  17.095  19.471  0.00  0.00    -0.251 OA
BRANCH  33  35
ATOM     35  C   UNL     1       0.670  14.762  19.356  0.00  0.00    +0.042 C 
ATOM     36  H   UNL     1       0.611  14.023  20.161  0.00  0.00    +0.037 HD
ATOM     37  H   UNL     1      -0.355  15.083  19.137  0.00  0.00    +0.037 HD
BRANCH  35  38
ATOM     38  C   UNL     1       1.322  14.141  18.136  0.00  0.00    -0.055 C 
ATOM     39  H   UNL     1       1.408  13.056  18.258  0.00  0.00    +0.023 HD
ATOM     40  H   UNL     1       0.737  14.330  17.229  0.00  0.00    +0.023 HD
ATOM     41  H   UNL     1       2.327  14.553  17.974  0.00  0.00    +0.023 HD
ENDBRANCH  35  38
ENDBRANCH  33  35
ENDBRANCH  32  33
ENDBRANCH  20  32
ENDBRANCH  17  20
ENDBRANCH  15  17
BRANCH  15  42
ATOM     42  O   UNL     1       4.292  16.081  24.033  0.00  0.00    -0.379 OA
BRANCH  42  43
ATOM     43  C   UNL     1       4.510  14.789  24.573  0.00  0.00    +0.037 C 
ATOM     44  H   UNL     1       4.510  14.872  25.665  0.00  0.00    +0.052 HD
ATOM     45  H   UNL     1       3.707  14.100  24.293  0.00  0.00    +0.052 HD
ATOM     46  H   UNL     1       5.481  14.395  24.257  0.00  0.00    +0.052 HD
ENDBRANCH  42  43
ENDBRANCH  15  42
ENDBRANCH   9  15
ENDBRANCH   6   9
ENDBRANCH   3   6
ENDBRANCH   1   3
BRANCH   1  47
ATOM     47  C   UNL     1      10.671  17.423  22.263  0.00  0.00    +0.020 C 
ATOM     48  H   UNL     1      10.157  17.700  21.330  0.00  0.00    +0.036 HD
BRANCH  47  49
ATOM     49  C   UNL     1      12.054  16.982  21.774  0.00  0.00    -0.057 C 
ATOM     50  H   UNL     1      12.867  17.460  22.324  0.00  0.00    +0.023 HD
ATOM     51  H   UNL     1      12.193  17.206  20.709  0.00  0.00    +0.023 HD
ATOM     52  H   UNL     1      12.175  15.899  21.893  0.00  0.00    +0.023 HD
ENDBRANCH  47  49
BRANCH  47  53
ATOM     53  C   UNL     1      10.658  18.743  23.093  0.00  0.00    +0.070 C 
ATOM     54  H   UNL     1      11.701  19.029  23.272  0.00  0.00    +0.061 HD
BRANCH  53  55
ATOM     55  C   UNL     1       9.976  19.995  22.467  0.00  0.00    +0.002 C 
ATOM     56  H   UNL     1      10.290  20.076  21.424  0.00  0.00    +0.037 HD
BRANCH  55  58
ATOM     57  C   UNL     1       7.683  20.825  21.858  0.00  0.00    -0.005 C 
ATOM     58  C   UNL     1       8.465  19.988  22.555  0.00  0.00    -0.065 C 
ATOM     59  H   UNL     1       8.147  21.556  21.195  0.00  0.00    +0.078 HD
ATOM     60  H   UNL     1       8.043  19.247  23.228  0.00  0.00    +0.059 HD
BRANCH  57  62
ATOM     61  C   UNL     1       5.578  20.185  20.900  0.00  0.00    +0.206 C 
ATOM     62  N   UNL     1       6.296  20.871  21.878  0.00  0.00    -0.281 N 
ATOM     63  O   UNL     1       6.045  19.535  19.971  0.00  0.00    -0.279 OA
ATOM     64  H   UNL     1       4.488  20.272  21.030  0.00  0.00    +0.126 HD
BRANCH  62  65
ATOM     65  C   UNL     1       5.549  21.590  22.907  0.00  0.00    +0.016 C 
ATOM     66  H   UNL     1       5.789  21.183  23.894  0.00  0.00    +0.047 HD
ATOM     67  H   UNL     1       5.884  22.635  22.919  0.00  0.00    +0.047 HD
BRANCH  65  68
ATOM     68  C   UNL     1       4.049  21.569  22.654  0.00  0.00    -0.049 C 
ATOM     69  H   UNL     1       3.523  22.101  23.453  0.00  0.00    +0.024 HD
ATOM     70  H   UNL     1       3.807  22.039  21.701  0.00  0.00    +0.024 HD
ATOM     71  H   UNL     1       3.661  20.544  22.630  0.00  0.00    +0.024 HD
ENDBRANCH  65  68
ENDBRANCH  62  65
ENDBRANCH  57  62
ENDBRANCH  55  58
BRANCH  55  72
ATOM     72  C   UNL     1      10.485  21.269  23.161  0.00  0.00    -0.057 C 
ATOM     73  H   UNL     1      10.778  22.042  22.442  0.00  0.00    +0.024 HD
ATOM     74  H   UNL     1       9.710  21.693  23.809  0.00  0.00    +0.024 HD
ATOM     75  H   UNL     1      11.357  21.052  23.789  0.00  0.00    +0.024 HD
ENDBRANCH  55  72
ENDBRANCH  53  55
BRANCH  53  76
ATOM     76  O   UNL     1      10.040  18.515  24.379  0.00  0.00    -0.379 OA
BRANCH  76  77
ATOM     77  C   UNL     1      10.959  18.498  25.465  0.00  0.00    +0.037 C 
ATOM     78  H   UNL     1      10.841  19.397  26.080  0.00  0.00    +0.052 HD
ATOM     79  H   UNL     1      10.737  17.625  26.082  0.00  0.00    +0.052 HD
ATOM     80  H   UNL     1      11.993  18.419  25.111  0.00  0.00    +0.052 HD
ENDBRANCH  76  77
ENDBRANCH  53  76
ENDBRANCH  47  53
ENDBRANCH   1  47
BRANCH   1  81
ATOM     81  O   UNL     1      10.384  14.980  22.375  0.00  0.00    -0.461 OA
BRANCH  81  82
ATOM     82  C   UNL     1      10.608  14.023  23.314  0.00  0.00    +0.310 C 
ATOM     83  O   UNL     1      10.928  12.869  23.067  0.00  0.00    -0.251 OA
BRANCH  82  84
ATOM     84  C   UNL     1      10.426  14.560  24.724  0.00  0.00    +0.051 C 
ATOM     85  H   UNL     1      10.010  15.572  24.618  0.00  0.00    +0.041 HD
BRANCH  84  86
ATOM     86  C   UNL     1      11.734  14.687  25.504  0.00  0.00    -0.053 C 
ATOM     87  H   UNL     1      12.327  15.549  25.173  0.00  0.00    +0.024 HD
ATOM     88  H   UNL     1      12.351  13.789  25.378  0.00  0.00    +0.024 HD
ATOM     89  H   UNL     1      11.537  14.811  26.575  0.00  0.00    +0.024 HD
ENDBRANCH  84  86
BRANCH  84  90
ATOM     90  C   UNL     1       9.427  13.683  25.475  0.00  0.00    -0.053 C 
ATOM     91  H   UNL     1       8.393  13.993  25.278  0.00  0.00    +0.024 HD
ATOM     92  H   UNL     1       9.589  13.749  26.558  0.00  0.00    +0.024 HD
ATOM     93  H   UNL     1       9.541  12.630  25.186  0.00  0.00    +0.024 HD
ENDBRANCH  84  90
ENDBRANCH  82  84
ENDBRANCH  81  82
ENDBRANCH   1  81
TORSDOF 32
ENDMDL
MODEL 4
REMARK VINA RESULT:      -4.7      1.711      3.051
REMARK  Name = 2c_conf2
REMARK  32 active torsions:
REMARK  status: ('A' for Active; 'I' for Inactive)
REMARK    1  A    between atoms: N_2  and  C_3
REMARK    2  A    between atoms: N_2  and  C_5
REMARK    3  A    between atoms: C_3  and  C_4
REMARK    4  A    between atoms: C_6  and  C_7
REMARK    5  A    between atoms: C_7  and  C_8
REMARK    6  A    between atoms: C_7  and  C_9
REMARK    7  A    between atoms: C_9  and  O_10
REMARK    8  A    between atoms: C_9  and  C_12
REMARK    9  A    between atoms: O_10  and  C_11
REMARK   10  A    between atoms: C_12  and  C_13
REMARK   11  A    between atoms: C_12  and  C_14
REMARK   12  A    between atoms: C_14  and  O_15
REMARK   13  A    between atoms: C_14  and  C_21
REMARK   14  A    between atoms: O_15  and  C_16
REMARK   15  A    between atoms: C_16  and  C_17
REMARK   16  A    between atoms: C_17  and  C_18
REMARK   17  A    between atoms: C_17  and  C_19
REMARK   18  A    between atoms: C_21  and  C_22
REMARK   19  A    between atoms: C_22  and  C_23
REMARK   20  A    between atoms: C_23  and  C_24
REMARK   21  A    between atoms: C_23  and  C_25
REMARK   22  A    between atoms: C_25  and  O_26
REMARK   23  A    between atoms: C_25  and  C_28
REMARK   24  A    between atoms: O_26  and  C_27
REMARK   25  A    between atoms: C_28  and  C_29
REMARK   26  A    between atoms: C_29  and  O_30
REMARK   27  A    between atoms: C_29  and  C_35
REMARK   28  A    between atoms: O_30  and  C_31
REMARK   29  A    between atoms: C_31  and  C_32
REMARK   30  A    between atoms: C_32  and  C_33
REMARK   31  A    between atoms: C_35  and  C_36
REMARK   32  A    between atoms: C_35  and  C_37
REMARK                            x       y       z     vdW  Elec       q    Type
REMARK                         _______ _______ _______ _____ _____    ______ ____
ROOT
ATOM      1  C   UNL     1       8.902  15.887  23.362  0.00  0.00    +0.108 C 
ATOM      2  H   UNL     1       9.080  15.794  24.444  0.00  0.00    +0.074 HD
ENDROOT
BRANCH   1   3
ATOM      3  C   UNL     1       7.403  15.640  23.122  0.00  0.00    -0.015 C 
ATOM      4  H   UNL     1       6.874  15.638  24.075  0.00  0.00    +0.030 HD
ATOM      5  H   UNL     1       7.219  14.677  22.638  0.00  0.00    +0.030 HD
BRANCH   3   6
ATOM      6  C   UNL     1       6.802  16.736  22.222  0.00  0.00    -0.045 C 
ATOM      7  H   UNL     1       7.525  17.548  22.063  0.00  0.00    +0.027 HD
ATOM      8  H   UNL     1       6.621  16.287  21.235  0.00  0.00    +0.027 HD
BRANCH   6   9
ATOM      9  C   UNL     1       5.474  17.313  22.779  0.00  0.00    -0.017 C 
ATOM     10  H   UNL     1       5.666  18.337  23.112  0.00  0.00    +0.032 HD
BRANCH   9  11
ATOM     11  C   UNL     1       5.066  16.489  24.010  0.00  0.00    -0.060 C 
ATOM     12  H   UNL     1       5.853  16.531  24.769  0.00  0.00    +0.023 HD
ATOM     13  H   UNL     1       4.904  15.435  23.759  0.00  0.00    +0.023 HD
ATOM     14  H   UNL     1       4.153  16.866  24.476  0.00  0.00    +0.023 HD
ENDBRANCH   9  11
BRANCH   9  15
ATOM     15  C   UNL     1       4.370  17.315  21.681  0.00  0.00    +0.064 C 
ATOM     16  H   UNL     1       3.431  16.992  22.136  0.00  0.00    +0.060 HD
BRANCH  15  17
ATOM     17  C   UNL     1       4.691  16.422  20.461  0.00  0.00    +0.011 C 
ATOM     18  H   UNL     1       5.699  16.014  20.590  0.00  0.00    +0.033 HD
ATOM     19  H   UNL     1       4.793  17.037  19.561  0.00  0.00    +0.033 HD
BRANCH  17  20
ATOM     20  C   UNL     1       3.697  15.290  20.142  0.00  0.00    +0.108 C 
ATOM     21  H   UNL     1       3.575  15.142  19.064  0.00  0.00    +0.074 HD
BRANCH  20  22
ATOM     22  C   UNL     1       4.038  13.923  20.801  0.00  0.00    -0.009 C 
ATOM     23  H   UNL     1       5.110  13.913  21.041  0.00  0.00    +0.033 HD
BRANCH  22  24
ATOM     24  C   UNL     1       3.737  12.710  19.924  0.00  0.00    -0.059 C 
ATOM     25  H   UNL     1       3.083  12.971  19.090  0.00  0.00    +0.023 HD
ATOM     26  H   UNL     1       4.660  12.275  19.535  0.00  0.00    +0.023 HD
ATOM     27  H   UNL     1       3.240  11.925  20.504  0.00  0.00    +0.023 HD
ENDBRANCH  22  24
BRANCH  22  28
ATOM     28  C   UNL     1       3.295  13.779  22.139  0.00  0.00    -0.059 C 
ATOM     29  H   UNL     1       2.476  13.057  22.056  0.00  0.00    +0.023 HD
ATOM     30  H   UNL     1       3.973  13.433  22.924  0.00  0.00    +0.023 HD
ATOM     31  H   UNL     1       2.872  14.731  22.470  0.00  0.00    +0.023 HD
ENDBRANCH  22  28
ENDBRANCH  20  22
BRANCH  20  32
ATOM     32  O   UNL     1       2.417  15.681  20.716  0.00  0.00    -0.461 OA
BRANCH  32  33
ATOM     33  C   UNL     1       1.427  16.004  19.840  0.00  0.00    +0.307 C 
ATOM     34  O   UNL     1       1.207  17.121  19.393  0.00  0.00    -0.251 OA
BRANCH  33  35
ATOM     35  C   UNL     1       0.612  14.780  19.499  0.00  0.00    +0.042 C 
ATOM     36  H   UNL     1       0.920  13.965  20.160  0.00  0.00    +0.037 HD
ATOM     37  H   UNL     1      -0.444  14.984  19.708  0.00  0.00    +0.037 HD
BRANCH  35  38
ATOM     38  C   UNL     1       0.814  14.372  18.053  0.00  0.00    -0.055 C 
ATOM     39  H   UNL     1       0.166  14.959  17.394  0.00  0.00    +0.023 HD
ATOM     40  H   UNL     1       1.849  14.532  17.732  0.00  0.00    +0.023 HD
ATOM     41  H   UNL     1       0.583  13.307  17.908  0.00  0.00    +0.023 HD
ENDBRANCH  35  38
ENDBRANCH  33  35
ENDBRANCH  32  33
ENDBRANCH  20  32
ENDBRANCH  17  20
ENDBRANCH  15  17
BRANCH  15  42
ATOM     42  O   UNL     1       4.207  18.683  21.256  0.00  0.00    -0.379 OA
BRANCH  42  43
ATOM     43  C   UNL     1       4.402  18.900  19.870  0.00  0.00    +0.037 C 
ATOM     44  H   UNL     1       4.631  17.937  19.403  0.00  0.00    +0.052 HD
ATOM     45  H   UNL     1       3.495  19.291  19.397  0.00  0.00    +0.052 HD
ATOM     46  H   UNL     1       5.246  19.577  19.697  0.00  0.00    +0.052 HD
ENDBRANCH  42  43
ENDBRANCH  15  42
ENDBRANCH   9  15
ENDBRANCH   6   9
ENDBRANCH   3   6
ENDBRANCH   1   3
BRANCH   1  47
ATOM     47  C   UNL     1       9.468  17.265  22.920  0.00  0.00    +0.020 C 
ATOM     48  H   UNL     1       8.661  17.705  22.315  0.00  0.00    +0.036 HD
BRANCH  47  49
ATOM     49  C   UNL     1      10.617  17.132  21.916  0.00  0.00    -0.057 C 
ATOM     50  H   UNL     1      10.553  17.859  21.105  0.00  0.00    +0.023 HD
ATOM     51  H   UNL     1      10.642  16.131  21.467  0.00  0.00    +0.023 HD
ATOM     52  H   UNL     1      11.581  17.284  22.415  0.00  0.00    +0.023 HD
ENDBRANCH  47  49
BRANCH  47  53
ATOM     53  C   UNL     1       9.699  18.320  24.045  0.00  0.00    +0.070 C 
ATOM     54  H   UNL     1      10.330  19.113  23.627  0.00  0.00    +0.061 HD
BRANCH  53  55
ATOM     55  C   UNL     1       8.453  19.039  24.642  0.00  0.00    +0.002 C 
ATOM     56  H   UNL     1       7.691  19.115  23.863  0.00  0.00    +0.037 HD
BRANCH  55  58
ATOM     57  C   UNL     1       6.814  18.838  26.537  0.00  0.00    -0.005 C 
ATOM     58  C   UNL     1       7.875  18.365  25.868  0.00  0.00    -0.065 C 
ATOM     59  H   UNL     1       6.337  19.756  26.193  0.00  0.00    +0.078 HD
ATOM     60  H   UNL     1       8.382  17.455  26.179  0.00  0.00    +0.059 HD
BRANCH  57  62
ATOM     61  C   UNL     1       6.675  18.640  28.925  0.00  0.00    +0.206 C 
ATOM     62  N   UNL     1       6.224  18.272  27.658  0.00  0.00    -0.281 N 
ATOM     63  O   UNL     1       7.585  19.421  29.178  0.00  0.00    -0.279 OA
ATOM     64  H   UNL     1       6.118  18.147  29.737  0.00  0.00    +0.126 HD
BRANCH  62  65
ATOM     65  C   UNL     1       5.120  17.320  27.568  0.00  0.00    +0.016 C 
ATOM     66  H   UNL     1       4.509  17.540  26.688  0.00  0.00    +0.047 HD
ATOM     67  H   UNL     1       5.534  16.316  27.408  0.00  0.00    +0.047 HD
BRANCH  65  68
ATOM     68  C   UNL     1       4.273  17.295  28.832  0.00  0.00    -0.049 C 
ATOM     69  H   UNL     1       4.433  16.360  29.377  0.00  0.00    +0.024 HD
ATOM     70  H   UNL     1       4.522  18.130  29.486  0.00  0.00    +0.024 HD
ATOM     71  H   UNL     1       3.204  17.360  28.598  0.00  0.00    +0.024 HD
ENDBRANCH  65  68
ENDBRANCH  62  65
ENDBRANCH  57  62
ENDBRANCH  55  58
BRANCH  55  72
ATOM     72  C   UNL     1       8.815  20.484  25.021  0.00  0.00    -0.057 C 
ATOM     73  H   UNL     1       8.041  20.956  25.635  0.00  0.00    +0.024 HD
ATOM     74  H   UNL     1       9.753  20.512  25.586  0.00  0.00    +0.024 HD
ATOM     75  H   UNL     1       8.951  21.102  24.126  0.00  0.00    +0.024 HD
ENDBRANCH  55  72
ENDBRANCH  53  55
BRANCH  53  76
ATOM     76  O   UNL     1      10.418  17.722  25.146  0.00  0.00    -0.379 OA
BRANCH  76  77
ATOM     77  C   UNL     1      11.757  18.187  25.279  0.00  0.00    +0.037 C 
ATOM     78  H   UNL     1      11.946  19.013  24.585  0.00  0.00    +0.052 HD
ATOM     79  H   UNL     1      11.887  18.556  26.298  0.00  0.00    +0.052 HD
ATOM     80  H   UNL     1      12.477  17.380  25.108  0.00  0.00    +0.052 HD
ENDBRANCH  76  77
ENDBRANCH  53  76
ENDBRANCH  47  53
ENDBRANCH   1  47
BRANCH   1  81
ATOM     81  O   UNL     1       9.593  14.818  22.677  0.00  0.00    -0.461 OA
BRANCH  81  82
ATOM     82  C   UNL     1      10.404  14.017  23.417  0.00  0.00    +0.310 C 
ATOM     83  O   UNL     1      11.264  13.281  22.955  0.00  0.00    -0.251 OA
BRANCH  82  84
ATOM     84  C   UNL     1      10.127  14.152  24.906  0.00  0.00    +0.051 C 
ATOM     85  H   UNL     1       9.473  15.028  25.020  0.00  0.00    +0.041 HD
BRANCH  84  86
ATOM     86  C   UNL     1      11.381  14.408  25.741  0.00  0.00    -0.053 C 
ATOM     87  H   UNL     1      11.873  13.473  26.038  0.00  0.00    +0.024 HD
ATOM     88  H   UNL     1      11.132  14.960  26.655  0.00  0.00    +0.024 HD
ATOM     89  H   UNL     1      12.108  15.002  25.177  0.00  0.00    +0.024 HD
ENDBRANCH  84  86
BRANCH  84  90
ATOM     90  C   UNL     1       9.390  12.908  25.398  0.00  0.00    -0.053 C 
ATOM     91  H   UNL     1       9.998  12.004  25.270  0.00  0.00    +0.024 HD
ATOM     92  H   UNL     1       8.460  12.760  24.835  0.00  0.00    +0.024 HD
ATOM     93  H   UNL     1       9.124  13.008  26.458  0.00  0.00    +0.024 HD
ENDBRANCH  84  90
ENDBRANCH  82  84
ENDBRANCH  81  82
ENDBRANCH   1  81
TORSDOF 32
ENDMDL
MODEL 5
REMARK VINA RESULT:      -4.6      1.437      2.954
REMARK  Name = 2c_conf2
REMARK  32 active torsions:
REMARK  status: ('A' for Active; 'I' for Inactive)
REMARK    1  A    between atoms: N_2  and  C_3
REMARK    2  A    between atoms: N_2  and  C_5
REMARK    3  A    between atoms: C_3  and  C_4
REMARK    4  A    between atoms: C_6  and  C_7
REMARK    5  A    between atoms: C_7  and  C_8
REMARK    6  A    between atoms: C_7  and  C_9
REMARK    7  A    between atoms: C_9  and  O_10
REMARK    8  A    between atoms: C_9  and  C_12
REMARK    9  A    between atoms: O_10  and  C_11
REMARK   10  A    between atoms: C_12  and  C_13
REMARK   11  A    between atoms: C_12  and  C_14
REMARK   12  A    between atoms: C_14  and  O_15
REMARK   13  A    between atoms: C_14  and  C_21
REMARK   14  A    between atoms: O_15  and  C_16
REMARK   15  A    between atoms: C_16  and  C_17
REMARK   16  A    between atoms: C_17  and  C_18
REMARK   17  A    between atoms: C_17  and  C_19
REMARK   18  A    between atoms: C_21  and  C_22
REMARK   19  A    between atoms: C_22  and  C_23
REMARK   20  A    between atoms: C_23  and  C_24
REMARK   21  A    between atoms: C_23  and  C_25
REMARK   22  A    between atoms: C_25  and  O_26
REMARK   23  A    between atoms: C_25  and  C_28
REMARK   24  A    between atoms: O_26  and  C_27
REMARK   25  A    between atoms: C_28  and  C_29
REMARK   26  A    between atoms: C_29  and  O_30
REMARK   27  A    between atoms: C_29  and  C_35
REMARK   28  A    between atoms: O_30  and  C_31
REMARK   29  A    between atoms: C_31  and  C_32
REMARK   30  A    between atoms: C_32  and  C_33
REMARK   31  A    between atoms: C_35  and  C_36
REMARK   32  A    between atoms: C_35  and  C_37
REMARK                            x       y       z     vdW  Elec       q    Type
REMARK                         _______ _______ _______ _____ _____    ______ ____
ROOT
ATOM      1  C   UNL     1      10.028  16.213  23.156  0.00  0.00    +0.108 C 
ATOM      2  H   UNL     1       9.896  16.190  24.249  0.00  0.00    +0.074 HD
ENDROOT
BRANCH   1   3
ATOM      3  C   UNL     1       8.653  15.940  22.525  0.00  0.00    -0.015 C 
ATOM      4  H   UNL     1       8.361  14.905  22.711  0.00  0.00    +0.030 HD
ATOM      5  H   UNL     1       8.662  16.091  21.441  0.00  0.00    +0.030 HD
BRANCH   3   6
ATOM      6  C   UNL     1       7.579  16.873  23.116  0.00  0.00    -0.045 C 
ATOM      7  H   UNL     1       6.914  16.318  23.792  0.00  0.00    +0.027 HD
ATOM      8  H   UNL     1       8.098  17.617  23.736  0.00  0.00    +0.027 HD
BRANCH   6   9
ATOM      9  C   UNL     1       6.743  17.596  22.028  0.00  0.00    -0.017 C 
ATOM     10  H   UNL     1       6.488  16.863  21.258  0.00  0.00    +0.032 HD
BRANCH   9  11
ATOM     11  C   UNL     1       7.622  18.674  21.377  0.00  0.00    -0.060 C 
ATOM     12  H   UNL     1       8.510  18.216  20.929  0.00  0.00    +0.023 HD
ATOM     13  H   UNL     1       7.965  19.416  22.107  0.00  0.00    +0.023 HD
ATOM     14  H   UNL     1       7.101  19.207  20.578  0.00  0.00    +0.023 HD
ENDBRANCH   9  11
BRANCH   9  15
ATOM     15  C   UNL     1       5.440  18.191  22.639  0.00  0.00    +0.064 C 
ATOM     16  H   UNL     1       5.567  18.259  23.722  0.00  0.00    +0.060 HD
BRANCH  15  17
ATOM     17  C   UNL     1       4.164  17.382  22.315  0.00  0.00    +0.011 C 
ATOM     18  H   UNL     1       3.645  17.875  21.486  0.00  0.00    +0.033 HD
ATOM     19  H   UNL     1       3.445  17.469  23.136  0.00  0.00    +0.033 HD
BRANCH  17  20
ATOM     20  C   UNL     1       4.345  15.883  22.011  0.00  0.00    +0.108 C 
ATOM     21  H   UNL     1       5.395  15.621  21.842  0.00  0.00    +0.074 HD
BRANCH  20  22
ATOM     22  C   UNL     1       3.757  14.927  23.088  0.00  0.00    -0.009 C 
ATOM     23  H   UNL     1       2.792  15.334  23.421  0.00  0.00    +0.033 HD
BRANCH  22  24
ATOM     24  C   UNL     1       4.644  14.743  24.317  0.00  0.00    -0.059 C 
ATOM     25  H   UNL     1       4.743  13.689  24.586  0.00  0.00    +0.023 HD
ATOM     26  H   UNL     1       5.636  15.165  24.146  0.00  0.00    +0.023 HD
ATOM     27  H   UNL     1       4.224  15.268  25.181  0.00  0.00    +0.023 HD
ENDBRANCH  22  24
BRANCH  22  28
ATOM     28  C   UNL     1       3.456  13.551  22.470  0.00  0.00    -0.059 C 
ATOM     29  H   UNL     1       2.430  13.242  22.688  0.00  0.00    +0.023 HD
ATOM     30  H   UNL     1       3.578  13.579  21.384  0.00  0.00    +0.023 HD
ATOM     31  H   UNL     1       4.130  12.782  22.854  0.00  0.00    +0.023 HD
ENDBRANCH  22  28
ENDBRANCH  20  22
BRANCH  20  32
ATOM     32  O   UNL     1       3.586  15.605  20.800  0.00  0.00    -0.461 OA
BRANCH  32  33
ATOM     33  C   UNL     1       4.260  15.695  19.621  0.00  0.00    +0.307 C 
ATOM     34  O   UNL     1       4.712  16.721  19.135  0.00  0.00    -0.251 OA
BRANCH  33  35
ATOM     35  C   UNL     1       4.365  14.335  18.975  0.00  0.00    +0.042 C 
ATOM     36  H   UNL     1       4.893  14.445  18.024  0.00  0.00    +0.037 HD
ATOM     37  H   UNL     1       4.976  13.683  19.611  0.00  0.00    +0.037 HD
BRANCH  35  38
ATOM     38  C   UNL     1       2.994  13.735  18.734  0.00  0.00    -0.055 C 
ATOM     39  H   UNL     1       2.478  14.267  17.928  0.00  0.00    +0.023 HD
ATOM     40  H   UNL     1       3.062  12.680  18.447  0.00  0.00    +0.023 HD
ATOM     41  H   UNL     1       2.373  13.792  19.640  0.00  0.00    +0.023 HD
ENDBRANCH  35  38
ENDBRANCH  33  35
ENDBRANCH  32  33
ENDBRANCH  20  32
ENDBRANCH  17  20
ENDBRANCH  15  17
BRANCH  15  42
ATOM     42  O   UNL     1       5.312  19.532  22.125  0.00  0.00    -0.379 OA
BRANCH  42  43
ATOM     43  C   UNL     1       4.503  20.392  22.906  0.00  0.00    +0.037 C 
ATOM     44  H   UNL     1       3.463  20.062  22.810  0.00  0.00    +0.052 HD
ATOM     45  H   UNL     1       4.771  20.337  23.966  0.00  0.00    +0.052 HD
ATOM     46  H   UNL     1       4.572  21.424  22.547  0.00  0.00    +0.052 HD
ENDBRANCH  42  43
ENDBRANCH  15  42
ENDBRANCH   9  15
ENDBRANCH   6   9
ENDBRANCH   3   6
ENDBRANCH   1   3
BRANCH   1  47
ATOM     47  C   UNL     1      10.708  17.564  22.802  0.00  0.00    +0.020 C 
ATOM     48  H   UNL     1      10.006  18.043  22.103  0.00  0.00    +0.036 HD
BRANCH  47  49
ATOM     49  C   UNL     1      11.968  17.381  21.953  0.00  0.00    -0.057 C 
ATOM     50  H   UNL     1      12.359  16.362  21.993  0.00  0.00    +0.023 HD
ATOM     51  H   UNL     1      12.769  18.060  22.273  0.00  0.00    +0.023 HD
ATOM     52  H   UNL     1      11.758  17.607  20.901  0.00  0.00    +0.023 HD
ENDBRANCH  47  49
BRANCH  47  53
ATOM     53  C   UNL     1      10.841  18.604  23.957  0.00  0.00    +0.070 C 
ATOM     54  H   UNL     1      11.818  19.090  23.852  0.00  0.00    +0.061 HD
BRANCH  53  55
ATOM     55  C   UNL     1       9.798  19.758  24.027  0.00  0.00    +0.002 C 
ATOM     56  H   UNL     1       9.256  19.793  23.079  0.00  0.00    +0.037 HD
BRANCH  55  58
ATOM     57  C   UNL     1       7.537  20.019  25.094  0.00  0.00    -0.005 C 
ATOM     58  C   UNL     1       8.822  19.646  25.178  0.00  0.00    -0.065 C 
ATOM     59  H   UNL     1       7.165  20.430  24.155  0.00  0.00    +0.078 HD
ATOM     60  H   UNL     1       9.234  19.234  26.096  0.00  0.00    +0.059 HD
BRANCH  57  62
ATOM     61  C   UNL     1       6.521  20.942  27.062  0.00  0.00    +0.206 C 
ATOM     62  N   UNL     1       6.584  19.936  26.099  0.00  0.00    -0.281 N 
ATOM     63  O   UNL     1       7.251  21.922  27.144  0.00  0.00    -0.279 OA
ATOM     64  H   UNL     1       5.712  20.783  27.794  0.00  0.00    +0.126 HD
BRANCH  62  65
ATOM     65  C   UNL     1       5.617  18.844  26.176  0.00  0.00    +0.016 C 
ATOM     66  H   UNL     1       4.796  19.121  26.845  0.00  0.00    +0.047 HD
ATOM     67  H   UNL     1       5.167  18.704  25.185  0.00  0.00    +0.047 HD
BRANCH  65  68
ATOM     68  C   UNL     1       6.256  17.532  26.604  0.00  0.00    -0.049 C 
ATOM     69  H   UNL     1       5.795  17.170  27.529  0.00  0.00    +0.024 HD
ATOM     70  H   UNL     1       6.141  16.771  25.833  0.00  0.00    +0.024 HD
ATOM     71  H   UNL     1       7.328  17.654  26.797  0.00  0.00    +0.024 HD
ENDBRANCH  65  68
ENDBRANCH  62  65
ENDBRANCH  57  62
ENDBRANCH  55  58
BRANCH  55  72
ATOM     72  C   UNL     1      10.521  21.109  24.149  0.00  0.00    -0.057 C 
ATOM     73  H   UNL     1      11.511  21.092  23.681  0.00  0.00    +0.024 HD
ATOM     74  H   UNL     1       9.939  21.904  23.668  0.00  0.00    +0.024 HD
ATOM     75  H   UNL     1      10.655  21.389  25.200  0.00  0.00    +0.024 HD
ENDBRANCH  55  72
ENDBRANCH  53  55
BRANCH  53  76
ATOM     76  O   UNL     1      10.822  17.931  25.236  0.00  0.00    -0.379 OA
BRANCH  76  77
ATOM     77  C   UNL     1      12.054  18.006  25.943  0.00  0.00    +0.037 C 
ATOM     78  H   UNL     1      12.879  17.658  25.312  0.00  0.00    +0.052 HD
ATOM     79  H   UNL     1      12.234  19.052  26.200  0.00  0.00    +0.052 HD
ATOM     80  H   UNL     1      12.018  17.422  26.869  0.00  0.00    +0.052 HD
ENDBRANCH  76  77
ENDBRANCH  53  76
ENDBRANCH  47  53
ENDBRANCH   1  47
BRANCH   1  81
ATOM     81  O   UNL     1      10.871  15.108  22.759  0.00  0.00    -0.461 OA
BRANCH  81  82
ATOM     82  C   UNL     1      10.772  13.954  23.471  0.00  0.00    +0.310 C 
ATOM     83  O   UNL     1      10.941  12.835  23.007  0.00  0.00    -0.251 OA
BRANCH  82  84
ATOM     84  C   UNL     1      10.439  14.216  24.930  0.00  0.00    +0.051 C 
ATOM     85  H   UNL     1       9.924  15.187  24.960  0.00  0.00    +0.041 HD
BRANCH  84  86
ATOM     86  C   UNL     1      11.670  14.326  25.830  0.00  0.00    -0.053 C 
ATOM     87  H   UNL     1      11.567  13.722  26.740  0.00  0.00    +0.024 HD
ATOM     88  H   UNL     1      11.836  15.366  26.134  0.00  0.00    +0.024 HD
ATOM     89  H   UNL     1      12.567  13.982  25.303  0.00  0.00    +0.024 HD
ENDBRANCH  84  86
BRANCH  84  90
ATOM     90  C   UNL     1       9.492  13.129  25.435  0.00  0.00    -0.053 C 
ATOM     91  H   UNL     1       9.664  12.907  26.496  0.00  0.00    +0.024 HD
ATOM     92  H   UNL     1       9.637  12.197  24.876  0.00  0.00    +0.024 HD
ATOM     93  H   UNL     1       8.445  13.435  25.305  0.00  0.00    +0.024 HD
ENDBRANCH  84  90
ENDBRANCH  82  84
ENDBRANCH  81  82
ENDBRANCH   1  81
TORSDOF 32
ENDMDL
MODEL 6
REMARK VINA RESULT:      -4.6      1.894      6.160
REMARK  Name = 2c_conf2
REMARK  32 active torsions:
REMARK  status: ('A' for Active; 'I' for Inactive)
REMARK    1  A    between atoms: N_2  and  C_3
REMARK    2  A    between atoms: N_2  and  C_5
REMARK    3  A    between atoms: C_3  and  C_4
REMARK    4  A    between atoms: C_6  and  C_7
REMARK    5  A    between atoms: C_7  and  C_8
REMARK    6  A    between atoms: C_7  and  C_9
REMARK    7  A    between atoms: C_9  and  O_10
REMARK    8  A    between atoms: C_9  and  C_12
REMARK    9  A    between atoms: O_10  and  C_11
REMARK   10  A    between atoms: C_12  and  C_13
REMARK   11  A    between atoms: C_12  and  C_14
REMARK   12  A    between atoms: C_14  and  O_15
REMARK   13  A    between atoms: C_14  and  C_21
REMARK   14  A    between atoms: O_15  and  C_16
REMARK   15  A    between atoms: C_16  and  C_17
REMARK   16  A    between atoms: C_17  and  C_18
REMARK   17  A    between atoms: C_17  and  C_19
REMARK   18  A    between atoms: C_21  and  C_22
REMARK   19  A    between atoms: C_22  and  C_23
REMARK   20  A    between atoms: C_23  and  C_24
REMARK   21  A    between atoms: C_23  and  C_25
REMARK   22  A    between atoms: C_25  and  O_26
REMARK   23  A    between atoms: C_25  and  C_28
REMARK   24  A    between atoms: O_26  and  C_27
REMARK   25  A    between atoms: C_28  and  C_29
REMARK   26  A    between atoms: C_29  and  O_30
REMARK   27  A    between atoms: C_29  and  C_35
REMARK   28  A    between atoms: O_30  and  C_31
REMARK   29  A    between atoms: C_31  and  C_32
REMARK   30  A    between atoms: C_32  and  C_33
REMARK   31  A    between atoms: C_35  and  C_36
REMARK   32  A    between atoms: C_35  and  C_37
REMARK                            x       y       z     vdW  Elec       q    Type
REMARK                         _______ _______ _______ _____ _____    ______ ____
ROOT
ATOM      1  C   UNL     1       4.198  16.974  20.579  0.00  0.00    +0.108 C 
ATOM      2  H   UNL     1       5.291  17.097  20.608  0.00  0.00    +0.074 HD
ENDROOT
BRANCH   1   3
ATOM      3  C   UNL     1       3.812  16.040  21.737  0.00  0.00    -0.015 C 
ATOM      4  H   UNL     1       4.266  15.060  21.586  0.00  0.00    +0.030 HD
ATOM      5  H   UNL     1       2.729  15.896  21.804  0.00  0.00    +0.030 HD
BRANCH   3   6
ATOM      6  C   UNL     1       4.290  16.608  23.087  0.00  0.00    -0.045 C 
ATOM      7  H   UNL     1       4.449  17.693  23.016  0.00  0.00    +0.027 HD
ATOM      8  H   UNL     1       3.476  16.462  23.810  0.00  0.00    +0.027 HD
BRANCH   6   9
ATOM      9  C   UNL     1       5.578  15.918  23.609  0.00  0.00    -0.017 C 
ATOM     10  H   UNL     1       5.742  15.016  23.012  0.00  0.00    +0.032 HD
BRANCH   9  11
ATOM     11  C   UNL     1       5.340  15.481  25.062  0.00  0.00    -0.060 C 
ATOM     12  H   UNL     1       4.460  14.834  25.121  0.00  0.00    +0.023 HD
ATOM     13  H   UNL     1       5.166  16.339  25.721  0.00  0.00    +0.023 HD
ATOM     14  H   UNL     1       6.181  14.914  25.467  0.00  0.00    +0.023 HD
ENDBRANCH   9  11
BRANCH   9  15
ATOM     15  C   UNL     1       6.805  16.867  23.474  0.00  0.00    +0.064 C 
ATOM     16  H   UNL     1       6.464  17.813  23.049  0.00  0.00    +0.060 HD
BRANCH  15  17
ATOM     17  C   UNL     1       7.954  16.295  22.613  0.00  0.00    +0.011 C 
ATOM     18  H   UNL     1       7.799  16.617  21.577  0.00  0.00    +0.033 HD
ATOM     19  H   UNL     1       7.865  15.206  22.543  0.00  0.00    +0.033 HD
BRANCH  17  20
ATOM     20  C   UNL     1       9.392  16.619  23.060  0.00  0.00    +0.108 C 
ATOM     21  H   UNL     1       9.424  17.457  23.764  0.00  0.00    +0.074 HD
BRANCH  20  22
ATOM     22  C   UNL     1      10.165  15.417  23.674  0.00  0.00    -0.009 C 
ATOM     23  H   UNL     1       9.444  14.617  23.892  0.00  0.00    +0.033 HD
BRANCH  22  24
ATOM     24  C   UNL     1      10.913  15.744  24.965  0.00  0.00    -0.059 C 
ATOM     25  H   UNL     1      11.278  14.839  25.456  0.00  0.00    +0.023 HD
ATOM     26  H   UNL     1      11.755  16.409  24.767  0.00  0.00    +0.023 HD
ATOM     27  H   UNL     1      10.259  16.265  25.671  0.00  0.00    +0.023 HD
ENDBRANCH  22  24
BRANCH  22  28
ATOM     28  C   UNL     1      11.154  14.841  22.647  0.00  0.00    -0.059 C 
ATOM     29  H   UNL     1      12.174  15.174  22.858  0.00  0.00    +0.023 HD
ATOM     30  H   UNL     1      11.143  13.748  22.669  0.00  0.00    +0.023 HD
ATOM     31  H   UNL     1      10.901  15.150  21.629  0.00  0.00    +0.023 HD
ENDBRANCH  22  28
ENDBRANCH  20  22
BRANCH  20  32
ATOM     32  O   UNL     1      10.134  16.977  21.861  0.00  0.00    -0.461 OA
BRANCH  32  33
ATOM     33  C   UNL     1      10.338  18.304  21.640  0.00  0.00    +0.307 C 
ATOM     34  O   UNL     1      10.370  18.848  20.546  0.00  0.00    -0.251 OA
BRANCH  33  35
ATOM     35  C   UNL     1      10.536  19.027  22.950  0.00  0.00    +0.042 C 
ATOM     36  H   UNL     1       9.870  18.580  23.694  0.00  0.00    +0.037 HD
ATOM     37  H   UNL     1      11.563  18.864  23.297  0.00  0.00    +0.037 HD
BRANCH  35  38
ATOM     38  C   UNL     1      10.234  20.506  22.813  0.00  0.00    -0.055 C 
ATOM     39  H   UNL     1       9.153  20.681  22.842  0.00  0.00    +0.023 HD
ATOM     40  H   UNL     1      10.688  21.085  23.623  0.00  0.00    +0.023 HD
ATOM     41  H   UNL     1      10.623  20.901  21.864  0.00  0.00    +0.023 HD
ENDBRANCH  35  38
ENDBRANCH  33  35
ENDBRANCH  32  33
ENDBRANCH  20  32
ENDBRANCH  17  20
ENDBRANCH  15  17
BRANCH  15  42
ATOM     42  O   UNL     1       7.279  17.129  24.810  0.00  0.00    -0.379 OA
BRANCH  42  43
ATOM     43  C   UNL     1       7.220  18.488  25.205  0.00  0.00    +0.037 C 
ATOM     44  H   UNL     1       8.241  18.885  25.213  0.00  0.00    +0.052 HD
ATOM     45  H   UNL     1       6.638  19.084  24.494  0.00  0.00    +0.052 HD
ATOM     46  H   UNL     1       6.805  18.582  26.214  0.00  0.00    +0.052 HD
ENDBRANCH  42  43
ENDBRANCH  15  42
ENDBRANCH   9  15
ENDBRANCH   6   9
ENDBRANCH   3   6
ENDBRANCH   1   3
BRANCH   1  47
ATOM     47  C   UNL     1       3.575  18.398  20.586  0.00  0.00    +0.020 C 
ATOM     48  H   UNL     1       3.422  18.619  21.653  0.00  0.00    +0.036 HD
BRANCH  47  49
ATOM     49  C   UNL     1       2.150  18.416  20.025  0.00  0.00    -0.057 C 
ATOM     50  H   UNL     1       1.815  19.421  19.760  0.00  0.00    +0.023 HD
ATOM     51  H   UNL     1       1.431  18.001  20.742  0.00  0.00    +0.023 HD
ATOM     52  H   UNL     1       2.088  17.804  19.117  0.00  0.00    +0.023 HD
ENDBRANCH  47  49
BRANCH  47  53
ATOM     53  C   UNL     1       4.487  19.564  20.098  0.00  0.00    +0.070 C 
ATOM     54  H   UNL     1       3.833  20.387  19.788  0.00  0.00    +0.061 HD
BRANCH  53  55
ATOM     55  C   UNL     1       5.494  20.181  21.113  0.00  0.00    +0.002 C 
ATOM     56  H   UNL     1       5.577  21.251  20.912  0.00  0.00    +0.037 HD
BRANCH  55  58
ATOM     57  C   UNL     1       4.406  20.818  23.288  0.00  0.00    -0.005 C 
ATOM     58  C   UNL     1       5.131  19.952  22.565  0.00  0.00    -0.065 C 
ATOM     59  H   UNL     1       4.058  21.739  22.820  0.00  0.00    +0.078 HD
ATOM     60  H   UNL     1       5.499  19.024  22.994  0.00  0.00    +0.059 HD
BRANCH  57  62
ATOM     61  C   UNL     1       4.728  21.360  25.603  0.00  0.00    +0.206 C 
ATOM     62  N   UNL     1       4.026  20.672  24.615  0.00  0.00    -0.281 N 
ATOM     63  O   UNL     1       5.696  22.092  25.437  0.00  0.00    -0.279 OA
ATOM     64  H   UNL     1       4.323  21.188  26.614  0.00  0.00    +0.126 HD
BRANCH  62  65
ATOM     65  C   UNL     1       2.893  19.845  25.021  0.00  0.00    +0.016 C 
ATOM     66  H   UNL     1       2.110  20.473  25.456  0.00  0.00    +0.047 HD
ATOM     67  H   UNL     1       2.453  19.388  24.125  0.00  0.00    +0.047 HD
BRANCH  65  68
ATOM     68  C   UNL     1       3.300  18.733  25.976  0.00  0.00    -0.049 C 
ATOM     69  H   UNL     1       2.412  18.247  26.393  0.00  0.00    +0.024 HD
ATOM     70  H   UNL     1       3.905  17.983  25.468  0.00  0.00    +0.024 HD
ATOM     71  H   UNL     1       3.887  19.123  26.816  0.00  0.00    +0.024 HD
ENDBRANCH  65  68
ENDBRANCH  62  65
ENDBRANCH  57  62
ENDBRANCH  55  58
BRANCH  55  72
ATOM     72  C   UNL     1       6.897  19.598  20.878  0.00  0.00    -0.057 C 
ATOM     73  H   UNL     1       7.648  20.379  20.724  0.00  0.00    +0.024 HD
ATOM     74  H   UNL     1       7.214  18.995  21.737  0.00  0.00    +0.024 HD
ATOM     75  H   UNL     1       6.909  18.947  19.997  0.00  0.00    +0.024 HD
ENDBRANCH  55  72
ENDBRANCH  53  55
BRANCH  53  76
ATOM     76  O   UNL     1       5.246  19.149  18.940  0.00  0.00    -0.379 OA
BRANCH  76  77
ATOM     77  C   UNL     1       4.864  19.804  17.736  0.00  0.00    +0.037 C 
ATOM     78  H   UNL     1       5.724  19.906  17.066  0.00  0.00    +0.052 HD
ATOM     79  H   UNL     1       4.111  19.188  17.240  0.00  0.00    +0.052 HD
ATOM     80  H   UNL     1       4.427  20.788  17.939  0.00  0.00    +0.052 HD
ENDBRANCH  76  77
ENDBRANCH  53  76
ENDBRANCH  47  53
ENDBRANCH   1  47
BRANCH   1  81
ATOM     81  O   UNL     1       3.833  16.274  19.368  0.00  0.00    -0.461 OA
BRANCH  81  82
ATOM     82  C   UNL     1       4.477  15.108  19.098  0.00  0.00    +0.310 C 
ATOM     83  O   UNL     1       5.693  14.973  19.080  0.00  0.00    -0.251 OA
BRANCH  82  84
ATOM     84  C   UNL     1       3.503  13.972  18.830  0.00  0.00    +0.051 C 
ATOM     85  H   UNL     1       3.762  13.571  17.840  0.00  0.00    +0.041 HD
BRANCH  84  86
ATOM     86  C   UNL     1       2.043  14.419  18.772  0.00  0.00    -0.053 C 
ATOM     87  H   UNL     1       1.419  13.869  19.488  0.00  0.00    +0.024 HD
ATOM     88  H   UNL     1       1.626  14.257  17.771  0.00  0.00    +0.024 HD
ATOM     89  H   UNL     1       1.953  15.485  19.005  0.00  0.00    +0.024 HD
ENDBRANCH  84  86
BRANCH  84  90
ATOM     90  C   UNL     1       3.698  12.881  19.880  0.00  0.00    -0.053 C 
ATOM     91  H   UNL     1       4.674  12.968  20.375  0.00  0.00    +0.024 HD
ATOM     92  H   UNL     1       3.651  11.887  19.420  0.00  0.00    +0.024 HD
ATOM     93  H   UNL     1       2.911  12.931  20.643  0.00  0.00    +0.024 HD
ENDBRANCH  84  90
ENDBRANCH  82  84
ENDBRANCH  81  82
ENDBRANCH   1  81
TORSDOF 32
ENDMDL
MODEL 7
REMARK VINA RESULT:      -4.6      2.170      4.932
REMARK  Name = 2c_conf2
REMARK  32 active torsions:
REMARK  status: ('A' for Active; 'I' for Inactive)
REMARK    1  A    between atoms: N_2  and  C_3
REMARK    2  A    between atoms: N_2  and  C_5
REMARK    3  A    between atoms: C_3  and  C_4
REMARK    4  A    between atoms: C_6  and  C_7
REMARK    5  A    between atoms: C_7  and  C_8
REMARK    6  A    between atoms: C_7  and  C_9
REMARK    7  A    between atoms: C_9  and  O_10
REMARK    8  A    between atoms: C_9  and  C_12
REMARK    9  A    between atoms: O_10  and  C_11
REMARK   10  A    between atoms: C_12  and  C_13
REMARK   11  A    between atoms: C_12  and  C_14
REMARK   12  A    between atoms: C_14  and  O_15
REMARK   13  A    between atoms: C_14  and  C_21
REMARK   14  A    between atoms: O_15  and  C_16
REMARK   15  A    between atoms: C_16  and  C_17
REMARK   16  A    between atoms: C_17  and  C_18
REMARK   17  A    between atoms: C_17  and  C_19
REMARK   18  A    between atoms: C_21  and  C_22
REMARK   19  A    between atoms: C_22  and  C_23
REMARK   20  A    between atoms: C_23  and  C_24
REMARK   21  A    between atoms: C_23  and  C_25
REMARK   22  A    between atoms: C_25  and  O_26
REMARK   23  A    between atoms: C_25  and  C_28
REMARK   24  A    between atoms: O_26  and  C_27
REMARK   25  A    between atoms: C_28  and  C_29
REMARK   26  A    between atoms: C_29  and  O_30
REMARK   27  A    between atoms: C_29  and  C_35
REMARK   28  A    between atoms: O_30  and  C_31
REMARK   29  A    between atoms: C_31  and  C_32
REMARK   30  A    between atoms: C_32  and  C_33
REMARK   31  A    between atoms: C_35  and  C_36
REMARK   32  A    between atoms: C_35  and  C_37
REMARK                            x       y       z     vdW  Elec       q    Type
REMARK                         _______ _______ _______ _____ _____    ______ ____
ROOT
ATOM      1  C   UNL     1       8.537  19.348  23.293  0.00  0.00    +0.108 C 
ATOM      2  H   UNL     1       8.504  18.256  23.425  0.00  0.00    +0.074 HD
ENDROOT
BRANCH   1   3
ATOM      3  C   UNL     1       7.428  19.721  22.295  0.00  0.00    -0.015 C 
ATOM      4  H   UNL     1       7.874  20.074  21.364  0.00  0.00    +0.030 HD
ATOM      5  H   UNL     1       6.784  20.519  22.677  0.00  0.00    +0.030 HD
BRANCH   3   6
ATOM      6  C   UNL     1       6.532  18.506  21.987  0.00  0.00    -0.045 C 
ATOM      7  H   UNL     1       6.714  18.139  20.968  0.00  0.00    +0.027 HD
ATOM      8  H   UNL     1       6.834  17.697  22.666  0.00  0.00    +0.027 HD
BRANCH   6   9
ATOM      9  C   UNL     1       5.022  18.807  22.179  0.00  0.00    -0.017 C 
ATOM     10  H   UNL     1       4.787  19.718  21.622  0.00  0.00    +0.032 HD
BRANCH   9  11
ATOM     11  C   UNL     1       4.768  19.088  23.668  0.00  0.00    -0.060 C 
ATOM     12  H   UNL     1       3.999  19.859  23.779  0.00  0.00    +0.023 HD
ATOM     13  H   UNL     1       5.671  19.445  24.174  0.00  0.00    +0.023 HD
ATOM     14  H   UNL     1       4.412  18.204  24.201  0.00  0.00    +0.023 HD
ENDBRANCH   9  11
BRANCH   9  15
ATOM     15  C   UNL     1       4.154  17.628  21.648  0.00  0.00    +0.064 C 
ATOM     16  H   UNL     1       3.551  17.245  22.473  0.00  0.00    +0.060 HD
BRANCH  15  17
ATOM     17  C   UNL     1       4.970  16.474  21.022  0.00  0.00    +0.011 C 
ATOM     18  H   UNL     1       6.005  16.813  20.899  0.00  0.00    +0.033 HD
ATOM     19  H   UNL     1       4.648  16.303  19.989  0.00  0.00    +0.033 HD
BRANCH  17  20
ATOM     20  C   UNL     1       4.938  15.118  21.751  0.00  0.00    +0.108 C 
ATOM     21  H   UNL     1       5.936  14.798  22.067  0.00  0.00    +0.074 HD
BRANCH  20  22
ATOM     22  C   UNL     1       3.982  15.065  22.977  0.00  0.00    -0.009 C 
ATOM     23  H   UNL     1       3.340  15.956  22.954  0.00  0.00    +0.033 HD
BRANCH  22  24
ATOM     24  C   UNL     1       4.693  15.028  24.328  0.00  0.00    -0.059 C 
ATOM     25  H   UNL     1       5.587  15.656  24.327  0.00  0.00    +0.023 HD
ATOM     26  H   UNL     1       4.025  15.355  25.127  0.00  0.00    +0.023 HD
ATOM     27  H   UNL     1       5.004  14.008  24.576  0.00  0.00    +0.023 HD
ENDBRANCH  22  24
BRANCH  22  28
ATOM     28  C   UNL     1       3.043  13.853  22.866  0.00  0.00    -0.059 C 
ATOM     29  H   UNL     1       2.116  14.123  22.351  0.00  0.00    +0.023 HD
ATOM     30  H   UNL     1       3.518  13.044  22.305  0.00  0.00    +0.023 HD
ATOM     31  H   UNL     1       2.779  13.456  23.849  0.00  0.00    +0.023 HD
ENDBRANCH  22  28
ENDBRANCH  20  22
BRANCH  20  32
ATOM     32  O   UNL     1       4.403  14.147  20.809  0.00  0.00    -0.461 OA
BRANCH  32  33
ATOM     33  C   UNL     1       4.882  14.200  19.536  0.00  0.00    +0.307 C 
ATOM     34  O   UNL     1       6.063  14.199  19.219  0.00  0.00    -0.251 OA
BRANCH  33  35
ATOM     35  C   UNL     1       3.742  14.277  18.551  0.00  0.00    +0.042 C 
ATOM     36  H   UNL     1       3.573  15.328  18.299  0.00  0.00    +0.037 HD
ATOM     37  H   UNL     1       4.034  13.766  17.626  0.00  0.00    +0.037 HD
BRANCH  35  38
ATOM     38  C   UNL     1       2.475  13.678  19.130  0.00  0.00    -0.055 C 
ATOM     39  H   UNL     1       1.698  14.443  19.226  0.00  0.00    +0.023 HD
ATOM     40  H   UNL     1       2.081  12.880  18.491  0.00  0.00    +0.023 HD
ATOM     41  H   UNL     1       2.662  13.246  20.123  0.00  0.00    +0.023 HD
ENDBRANCH  35  38
ENDBRANCH  33  35
ENDBRANCH  32  33
ENDBRANCH  20  32
ENDBRANCH  17  20
ENDBRANCH  15  17
BRANCH  15  42
ATOM     42  O   UNL     1       3.256  18.181  20.665  0.00  0.00    -0.379 OA
BRANCH  42  43
ATOM     43  C   UNL     1       2.273  17.280  20.186  0.00  0.00    +0.037 C 
ATOM     44  H   UNL     1       1.345  17.463  20.737  0.00  0.00    +0.052 HD
ATOM     45  H   UNL     1       2.066  17.444  19.124  0.00  0.00    +0.052 HD
ATOM     46  H   UNL     1       2.579  16.243  20.361  0.00  0.00    +0.052 HD
ENDBRANCH  42  43
ENDBRANCH  15  42
ENDBRANCH   9  15
ENDBRANCH   6   9
ENDBRANCH   3   6
ENDBRANCH   1   3
BRANCH   1  47
ATOM     47  C   UNL     1       8.452  19.986  24.707  0.00  0.00    +0.020 C 
ATOM     48  H   UNL     1       7.527  20.580  24.680  0.00  0.00    +0.036 HD
BRANCH  47  49
ATOM     49  C   UNL     1       9.534  21.045  24.938  0.00  0.00    -0.057 C 
ATOM     50  H   UNL     1      10.190  21.172  24.075  0.00  0.00    +0.023 HD
ATOM     51  H   UNL     1      10.162  20.794  25.802  0.00  0.00    +0.023 HD
ATOM     52  H   UNL     1       9.077  22.020  25.145  0.00  0.00    +0.023 HD
ENDBRANCH  47  49
BRANCH  47  53
ATOM     53  C   UNL     1       8.224  19.010  25.902  0.00  0.00    +0.070 C 
ATOM     54  H   UNL     1       7.528  19.495  26.595  0.00  0.00    +0.061 HD
BRANCH  53  55
ATOM     55  C   UNL     1       7.614  17.610  25.598  0.00  0.00    +0.002 C 
ATOM     56  H   UNL     1       7.189  17.628  24.592  0.00  0.00    +0.037 HD
BRANCH  55  58
ATOM     57  C   UNL     1       8.649  15.441  24.860  0.00  0.00    -0.005 C 
ATOM     58  C   UNL     1       8.595  16.464  25.725  0.00  0.00    -0.065 C 
ATOM     59  H   UNL     1       7.954  15.420  24.021  0.00  0.00    +0.078 HD
ATOM     60  H   UNL     1       9.268  16.522  26.577  0.00  0.00    +0.059 HD
BRANCH  57  62
ATOM     61  C   UNL     1       9.108  13.173  25.497  0.00  0.00    +0.206 C 
ATOM     62  N   UNL     1       9.524  14.365  24.906  0.00  0.00    -0.281 N 
ATOM     63  O   UNL     1       8.022  12.959  26.024  0.00  0.00    -0.279 OA
ATOM     64  H   UNL     1       9.875  12.383  25.453  0.00  0.00    +0.126 HD
BRANCH  62  65
ATOM     65  C   UNL     1      10.865  14.418  24.329  0.00  0.00    +0.016 C 
ATOM     66  H   UNL     1      11.185  15.459  24.227  0.00  0.00    +0.047 HD
ATOM     67  H   UNL     1      11.568  13.950  25.031  0.00  0.00    +0.047 HD
BRANCH  65  68
ATOM     68  C   UNL     1      10.953  13.684  22.999  0.00  0.00    -0.049 C 
ATOM     69  H   UNL     1      10.158  12.935  22.927  0.00  0.00    +0.024 HD
ATOM     70  H   UNL     1      10.859  14.377  22.163  0.00  0.00    +0.024 HD
ATOM     71  H   UNL     1      11.909  13.160  22.894  0.00  0.00    +0.024 HD
ENDBRANCH  65  68
ENDBRANCH  62  65
ENDBRANCH  57  62
ENDBRANCH  55  58
BRANCH  55  72
ATOM     72  C   UNL     1       6.437  17.335  26.548  0.00  0.00    -0.057 C 
ATOM     73  H   UNL     1       6.016  18.257  26.962  0.00  0.00    +0.024 HD
ATOM     74  H   UNL     1       5.633  16.806  26.024  0.00  0.00    +0.024 HD
ATOM     75  H   UNL     1       6.751  16.706  27.389  0.00  0.00    +0.024 HD
ENDBRANCH  55  72
ENDBRANCH  53  55
BRANCH  53  76
ATOM     76  O   UNL     1       9.465  18.793  26.609  0.00  0.00    -0.379 OA
BRANCH  76  77
ATOM     77  C   UNL     1       9.409  19.133  27.989  0.00  0.00    +0.037 C 
ATOM     78  H   UNL     1      10.397  19.438  28.350  0.00  0.00    +0.052 HD
ATOM     79  H   UNL     1       8.726  19.978  28.101  0.00  0.00    +0.052 HD
ATOM     80  H   UNL     1       9.030  18.300  28.591  0.00  0.00    +0.052 HD
ENDBRANCH  76  77
ENDBRANCH  53  76
ENDBRANCH  47  53
ENDBRANCH   1  47
BRANCH   1  81
ATOM     81  O   UNL     1       9.781  19.710  22.653  0.00  0.00    -0.461 OA
BRANCH  81  82
ATOM     82  C   UNL     1      10.345  18.801  21.815  0.00  0.00    +0.310 C 
ATOM     83  O   UNL     1      10.352  18.891  20.595  0.00  0.00    -0.251 OA
BRANCH  82  84
ATOM     84  C   UNL     1      10.987  17.652  22.575  0.00  0.00    +0.051 C 
ATOM     85  H   UNL     1      10.186  16.925  22.771  0.00  0.00    +0.041 HD
BRANCH  84  86
ATOM     86  C   UNL     1      11.570  18.062  23.927  0.00  0.00    -0.053 C 
ATOM     87  H   UNL     1      12.662  18.165  23.888  0.00  0.00    +0.024 HD
ATOM     88  H   UNL     1      11.331  17.317  24.695  0.00  0.00    +0.024 HD
ATOM     89  H   UNL     1      11.157  19.023  24.252  0.00  0.00    +0.024 HD
ENDBRANCH  84  86
BRANCH  84  90
ATOM     90  C   UNL     1      12.054  17.000  21.698  0.00  0.00    -0.053 C 
ATOM     91  H   UNL     1      11.610  16.298  20.980  0.00  0.00    +0.024 HD
ATOM     92  H   UNL     1      12.768  16.436  22.310  0.00  0.00    +0.024 HD
ATOM     93  H   UNL     1      12.620  17.760  21.144  0.00  0.00    +0.024 HD
ENDBRANCH  84  90
ENDBRANCH  82  84
ENDBRANCH  81  82
ENDBRANCH   1  81
TORSDOF 32
ENDMDL
MODEL 8
REMARK VINA RESULT:      -4.6      7.683     13.303
REMARK  Name = 2c_conf2
REMARK  32 active torsions:
REMARK  status: ('A' for Active; 'I' for Inactive)
REMARK    1  A    between atoms: N_2  and  C_3
REMARK    2  A    between atoms: N_2  and  C_5
REMARK    3  A    between atoms: C_3  and  C_4
REMARK    4  A    between atoms: C_6  and  C_7
REMARK    5  A    between atoms: C_7  and  C_8
REMARK    6  A    between atoms: C_7  and  C_9
REMARK    7  A    between atoms: C_9  and  O_10
REMARK    8  A    between atoms: C_9  and  C_12
REMARK    9  A    between atoms: O_10  and  C_11
REMARK   10  A    between atoms: C_12  and  C_13
REMARK   11  A    between atoms: C_12  and  C_14
REMARK   12  A    between atoms: C_14  and  O_15
REMARK   13  A    between atoms: C_14  and  C_21
REMARK   14  A    between atoms: O_15  and  C_16
REMARK   15  A    between atoms: C_16  and  C_17
REMARK   16  A    between atoms: C_17  and  C_18
REMARK   17  A    between atoms: C_17  and  C_19
REMARK   18  A    between atoms: C_21  and  C_22
REMARK   19  A    between atoms: C_22  and  C_23
REMARK   20  A    between atoms: C_23  and  C_24
REMARK   21  A    between atoms: C_23  and  C_25
REMARK   22  A    between atoms: C_25  and  O_26
REMARK   23  A    between atoms: C_25  and  C_28
REMARK   24  A    between atoms: O_26  and  C_27
REMARK   25  A    between atoms: C_28  and  C_29
REMARK   26  A    between atoms: C_29  and  O_30
REMARK   27  A    between atoms: C_29  and  C_35
REMARK   28  A    between atoms: O_30  and  C_31
REMARK   29  A    between atoms: C_31  and  C_32
REMARK   30  A    between atoms: C_32  and  C_33
REMARK   31  A    between atoms: C_35  and  C_36
REMARK   32  A    between atoms: C_35  and  C_37
REMARK                            x       y       z     vdW  Elec       q    Type
REMARK                         _______ _______ _______ _____ _____    ______ ____
ROOT
ATOM      1  C   UNL     1      -4.026  15.251  18.424  0.00  0.00    +0.108 C 
ATOM      2  H   UNL     1      -3.902  14.605  19.306  0.00  0.00    +0.074 HD
ENDROOT
BRANCH   1   3
ATOM      3  C   UNL     1      -2.621  15.561  17.882  0.00  0.00    -0.015 C 
ATOM      4  H   UNL     1      -2.294  16.537  18.243  0.00  0.00    +0.030 HD
ATOM      5  H   UNL     1      -2.600  15.588  16.788  0.00  0.00    +0.030 HD
BRANCH   3   6
ATOM      6  C   UNL     1      -1.606  14.496  18.340  0.00  0.00    -0.045 C 
ATOM      7  H   UNL     1      -2.121  13.569  18.627  0.00  0.00    +0.027 HD
ATOM      8  H   UNL     1      -0.980  14.247  17.473  0.00  0.00    +0.027 HD
BRANCH   6   9
ATOM      9  C   UNL     1      -0.707  14.984  19.506  0.00  0.00    -0.017 C 
ATOM     10  H   UNL     1      -1.177  14.676  20.445  0.00  0.00    +0.032 HD
BRANCH   9  11
ATOM     11  C   UNL     1      -0.669  16.519  19.482  0.00  0.00    -0.060 C 
ATOM     12  H   UNL     1       0.251  16.865  18.999  0.00  0.00    +0.023 HD
ATOM     13  H   UNL     1      -0.692  16.943  20.491  0.00  0.00    +0.023 HD
ATOM     14  H   UNL     1      -1.503  16.945  18.920  0.00  0.00    +0.023 HD
ENDBRANCH   9  11
BRANCH   9  15
ATOM     15  C   UNL     1       0.716  14.359  19.403  0.00  0.00    +0.064 C 
ATOM     16  H   UNL     1       0.838  13.644  20.218  0.00  0.00    +0.060 HD
BRANCH  15  17
ATOM     17  C   UNL     1       1.864  15.394  19.443  0.00  0.00    +0.011 C 
ATOM     18  H   UNL     1       1.425  16.396  19.393  0.00  0.00    +0.033 HD
ATOM     19  H   UNL     1       2.450  15.341  18.519  0.00  0.00    +0.033 HD
BRANCH  17  20
ATOM     20  C   UNL     1       2.847  15.303  20.625  0.00  0.00    +0.108 C 
ATOM     21  H   UNL     1       2.650  16.067  21.383  0.00  0.00    +0.074 HD
BRANCH  20  22
ATOM     22  C   UNL     1       2.901  13.911  21.317  0.00  0.00    -0.009 C 
ATOM     23  H   UNL     1       1.929  13.417  21.177  0.00  0.00    +0.033 HD
BRANCH  22  24
ATOM     24  C   UNL     1       3.193  13.965  22.815  0.00  0.00    -0.059 C 
ATOM     25  H   UNL     1       3.395  14.985  23.147  0.00  0.00    +0.023 HD
ATOM     26  H   UNL     1       2.356  13.560  23.387  0.00  0.00    +0.023 HD
ATOM     27  H   UNL     1       4.068  13.355  23.062  0.00  0.00    +0.023 HD
ENDBRANCH  22  24
BRANCH  22  28
ATOM     28  C   UNL     1       3.944  13.015  20.629  0.00  0.00    -0.059 C 
ATOM     29  H   UNL     1       4.957  13.286  20.940  0.00  0.00    +0.023 HD
ATOM     30  H   UNL     1       3.780  11.965  20.882  0.00  0.00    +0.023 HD
ATOM     31  H   UNL     1       3.891  13.100  19.540  0.00  0.00    +0.023 HD
ENDBRANCH  22  28
ENDBRANCH  20  22
BRANCH  20  32
ATOM     32  O   UNL     1       4.181  15.508  20.078  0.00  0.00    -0.461 OA
BRANCH  32  33
ATOM     33  C   UNL     1       4.653  16.784  20.079  0.00  0.00    +0.307 C 
ATOM     34  O   UNL     1       4.712  17.523  19.106  0.00  0.00    -0.251 OA
BRANCH  33  35
ATOM     35  C   UNL     1       5.115  17.169  21.463  0.00  0.00    +0.042 C 
ATOM     36  H   UNL     1       5.545  18.174  21.416  0.00  0.00    +0.037 HD
ATOM     37  H   UNL     1       4.246  17.220  22.129  0.00  0.00    +0.037 HD
BRANCH  35  38
ATOM     38  C   UNL     1       6.150  16.193  21.987  0.00  0.00    -0.055 C 
ATOM     39  H   UNL     1       5.976  15.192  21.579  0.00  0.00    +0.023 HD
ATOM     40  H   UNL     1       7.165  16.496  21.708  0.00  0.00    +0.023 HD
ATOM     41  H   UNL     1       6.113  16.131  23.084  0.00  0.00    +0.023 HD
ENDBRANCH  35  38
ENDBRANCH  33  35
ENDBRANCH  32  33
ENDBRANCH  20  32
ENDBRANCH  17  20
ENDBRANCH  15  17
BRANCH  15  42
ATOM     42  O   UNL     1       0.761  13.626  18.162  0.00  0.00    -0.379 OA
BRANCH  42  43
ATOM     43  C   UNL     1       1.652  12.525  18.157  0.00  0.00    +0.037 C 
ATOM     44  H   UNL     1       2.365  12.659  18.978  0.00  0.00    +0.052 HD
ATOM     45  H   UNL     1       1.122  11.583  18.328  0.00  0.00    +0.052 HD
ATOM     46  H   UNL     1       2.213  12.484  17.217  0.00  0.00    +0.052 HD
ENDBRANCH  42  43
ENDBRANCH  15  42
ENDBRANCH   9  15
ENDBRANCH   6   9
ENDBRANCH   3   6
ENDBRANCH   1   3
BRANCH   1  47
ATOM     47  C   UNL     1      -5.008  14.530  17.460  0.00  0.00    +0.020 C 
ATOM     48  H   UNL     1      -4.446  13.650  17.112  0.00  0.00    +0.036 HD
BRANCH  47  49
ATOM     49  C   UNL     1      -5.246  15.318  16.168  0.00  0.00    -0.057 C 
ATOM     50  H   UNL     1      -4.604  16.197  16.088  0.00  0.00    +0.023 HD
ATOM     51  H   UNL     1      -6.287  15.655  16.090  0.00  0.00    +0.023 HD
ATOM     52  H   UNL     1      -5.045  14.689  15.293  0.00  0.00    +0.023 HD
ENDBRANCH  47  49
BRANCH  47  53
ATOM     53  C   UNL     1      -6.291  13.916  18.098  0.00  0.00    +0.070 C 
ATOM     54  H   UNL     1      -6.941  13.587  17.279  0.00  0.00    +0.061 HD
BRANCH  53  55
ATOM     55  C   UNL     1      -6.125  12.680  19.031  0.00  0.00    +0.002 C 
ATOM     56  H   UNL     1      -6.727  12.840  19.928  0.00  0.00    +0.037 HD
BRANCH  55  58
ATOM     57  C   UNL     1      -5.754  10.250  18.505  0.00  0.00    -0.005 C 
ATOM     58  C   UNL     1      -6.495  11.361  18.387  0.00  0.00    -0.065 C 
ATOM     59  H   UNL     1      -4.833  10.287  19.087  0.00  0.00    +0.078 HD
ATOM     60  H   UNL     1      -7.419  11.368  17.813  0.00  0.00    +0.059 HD
BRANCH  57  62
ATOM     61  C   UNL     1      -6.576   8.011  18.764  0.00  0.00    +0.206 C 
ATOM     62  N   UNL     1      -6.034   9.007  17.954  0.00  0.00    -0.281 N 
ATOM     63  O   UNL     1      -6.827   8.097  19.960  0.00  0.00    -0.279 OA
ATOM     64  H   UNL     1      -6.779   7.077  18.215  0.00  0.00    +0.126 HD
BRANCH  62  65
ATOM     65  C   UNL     1      -5.809   8.704  16.543  0.00  0.00    +0.016 C 
ATOM     66  H   UNL     1      -5.624   7.634  16.417  0.00  0.00    +0.047 HD
ATOM     67  H   UNL     1      -6.730   8.922  15.986  0.00  0.00    +0.047 HD
BRANCH  65  68
ATOM     68  C   UNL     1      -4.680   9.531  15.946  0.00  0.00    -0.049 C 
ATOM     69  H   UNL     1      -5.086  10.331  15.319  0.00  0.00    +0.024 HD
ATOM     70  H   UNL     1      -4.065   9.977  16.729  0.00  0.00    +0.024 HD
ATOM     71  H   UNL     1      -4.026   8.918  15.315  0.00  0.00    +0.024 HD
ENDBRANCH  65  68
ENDBRANCH  62  65
ENDBRANCH  57  62
ENDBRANCH  55  58
BRANCH  55  72
ATOM     72  C   UNL     1      -4.669  12.580  19.512  0.00  0.00    -0.057 C 
ATOM     73  H   UNL     1      -4.562  12.859  20.566  0.00  0.00    +0.024 HD
ATOM     74  H   UNL     1      -4.293  11.557  19.398  0.00  0.00    +0.024 HD
ATOM     75  H   UNL     1      -4.016  13.237  18.926  0.00  0.00    +0.024 HD
ENDBRANCH  55  72
ENDBRANCH  53  55
BRANCH  53  76
ATOM     76  O   UNL     1      -7.006  14.925  18.846  0.00  0.00    -0.379 OA
BRANCH  76  77
ATOM     77  C   UNL     1      -8.399  14.973  18.561  0.00  0.00    +0.037 C 
ATOM     78  H   UNL     1      -8.812  13.961  18.496  0.00  0.00    +0.052 HD
ATOM     79  H   UNL     1      -8.894  15.496  19.382  0.00  0.00    +0.052 HD
ATOM     80  H   UNL     1      -8.597  15.520  17.633  0.00  0.00    +0.052 HD
ENDBRANCH  76  77
ENDBRANCH  53  76
ENDBRANCH  47  53
ENDBRANCH   1  47
BRANCH   1  81
ATOM     81  O   UNL     1      -4.576  16.520  18.843  0.00  0.00    -0.461 OA
BRANCH  81  82
ATOM     82  C   UNL     1      -4.295  16.942  20.104  0.00  0.00    +0.310 C 
ATOM     83  O   UNL     1      -3.746  18.000  20.377  0.00  0.00    -0.251 OA
BRANCH  82  84
ATOM     84  C   UNL     1      -4.761  15.944  21.151  0.00  0.00    +0.051 C 
ATOM     85  H   UNL     1      -5.368  15.198  20.619  0.00  0.00    +0.041 HD
BRANCH  84  86
ATOM     86  C   UNL     1      -5.645  16.560  22.235  0.00  0.00    -0.053 C 
ATOM     87  H   UNL     1      -5.321  16.269  23.242  0.00  0.00    +0.024 HD
ATOM     88  H   UNL     1      -6.687  16.243  22.113  0.00  0.00    +0.024 HD
ATOM     89  H   UNL     1      -5.619  17.654  22.182  0.00  0.00    +0.024 HD
ENDBRANCH  84  86
BRANCH  84  90
ATOM     90  C   UNL     1      -3.545  15.255  21.768  0.00  0.00    -0.053 C 
ATOM     91  H   UNL     1      -3.841  14.532  22.539  0.00  0.00    +0.024 HD
ATOM     92  H   UNL     1      -2.883  15.988  22.243  0.00  0.00    +0.024 HD
ATOM     93  H   UNL     1      -2.964  14.731  20.998  0.00  0.00    +0.024 HD
ENDBRANCH  84  90
ENDBRANCH  82  84
ENDBRANCH  81  82
ENDBRANCH   1  81
TORSDOF 32
ENDMDL
MODEL 9
REMARK VINA RESULT:      -4.6      2.824      7.766
REMARK  Name = 2c_conf2
REMARK  32 active torsions:
REMARK  status: ('A' for Active; 'I' for Inactive)
REMARK    1  A    between atoms: N_2  and  C_3
REMARK    2  A    between atoms: N_2  and  C_5
REMARK    3  A    between atoms: C_3  and  C_4
REMARK    4  A    between atoms: C_6  and  C_7
REMARK    5  A    between atoms: C_7  and  C_8
REMARK    6  A    between atoms: C_7  and  C_9
REMARK    7  A    between atoms: C_9  and  O_10
REMARK    8  A    between atoms: C_9  and  C_12
REMARK    9  A    between atoms: O_10  and  C_11
REMARK   10  A    between atoms: C_12  and  C_13
REMARK   11  A    between atoms: C_12  and  C_14
REMARK   12  A    between atoms: C_14  and  O_15
REMARK   13  A    between atoms: C_14  and  C_21
REMARK   14  A    between atoms: O_15  and  C_16
REMARK   15  A    between atoms: C_16  and  C_17
REMARK   16  A    between atoms: C_17  and  C_18
REMARK   17  A    between atoms: C_17  and  C_19
REMARK   18  A    between atoms: C_21  and  C_22
REMARK   19  A    between atoms: C_22  and  C_23
REMARK   20  A    between atoms: C_23  and  C_24
REMARK   21  A    between atoms: C_23  and  C_25
REMARK   22  A    between atoms: C_25  and  O_26
REMARK   23  A    between atoms: C_25  and  C_28
REMARK   24  A    between atoms: O_26  and  C_27
REMARK   25  A    between atoms: C_28  and  C_29
REMARK   26  A    between atoms: C_29  and  O_30
REMARK   27  A    between atoms: C_29  and  C_35
REMARK   28  A    between atoms: O_30  and  C_31
REMARK   29  A    between atoms: C_31  and  C_32
REMARK   30  A    between atoms: C_32  and  C_33
REMARK   31  A    between atoms: C_35  and  C_36
REMARK   32  A    between atoms: C_35  and  C_37
REMARK                            x       y       z     vdW  Elec       q    Type
REMARK                         _______ _______ _______ _____ _____    ______ ____
ROOT
ATOM      1  C   UNL     1       4.996  16.624  21.233  0.00  0.00    +0.108 C 
ATOM      2  H   UNL     1       5.272  16.346  20.205  0.00  0.00    +0.074 HD
ENDROOT
BRANCH   1   3
ATOM      3  C   UNL     1       6.026  15.977  22.174  0.00  0.00    -0.015 C 
ATOM      4  H   UNL     1       6.811  16.697  22.411  0.00  0.00    +0.030 HD
ATOM      5  H   UNL     1       6.504  15.103  21.720  0.00  0.00    +0.030 HD
BRANCH   3   6
ATOM      6  C   UNL     1       5.362  15.516  23.485  0.00  0.00    -0.045 C 
ATOM      7  H   UNL     1       4.305  15.815  23.510  0.00  0.00    +0.027 HD
ATOM      8  H   UNL     1       5.372  14.417  23.488  0.00  0.00    +0.027 HD
BRANCH   6   9
ATOM      9  C   UNL     1       6.091  16.044  24.748  0.00  0.00    -0.017 C 
ATOM     10  H   UNL     1       6.514  15.185  25.277  0.00  0.00    +0.032 HD
BRANCH   9  11
ATOM     11  C   UNL     1       5.052  16.698  25.672  0.00  0.00    -0.060 C 
ATOM     12  H   UNL     1       4.087  16.769  25.161  0.00  0.00    +0.023 HD
ATOM     13  H   UNL     1       5.347  17.711  25.965  0.00  0.00    +0.023 HD
ATOM     14  H   UNL     1       4.887  16.120  26.584  0.00  0.00    +0.023 HD
ENDBRANCH   9  11
BRANCH   9  15
ATOM     15  C   UNL     1       7.230  17.031  24.355  0.00  0.00    +0.064 C 
ATOM     16  H   UNL     1       7.255  17.112  23.266  0.00  0.00    +0.060 HD
BRANCH  15  17
ATOM     17  C   UNL     1       8.626  16.625  24.879  0.00  0.00    +0.011 C 
ATOM     18  H   UNL     1       8.494  15.857  25.649  0.00  0.00    +0.033 HD
ATOM     19  H   UNL     1       9.074  17.453  25.438  0.00  0.00    +0.033 HD
BRANCH  17  20
ATOM     20  C   UNL     1       9.656  16.157  23.833  0.00  0.00    +0.108 C 
ATOM     21  H   UNL     1       9.242  15.403  23.156  0.00  0.00    +0.074 HD
BRANCH  20  22
ATOM     22  C   UNL     1      10.285  17.300  22.986  0.00  0.00    -0.009 C 
ATOM     23  H   UNL     1       9.472  17.919  22.582  0.00  0.00    +0.033 HD
BRANCH  22  24
ATOM     24  C   UNL     1      11.140  16.819  21.816  0.00  0.00    -0.059 C 
ATOM     25  H   UNL     1      12.200  16.799  22.076  0.00  0.00    +0.023 HD
ATOM     26  H   UNL     1      10.830  15.823  21.494  0.00  0.00    +0.023 HD
ATOM     27  H   UNL     1      11.022  17.480  20.951  0.00  0.00    +0.023 HD
ENDBRANCH  22  24
BRANCH  22  28
ATOM     28  C   UNL     1      11.126  18.224  23.883  0.00  0.00    -0.059 C 
ATOM     29  H   UNL     1      11.582  19.028  23.296  0.00  0.00    +0.023 HD
ATOM     30  H   UNL     1      10.507  18.680  24.659  0.00  0.00    +0.023 HD
ATOM     31  H   UNL     1      11.928  17.676  24.385  0.00  0.00    +0.023 HD
ENDBRANCH  22  28
ENDBRANCH  20  22
BRANCH  20  32
ATOM     32  O   UNL     1      10.768  15.574  24.571  0.00  0.00    -0.461 OA
BRANCH  32  33
ATOM     33  C   UNL     1      10.940  14.229  24.455  0.00  0.00    +0.307 C 
ATOM     34  O   UNL     1      11.400  13.650  23.482  0.00  0.00    -0.251 OA
BRANCH  33  35
ATOM     35  C   UNL     1      10.466  13.532  25.707  0.00  0.00    +0.042 C 
ATOM     36  H   UNL     1      11.173  12.732  25.946  0.00  0.00    +0.037 HD
ATOM     37  H   UNL     1      10.488  14.243  26.542  0.00  0.00    +0.037 HD
BRANCH  35  38
ATOM     38  C   UNL     1       9.078  12.952  25.520  0.00  0.00    -0.055 C 
ATOM     39  H   UNL     1       8.588  13.401  24.650  0.00  0.00    +0.023 HD
ATOM     40  H   UNL     1       9.115  11.868  25.361  0.00  0.00    +0.023 HD
ATOM     41  H   UNL     1       8.452  13.135  26.405  0.00  0.00    +0.023 HD
ENDBRANCH  35  38
ENDBRANCH  33  35
ENDBRANCH  32  33
ENDBRANCH  20  32
ENDBRANCH  17  20
ENDBRANCH  15  17
BRANCH  15  42
ATOM     42  O   UNL     1       6.866  18.322  24.885  0.00  0.00    -0.379 OA
BRANCH  42  43
ATOM     43  C   UNL     1       7.480  19.422  24.239  0.00  0.00    +0.037 C 
ATOM     44  H   UNL     1       8.351  19.723  24.832  0.00  0.00    +0.052 HD
ATOM     45  H   UNL     1       7.837  19.150  23.241  0.00  0.00    +0.052 HD
ATOM     46  H   UNL     1       6.793  20.273  24.181  0.00  0.00    +0.052 HD
ENDBRANCH  42  43
ENDBRANCH  15  42
ENDBRANCH   9  15
ENDBRANCH   6   9
ENDBRANCH   3   6
ENDBRANCH   1   3
BRANCH   1  47
ATOM     47  C   UNL     1       4.881  18.173  21.276  0.00  0.00    +0.020 C 
ATOM     48  H   UNL     1       5.870  18.506  21.624  0.00  0.00    +0.036 HD
BRANCH  47  49
ATOM     49  C   UNL     1       3.944  18.660  22.385  0.00  0.00    -0.057 C 
ATOM     50  H   UNL     1       2.915  18.781  22.044  0.00  0.00    +0.023 HD
ATOM     51  H   UNL     1       4.276  19.621  22.796  0.00  0.00    +0.023 HD
ATOM     52  H   UNL     1       3.929  17.944  23.216  0.00  0.00    +0.023 HD
ENDBRANCH  47  49
BRANCH  47  53
ATOM     53  C   UNL     1       4.710  18.900  19.907  0.00  0.00    +0.070 C 
ATOM     54  H   UNL     1       4.463  18.138  19.158  0.00  0.00    +0.061 HD
BRANCH  53  55
ATOM     55  C   UNL     1       3.601  19.986  19.789  0.00  0.00    +0.002 C 
ATOM     56  H   UNL     1       3.555  20.539  20.729  0.00  0.00    +0.037 HD
BRANCH  55  58
ATOM     57  C   UNL     1       3.499  20.633  17.362  0.00  0.00    -0.005 C 
ATOM     58  C   UNL     1       3.790  20.945  18.633  0.00  0.00    -0.065 C 
ATOM     59  H   UNL     1       3.109  19.641  17.136  0.00  0.00    +0.078 HD
ATOM     60  H   UNL     1       4.183  21.922  18.901  0.00  0.00    +0.059 HD
BRANCH  57  62
ATOM     61  C   UNL     1       2.521  21.725  15.462  0.00  0.00    +0.206 C 
ATOM     62  N   UNL     1       3.635  21.460  16.256  0.00  0.00    -0.281 N 
ATOM     63  O   UNL     1       1.390  21.279  15.618  0.00  0.00    -0.279 OA
ATOM     64  H   UNL     1       2.742  22.411  14.629  0.00  0.00    +0.126 HD
BRANCH  62  65
ATOM     65  C   UNL     1       4.903  22.094  15.901  0.00  0.00    +0.016 C 
ATOM     66  H   UNL     1       5.395  22.472  16.801  0.00  0.00    +0.047 HD
ATOM     67  H   UNL     1       5.573  21.330  15.485  0.00  0.00    +0.047 HD
BRANCH  65  68
ATOM     68  C   UNL     1       4.729  23.195  14.866  0.00  0.00    -0.049 C 
ATOM     69  H   UNL     1       5.157  24.133  15.235  0.00  0.00    +0.024 HD
ATOM     70  H   UNL     1       5.218  22.932  13.928  0.00  0.00    +0.024 HD
ATOM     71  H   UNL     1       3.670  23.379  14.651  0.00  0.00    +0.024 HD
ENDBRANCH  65  68
ENDBRANCH  62  65
ENDBRANCH  57  62
ENDBRANCH  55  58
BRANCH  55  72
ATOM     72  C   UNL     1       2.227  19.315  19.627  0.00  0.00    -0.057 C 
ATOM     73  H   UNL     1       1.733  19.147  20.590  0.00  0.00    +0.024 HD
ATOM     74  H   UNL     1       1.562  19.937  19.016  0.00  0.00    +0.024 HD
ATOM     75  H   UNL     1       2.321  18.344  19.128  0.00  0.00    +0.024 HD
ENDBRANCH  55  72
ENDBRANCH  53  55
BRANCH  53  76
ATOM     76  O   UNL     1       5.956  19.514  19.512  0.00  0.00    -0.379 OA
BRANCH  76  77
ATOM     77  C   UNL     1       6.819  19.818  20.601  0.00  0.00    +0.037 C 
ATOM     78  H   UNL     1       6.312  20.468  21.322  0.00  0.00    +0.052 HD
ATOM     79  H   UNL     1       7.074  18.881  21.102  0.00  0.00    +0.052 HD
ATOM     80  H   UNL     1       7.746  20.290  20.257  0.00  0.00    +0.052 HD
ENDBRANCH  76  77
ENDBRANCH  53  76
ENDBRANCH  47  53
ENDBRANCH   1  47
BRANCH   1  81
ATOM     81  O   UNL     1       3.726  16.017  21.561  0.00  0.00    -0.461 OA
BRANCH  81  82
ATOM     82  C   UNL     1       3.060  15.375  20.566  0.00  0.00    +0.310 C 
ATOM     83  O   UNL     1       2.711  15.894  19.515  0.00  0.00    -0.251 OA
BRANCH  82  84
ATOM     84  C   UNL     1       2.806  13.915  20.904  0.00  0.00    +0.051 C 
ATOM     85  H   UNL     1       1.870  13.639  20.398  0.00  0.00    +0.041 HD
BRANCH  84  86
ATOM     86  C   UNL     1       2.608  13.658  22.398  0.00  0.00    -0.053 C 
ATOM     87  H   UNL     1       3.083  12.723  22.719  0.00  0.00    +0.024 HD
ATOM     88  H   UNL     1       1.541  13.593  22.643  0.00  0.00    +0.024 HD
ATOM     89  H   UNL     1       3.039  14.471  22.992  0.00  0.00    +0.024 HD
ENDBRANCH  84  86
BRANCH  84  90
ATOM     90  C   UNL     1       3.946  13.062  20.352  0.00  0.00    -0.053 C 
ATOM     91  H   UNL     1       4.132  12.183  20.982  0.00  0.00    +0.024 HD
ATOM     92  H   UNL     1       4.877  13.640  20.310  0.00  0.00    +0.024 HD
ATOM     93  H   UNL     1       3.719  12.724  19.333  0.00  0.00    +0.024 HD
ENDBRANCH  84  90
ENDBRANCH  82  84
ENDBRANCH  81  82
ENDBRANCH   1  81
TORSDOF 32
ENDMDL
MODEL 10
REMARK VINA RESULT:      -4.6      7.341     12.713
REMARK  Name = 2c_conf2
REMARK  32 active torsions:
REMARK  status: ('A' for Active; 'I' for Inactive)
REMARK    1  A    between atoms: N_2  and  C_3
REMARK    2  A    between atoms: N_2  and  C_5
REMARK    3  A    between atoms: C_3  and  C_4
REMARK    4  A    between atoms: C_6  and  C_7
REMARK    5  A    between atoms: C_7  and  C_8
REMARK    6  A    between atoms: C_7  and  C_9
REMARK    7  A    between atoms: C_9  and  O_10
REMARK    8  A    between atoms: C_9  and  C_12
REMARK    9  A    between atoms: O_10  and  C_11
REMARK   10  A    between atoms: C_12  and  C_13
REMARK   11  A    between atoms: C_12  and  C_14
REMARK   12  A    between atoms: C_14  and  O_15
REMARK   13  A    between atoms: C_14  and  C_21
REMARK   14  A    between atoms: O_15  and  C_16
REMARK   15  A    between atoms: C_16  and  C_17
REMARK   16  A    between atoms: C_17  and  C_18
REMARK   17  A    between atoms: C_17  and  C_19
REMARK   18  A    between atoms: C_21  and  C_22
REMARK   19  A    between atoms: C_22  and  C_23
REMARK   20  A    between atoms: C_23  and  C_24
REMARK   21  A    between atoms: C_23  and  C_25
REMARK   22  A    between atoms: C_25  and  O_26
REMARK   23  A    between atoms: C_25  and  C_28
REMARK   24  A    between atoms: O_26  and  C_27
REMARK   25  A    between atoms: C_28  and  C_29
REMARK   26  A    between atoms: C_29  and  O_30
REMARK   27  A    between atoms: C_29  and  C_35
REMARK   28  A    between atoms: O_30  and  C_31
REMARK   29  A    between atoms: C_31  and  C_32
REMARK   30  A    between atoms: C_32  and  C_33
REMARK   31  A    between atoms: C_35  and  C_36
REMARK   32  A    between atoms: C_35  and  C_37
REMARK                            x       y       z     vdW  Elec       q    Type
REMARK                         _______ _______ _______ _____ _____    ______ ____
ROOT
ATOM      1  C   UNL     1      -3.767  16.276  19.983  0.00  0.00    +0.108 C 
ATOM      2  H   UNL     1      -4.584  15.546  19.874  0.00  0.00    +0.074 HD
ENDROOT
BRANCH   1   3
ATOM      3  C   UNL     1      -2.472  15.481  20.221  0.00  0.00    -0.015 C 
ATOM      4  H   UNL     1      -2.558  14.493  19.767  0.00  0.00    +0.030 HD
ATOM      5  H   UNL     1      -2.269  15.339  21.286  0.00  0.00    +0.030 HD
BRANCH   3   6
ATOM      6  C   UNL     1      -1.260  16.207  19.607  0.00  0.00    -0.045 C 
ATOM      7  H   UNL     1      -1.563  17.169  19.173  0.00  0.00    +0.027 HD
ATOM      8  H   UNL     1      -0.570  16.443  20.430  0.00  0.00    +0.027 HD
BRANCH   6   9
ATOM      9  C   UNL     1      -0.523  15.354  18.542  0.00  0.00    -0.017 C 
ATOM     10  H   UNL     1      -0.355  15.984  17.664  0.00  0.00    +0.032 HD
BRANCH   9  11
ATOM     11  C   UNL     1      -1.444  14.199  18.121  0.00  0.00    -0.060 C 
ATOM     12  H   UNL     1      -2.325  14.590  17.603  0.00  0.00    +0.023 HD
ATOM     13  H   UNL     1      -1.796  13.624  18.985  0.00  0.00    +0.023 HD
ATOM     14  H   UNL     1      -0.953  13.506  17.435  0.00  0.00    +0.023 HD
ENDBRANCH   9  11
BRANCH   9  15
ATOM     15  C   UNL     1       0.843  14.845  19.091  0.00  0.00    +0.064 C 
ATOM     16  H   UNL     1       0.669  13.917  19.640  0.00  0.00    +0.060 HD
BRANCH  15  17
ATOM     17  C   UNL     1       1.574  15.858  20.001  0.00  0.00    +0.011 C 
ATOM     18  H   UNL     1       0.846  16.278  20.703  0.00  0.00    +0.033 HD
ATOM     19  H   UNL     1       1.881  16.733  19.419  0.00  0.00    +0.033 HD
BRANCH  17  20
ATOM     20  C   UNL     1       2.812  15.348  20.762  0.00  0.00    +0.108 C 
ATOM     21  H   UNL     1       3.025  15.950  21.652  0.00  0.00    +0.074 HD
BRANCH  20  22
ATOM     22  C   UNL     1       2.747  13.850  21.175  0.00  0.00    -0.009 C 
ATOM     23  H   UNL     1       1.816  13.422  20.777  0.00  0.00    +0.033 HD
BRANCH  22  24
ATOM     24  C   UNL     1       2.771  13.611  22.683  0.00  0.00    -0.059 C 
ATOM     25  H   UNL     1       3.647  13.033  22.983  0.00  0.00    +0.023 HD
ATOM     26  H   UNL     1       2.763  14.558  23.225  0.00  0.00    +0.023 HD
ATOM     27  H   UNL     1       1.882  13.058  23.003  0.00  0.00    +0.023 HD
ENDBRANCH  22  24
BRANCH  22  28
ATOM     28  C   UNL     1       3.897  13.068  20.519  0.00  0.00    -0.059 C 
ATOM     29  H   UNL     1       3.527  12.443  19.700  0.00  0.00    +0.023 HD
ATOM     30  H   UNL     1       4.648  13.750  20.113  0.00  0.00    +0.023 HD
ATOM     31  H   UNL     1       4.402  12.417  21.238  0.00  0.00    +0.023 HD
ENDBRANCH  22  28
ENDBRANCH  20  22
BRANCH  20  32
ATOM     32  O   UNL     1       3.938  15.441  19.844  0.00  0.00    -0.461 OA
BRANCH  32  33
ATOM     33  C   UNL     1       4.681  16.580  19.901  0.00  0.00    +0.307 C 
ATOM     34  O   UNL     1       4.670  17.480  19.073  0.00  0.00    -0.251 OA
BRANCH  33  35
ATOM     35  C   UNL     1       5.545  16.579  21.138  0.00  0.00    +0.042 C 
ATOM     36  H   UNL     1       5.350  15.657  21.694  0.00  0.00    +0.037 HD
ATOM     37  H   UNL     1       6.599  16.558  20.838  0.00  0.00    +0.037 HD
BRANCH  35  38
ATOM     38  C   UNL     1       5.250  17.779  22.015  0.00  0.00    -0.055 C 
ATOM     39  H   UNL     1       4.451  17.547  22.728  0.00  0.00    +0.023 HD
ATOM     40  H   UNL     1       6.131  18.083  22.590  0.00  0.00    +0.023 HD
ATOM     41  H   UNL     1       4.935  18.641  21.411  0.00  0.00    +0.023 HD
ENDBRANCH  35  38
ENDBRANCH  33  35
ENDBRANCH  32  33
ENDBRANCH  20  32
ENDBRANCH  17  20
ENDBRANCH  15  17
BRANCH  15  42
ATOM     42  O   UNL     1       1.663  14.535  17.947  0.00  0.00    -0.379 OA
BRANCH  42  43
ATOM     43  C   UNL     1       1.869  13.151  17.723  0.00  0.00    +0.037 C 
ATOM     44  H   UNL     1       2.437  13.036  16.794  0.00  0.00    +0.052 HD
ATOM     45  H   UNL     1       2.457  12.700  18.529  0.00  0.00    +0.052 HD
ATOM     46  H   UNL     1       0.912  12.630  17.609  0.00  0.00    +0.052 HD
ENDBRANCH  42  43
ENDBRANCH  15  42
ENDBRANCH   9  15
ENDBRANCH   6   9
ENDBRANCH   3   6
ENDBRANCH   1   3
BRANCH   1  47
ATOM     47  C   UNL     1      -3.806  17.198  18.733  0.00  0.00    +0.020 C 
ATOM     48  H   UNL     1      -2.824  17.051  18.260  0.00  0.00    +0.036 HD
BRANCH  47  49
ATOM     49  C   UNL     1      -3.791  18.685  19.102  0.00  0.00    -0.057 C 
ATOM     50  H   UNL     1      -2.812  19.023  19.447  0.00  0.00    +0.023 HD
ATOM     51  H   UNL     1      -4.520  18.909  19.891  0.00  0.00    +0.023 HD
ATOM     52  H   UNL     1      -4.059  19.298  18.234  0.00  0.00    +0.023 HD
ENDBRANCH  47  49
BRANCH  47  53
ATOM     53  C   UNL     1      -4.815  16.812  17.609  0.00  0.00    +0.070 C 
ATOM     54  H   UNL     1      -4.775  17.598  16.846  0.00  0.00    +0.061 HD
BRANCH  53  55
ATOM     55  C   UNL     1      -4.589  15.472  16.850  0.00  0.00    +0.002 C 
ATOM     56  H   UNL     1      -3.543  15.179  16.969  0.00  0.00    +0.037 HD
BRANCH  55  58
ATOM     57  C   UNL     1      -5.065  13.283  17.991  0.00  0.00    -0.005 C 
ATOM     58  C   UNL     1      -5.496  14.344  17.295  0.00  0.00    -0.065 C 
ATOM     59  H   UNL     1      -4.009  13.214  18.253  0.00  0.00    +0.078 HD
ATOM     60  H   UNL     1      -6.540  14.451  17.012  0.00  0.00    +0.059 HD
BRANCH  57  62
ATOM     61  C   UNL     1      -5.586  10.941  17.949  0.00  0.00    +0.206 C 
ATOM     62  N   UNL     1      -5.836  12.221  18.441  0.00  0.00    -0.281 N 
ATOM     63  O   UNL     1      -4.744  10.630  17.115  0.00  0.00    -0.279 OA
ATOM     64  H   UNL     1      -6.242  10.175  18.395  0.00  0.00    +0.126 HD
BRANCH  62  65
ATOM     65  C   UNL     1      -6.890  12.383  19.440  0.00  0.00    +0.016 C 
ATOM     66  H   UNL     1      -6.783  11.625  20.221  0.00  0.00    +0.047 HD
ATOM     67  H   UNL     1      -6.757  13.353  19.937  0.00  0.00    +0.047 HD
BRANCH  65  68
ATOM     68  C   UNL     1      -8.281  12.346  18.825  0.00  0.00    -0.049 C 
ATOM     69  H   UNL     1      -8.363  13.091  18.027  0.00  0.00    +0.024 HD
ATOM     70  H   UNL     1      -8.499  11.362  18.409  0.00  0.00    +0.024 HD
ATOM     71  H   UNL     1      -9.054  12.573  19.568  0.00  0.00    +0.024 HD
ENDBRANCH  65  68
ENDBRANCH  62  65
ENDBRANCH  57  62
ENDBRANCH  55  58
BRANCH  55  72
ATOM     72  C   UNL     1      -4.799  15.682  15.342  0.00  0.00    -0.057 C 
ATOM     73  H   UNL     1      -5.851  15.585  15.054  0.00  0.00    +0.024 HD
ATOM     74  H   UNL     1      -4.461  16.680  15.040  0.00  0.00    +0.024 HD
ATOM     75  H   UNL     1      -4.226  14.951  14.760  0.00  0.00    +0.024 HD
ENDBRANCH  55  72
ENDBRANCH  53  55
BRANCH  53  76
ATOM     76  O   UNL     1      -6.160  16.784  18.137  0.00  0.00    -0.379 OA
BRANCH  76  77
ATOM     77  C   UNL     1      -7.037  17.726  17.530  0.00  0.00    +0.037 C 
ATOM     78  H   UNL     1      -6.863  17.769  16.450  0.00  0.00    +0.052 HD
ATOM     79  H   UNL     1      -8.063  17.391  17.701  0.00  0.00    +0.052 HD
ATOM     80  H   UNL     1      -6.919  18.722  17.970  0.00  0.00    +0.052 HD
ENDBRANCH  76  77
ENDBRANCH  53  76
ENDBRANCH  47  53
ENDBRANCH   1  47
BRANCH   1  81
ATOM     81  O   UNL     1      -3.983  17.049  21.184  0.00  0.00    -0.461 OA
BRANCH  81  82
ATOM     82  C   UNL     1      -5.004  16.675  21.999  0.00  0.00    +0.310 C 
ATOM     83  O   UNL     1      -5.289  17.225  23.054  0.00  0.00    -0.251 OA
BRANCH  82  84
ATOM     84  C   UNL     1      -5.771  15.489  21.437  0.00  0.00    +0.051 C 
ATOM     85  H   UNL     1      -5.307  15.252  20.469  0.00  0.00    +0.041 HD
BRANCH  84  86
ATOM     86  C   UNL     1      -7.247  15.783  21.173  0.00  0.00    -0.053 C 
ATOM     87  H   UNL     1      -7.565  15.428  20.185  0.00  0.00    +0.024 HD
ATOM     88  H   UNL     1      -7.444  16.861  21.221  0.00  0.00    +0.024 HD
ATOM     89  H   UNL     1      -7.880  15.293  21.921  0.00  0.00    +0.024 HD
ENDBRANCH  84  86
BRANCH  84  90
ATOM     90  C   UNL     1      -5.613  14.294  22.375  0.00  0.00    -0.053 C 
ATOM     91  H   UNL     1      -6.333  13.501  22.140  0.00  0.00    +0.024 HD
ATOM     92  H   UNL     1      -5.782  14.594  23.417  0.00  0.00    +0.024 HD
ATOM     93  H   UNL     1      -4.598  13.880  22.310  0.00  0.00    +0.024 HD
ENDBRANCH  84  90
ENDBRANCH  82  84
ENDBRANCH  81  82
ENDBRANCH   1  81
TORSDOF 32
ENDMDL
