MODEL 1
REMARK VINA RESULT:      -5.0      0.000      0.000
REMARK  Name = 2u_conf2
REMARK  31 active torsions:
REMARK  status: ('A' for Active; 'I' for Inactive)
REMARK    1  A    between atoms: C_2  and  C_3
REMARK    2  A    between atoms: C_2  and  O_8
REMARK    3  A    between atoms: O_8  and  C_9
REMARK    4  A    between atoms: C_9  and  C_10
REMARK    5  A    between atoms: C_9  and  C_29
REMARK    6  A    between atoms: C_10  and  C_11
REMARK    7  A    between atoms: C_11  and  C_12
REMARK    8  A    between atoms: C_12  and  C_13
REMARK    9  A    between atoms: C_12  and  C_14
REMARK   10  A    between atoms: C_14  and  O_15
REMARK   11  A    between atoms: C_14  and  C_17
REMARK   12  A    between atoms: O_15  and  C_16
REMARK   13  A    between atoms: C_17  and  C_18
REMARK   14  A    between atoms: C_18  and  O_19
REMARK   15  A    between atoms: C_18  and  C_26
REMARK   16  A    between atoms: O_19  and  C_20
REMARK   17  A    between atoms: C_20  and  C_21
REMARK   18  A    between atoms: C_21  and  C_22
REMARK   19  A    between atoms: C_22  and  C_23
REMARK   20  A    between atoms: C_23  and  N_24
REMARK   21  A    between atoms: C_26  and  C_27
REMARK   22  A    between atoms: C_26  and  C_28
REMARK   23  A    between atoms: C_29  and  C_30
REMARK   24  A    between atoms: C_29  and  C_31
REMARK   25  A    between atoms: C_31  and  O_32
REMARK   26  A    between atoms: C_31  and  C_34
REMARK   27  A    between atoms: O_32  and  C_33
REMARK   28  A    between atoms: C_34  and  C_35
REMARK   29  A    between atoms: C_34  and  C_36
REMARK   30  A    between atoms: C_37  and  N_38
REMARK   31  A    between atoms: N_38  and  C_39
REMARK                            x       y       z     vdW  Elec       q    Type
REMARK                         _______ _______ _______ _____ _____    ______ ____
ROOT
ATOM      1  C   UNL     1       6.375  16.378  21.723  0.00  0.00    -0.015 C 
ATOM      2  H   UNL     1       7.038  15.517  21.811  0.00  0.00    +0.030 HD
ATOM      3  H   UNL     1       6.073  16.410  20.671  0.00  0.00    +0.030 HD
ENDROOT
BRANCH   1   4
ATOM      4  C   UNL     1       7.172  17.649  22.060  0.00  0.00    -0.045 C 
ATOM      5  H   UNL     1       8.242  17.458  21.924  0.00  0.00    +0.027 HD
ATOM      6  H   UNL     1       7.051  17.880  23.125  0.00  0.00    +0.027 HD
BRANCH   4   7
ATOM      7  C   UNL     1       6.769  18.902  21.249  0.00  0.00    -0.017 C 
ATOM      8  H   UNL     1       6.381  18.544  20.283  0.00  0.00    +0.032 HD
BRANCH   7   9
ATOM      9  C   UNL     1       8.013  19.738  20.910  0.00  0.00    -0.060 C 
ATOM     10  H   UNL     1       8.634  19.896  21.798  0.00  0.00    +0.023 HD
ATOM     11  H   UNL     1       7.731  20.729  20.537  0.00  0.00    +0.023 HD
ATOM     12  H   UNL     1       8.633  19.252  20.150  0.00  0.00    +0.023 HD
ENDBRANCH   7   9
BRANCH   7  13
ATOM     13  C   UNL     1       5.663  19.775  21.904  0.00  0.00    +0.064 C 
ATOM     14  H   UNL     1       4.775  19.162  22.098  0.00  0.00    +0.060 HD
BRANCH  13  15
ATOM     15  C   UNL     1       5.282  20.979  21.018  0.00  0.00    +0.011 C 
ATOM     16  H   UNL     1       4.903  21.778  21.662  0.00  0.00    +0.033 HD
ATOM     17  H   UNL     1       6.180  21.344  20.511  0.00  0.00    +0.033 HD
BRANCH  15  18
ATOM     18  C   UNL     1       4.221  20.629  19.957  0.00  0.00    +0.108 C 
ATOM     19  H   UNL     1       3.982  19.561  20.028  0.00  0.00    +0.074 HD
BRANCH  18  20
ATOM     20  C   UNL     1       2.905  21.440  20.090  0.00  0.00    -0.009 C 
ATOM     21  H   UNL     1       2.716  21.581  21.162  0.00  0.00    +0.033 HD
BRANCH  20  22
ATOM     22  C   UNL     1       3.018  22.831  19.464  0.00  0.00    -0.059 C 
ATOM     23  H   UNL     1       3.411  23.547  20.193  0.00  0.00    +0.023 HD
ATOM     24  H   UNL     1       2.048  23.209  19.127  0.00  0.00    +0.023 HD
ATOM     25  H   UNL     1       3.700  22.824  18.608  0.00  0.00    +0.023 HD
ENDBRANCH  20  22
BRANCH  20  26
ATOM     26  C   UNL     1       1.683  20.706  19.533  0.00  0.00    -0.059 C 
ATOM     27  H   UNL     1       1.373  21.148  18.580  0.00  0.00    +0.023 HD
ATOM     28  H   UNL     1       1.890  19.647  19.353  0.00  0.00    +0.023 HD
ATOM     29  H   UNL     1       0.831  20.777  20.215  0.00  0.00    +0.023 HD
ENDBRANCH  20  26
ENDBRANCH  18  20
BRANCH  18  30
ATOM     30  O   UNL     1       4.811  20.919  18.666  0.00  0.00    -0.461 OA
BRANCH  30  31
ATOM     31  C   UNL     1       4.887  19.890  17.775  0.00  0.00    +0.307 C 
ATOM     32  O   UNL     1       4.908  18.702  18.064  0.00  0.00    -0.251 OA
BRANCH  31  33
ATOM     33  C   UNL     1       4.907  20.454  16.373  0.00  0.00    +0.046 C 
ATOM     34  H   UNL     1       4.885  19.613  15.672  0.00  0.00    +0.038 HD
ATOM     35  H   UNL     1       5.846  21.002  16.248  0.00  0.00    +0.038 HD
BRANCH  33  36
ATOM     36  C   UNL     1       3.723  21.382  16.111  0.00  0.00    -0.031 C 
ATOM     37  H   UNL     1       3.097  20.966  15.312  0.00  0.00    +0.028 HD
ATOM     38  H   UNL     1       3.088  21.428  17.007  0.00  0.00    +0.028 HD
BRANCH  36  39
ATOM     39  C   UNL     1       4.141  22.809  15.755  0.00  0.00    -0.006 C 
ATOM     40  H   UNL     1       4.351  22.859  14.682  0.00  0.00    +0.042 HD
ATOM     41  H   UNL     1       3.321  23.507  15.958  0.00  0.00    +0.042 HD
BRANCH  39  42
ATOM     42  N   UNL     1       5.332  23.235  16.483  0.00  0.00    -0.330 NA
ATOM     43  H   UNL     1       6.015  23.627  15.836  0.00  0.00    +0.118 HD
ATOM     44  H   UNL     1       5.781  22.414  16.891  0.00  0.00    +0.118 HD
ENDBRANCH  39  42
ENDBRANCH  36  39
ENDBRANCH  33  36
ENDBRANCH  31  33
ENDBRANCH  30  31
ENDBRANCH  18  30
ENDBRANCH  15  18
ENDBRANCH  13  15
BRANCH  13  45
ATOM     45  O   UNL     1       6.187  20.303  23.135  0.00  0.00    -0.379 OA
BRANCH  45  46
ATOM     46  C   UNL     1       5.422  21.386  23.650  0.00  0.00    +0.037 C 
ATOM     47  H   UNL     1       4.596  21.579  22.961  0.00  0.00    +0.052 HD
ATOM     48  H   UNL     1       6.033  22.291  23.727  0.00  0.00    +0.052 HD
ATOM     49  H   UNL     1       5.009  21.130  24.630  0.00  0.00    +0.052 HD
ENDBRANCH  45  46
ENDBRANCH  13  45
ENDBRANCH   7  13
ENDBRANCH   4   7
ENDBRANCH   1   4
BRANCH   1  50
ATOM     50  C   UNL     1       5.122  16.216  22.615  0.00  0.00    +0.108 C 
ATOM     51  H   UNL     1       4.711  17.210  22.839  0.00  0.00    +0.074 HD
BRANCH  50  52
ATOM     52  C   UNL     1       5.321  15.533  24.002  0.00  0.00    +0.020 C 
ATOM     53  H   UNL     1       6.196  14.880  23.889  0.00  0.00    +0.036 HD
BRANCH  52  54
ATOM     54  C   UNL     1       4.142  14.594  24.301  0.00  0.00    -0.057 C 
ATOM     55  H   UNL     1       3.783  14.734  25.325  0.00  0.00    +0.023 HD
ATOM     56  H   UNL     1       4.414  13.544  24.180  0.00  0.00    +0.023 HD
ATOM     57  H   UNL     1       3.302  14.804  23.632  0.00  0.00    +0.023 HD
ENDBRANCH  52  54
BRANCH  52  58
ATOM     58  C   UNL     1       5.615  16.433  25.245  0.00  0.00    +0.070 C 
ATOM     59  H   UNL     1       4.960  16.073  26.055  0.00  0.00    +0.061 HD
BRANCH  58  60
ATOM     60  C   UNL     1       7.073  16.386  25.806  0.00  0.00    +0.002 C 
ATOM     61  H   UNL     1       7.070  15.860  26.767  0.00  0.00    +0.037 HD
BRANCH  60  62
ATOM     62  C   UNL     1       7.645  17.791  26.037  0.00  0.00    -0.057 C 
ATOM     63  H   UNL     1       7.594  18.401  25.131  0.00  0.00    +0.024 HD
ATOM     64  H   UNL     1       7.076  18.326  26.806  0.00  0.00    +0.024 HD
ATOM     65  H   UNL     1       8.693  17.752  26.351  0.00  0.00    +0.024 HD
ENDBRANCH  60  62
BRANCH  60  66
ATOM     66  C   UNL     1       7.957  15.520  24.908  0.00  0.00    -0.065 C 
ATOM     67  C   UNL     1       9.179  15.813  24.439  0.00  0.00    -0.005 C 
ATOM     68  H   UNL     1       7.480  14.575  24.659  0.00  0.00    +0.059 HD
ATOM     69  H   UNL     1       9.636  16.765  24.705  0.00  0.00    +0.078 HD
BRANCH  67  70
ATOM     70  N   UNL     1       9.973  15.026  23.617  0.00  0.00    -0.284 N 
ATOM     71  C   UNL     1      10.268  13.685  23.826  0.00  0.00    +0.206 C 
ATOM     72  O   UNL     1      10.963  12.973  23.108  0.00  0.00    -0.279 OA
ATOM     73  H   UNL     1       9.811  13.262  24.729  0.00  0.00    +0.126 HD
BRANCH  70  74
ATOM     74  C   UNL     1      10.545  15.669  22.438  0.00  0.00    +0.007 C 
ATOM     75  H   UNL     1      10.226  16.716  22.413  0.00  0.00    +0.043 HD
ATOM     76  H   UNL     1      10.227  15.185  21.509  0.00  0.00    +0.043 HD
ATOM     77  H   UNL     1      11.637  15.619  22.505  0.00  0.00    +0.043 HD
ENDBRANCH  70  74
ENDBRANCH  67  70
ENDBRANCH  60  66
ENDBRANCH  58  60
BRANCH  58  78
ATOM     78  O   UNL     1       5.280  17.796  24.939  0.00  0.00    -0.379 OA
BRANCH  78  79
ATOM     79  C   UNL     1       4.041  18.208  25.505  0.00  0.00    +0.037 C 
ATOM     80  H   UNL     1       3.204  17.930  24.855  0.00  0.00    +0.052 HD
ATOM     81  H   UNL     1       4.033  19.288  25.682  0.00  0.00    +0.052 HD
ATOM     82  H   UNL     1       3.916  17.700  26.462  0.00  0.00    +0.052 HD
ENDBRANCH  78  79
ENDBRANCH  58  78
ENDBRANCH  52  58
ENDBRANCH  50  52
BRANCH  50  83
ATOM     83  O   UNL     1       4.118  15.491  21.865  0.00  0.00    -0.459 OA
BRANCH  83  85
ATOM     84  O   UNL     1       3.370  17.261  20.606  0.00  0.00    -0.248 OA
ATOM     85  C   UNL     1       3.687  16.084  20.708  0.00  0.00    +0.337 C 
BRANCH  85  86
ATOM     86  C   UNL     1       3.710  15.065  19.563  0.00  0.00    +0.155 C 
ATOM     87  O   UNL     1       2.483  15.037  18.812  0.00  0.00    -0.365 OA
ATOM     88  C   UNL     1       1.973  13.698  18.814  0.00  0.00    +0.049 C 
ATOM     89  C   UNL     1       3.160  12.806  19.093  0.00  0.00    -0.027 C 
ATOM     90  C   UNL     1       3.951  13.646  20.063  0.00  0.00    -0.014 C 
ATOM     91  H   UNL     1       4.493  15.374  18.859  0.00  0.00    +0.071 HD
ATOM     92  H   UNL     1       1.219  13.619  19.607  0.00  0.00    +0.056 HD
ATOM     93  H   UNL     1       1.499  13.483  17.853  0.00  0.00    +0.056 HD
ATOM     94  H   UNL     1       3.743  12.658  18.175  0.00  0.00    +0.029 HD
ATOM     95  H   UNL     1       2.878  11.826  19.489  0.00  0.00    +0.029 HD
ATOM     96  H   UNL     1       5.014  13.386  20.078  0.00  0.00    +0.030 HD
ATOM     97  H   UNL     1       3.558  13.513  21.080  0.00  0.00    +0.030 HD
ENDBRANCH  85  86
ENDBRANCH  83  85
ENDBRANCH  50  83
ENDBRANCH   1  50
TORSDOF 31
ENDMDL
MODEL 2
REMARK VINA RESULT:      -5.0      7.320     10.983
REMARK  Name = 2u_conf2
REMARK  31 active torsions:
REMARK  status: ('A' for Active; 'I' for Inactive)
REMARK    1  A    between atoms: C_2  and  C_3
REMARK    2  A    between atoms: C_2  and  O_8
REMARK    3  A    between atoms: O_8  and  C_9
REMARK    4  A    between atoms: C_9  and  C_10
REMARK    5  A    between atoms: C_9  and  C_29
REMARK    6  A    between atoms: C_10  and  C_11
REMARK    7  A    between atoms: C_11  and  C_12
REMARK    8  A    between atoms: C_12  and  C_13
REMARK    9  A    between atoms: C_12  and  C_14
REMARK   10  A    between atoms: C_14  and  O_15
REMARK   11  A    between atoms: C_14  and  C_17
REMARK   12  A    between atoms: O_15  and  C_16
REMARK   13  A    between atoms: C_17  and  C_18
REMARK   14  A    between atoms: C_18  and  O_19
REMARK   15  A    between atoms: C_18  and  C_26
REMARK   16  A    between atoms: O_19  and  C_20
REMARK   17  A    between atoms: C_20  and  C_21
REMARK   18  A    between atoms: C_21  and  C_22
REMARK   19  A    between atoms: C_22  and  C_23
REMARK   20  A    between atoms: C_23  and  N_24
REMARK   21  A    between atoms: C_26  and  C_27
REMARK   22  A    between atoms: C_26  and  C_28
REMARK   23  A    between atoms: C_29  and  C_30
REMARK   24  A    between atoms: C_29  and  C_31
REMARK   25  A    between atoms: C_31  and  O_32
REMARK   26  A    between atoms: C_31  and  C_34
REMARK   27  A    between atoms: O_32  and  C_33
REMARK   28  A    between atoms: C_34  and  C_35
REMARK   29  A    between atoms: C_34  and  C_36
REMARK   30  A    between atoms: C_37  and  N_38
REMARK   31  A    between atoms: N_38  and  C_39
REMARK                            x       y       z     vdW  Elec       q    Type
REMARK                         _______ _______ _______ _____ _____    ______ ____
ROOT
ATOM      1  C   UNL     1      -2.809  15.599  18.113  0.00  0.00    -0.015 C 
ATOM      2  H   UNL     1      -2.906  15.785  17.044  0.00  0.00    +0.030 HD
ATOM      3  H   UNL     1      -2.683  16.586  18.572  0.00  0.00    +0.030 HD
ENDROOT
BRANCH   1   4
ATOM      4  C   UNL     1      -1.541  14.764  18.355  0.00  0.00    -0.045 C 
ATOM      5  H   UNL     1      -0.938  14.740  17.440  0.00  0.00    +0.027 HD
ATOM      6  H   UNL     1      -1.825  13.721  18.542  0.00  0.00    +0.027 HD
BRANCH   4   7
ATOM      7  C   UNL     1      -0.663  15.242  19.534  0.00  0.00    -0.017 C 
ATOM      8  H   UNL     1      -1.259  15.107  20.449  0.00  0.00    +0.032 HD
BRANCH   7   9
ATOM      9  C   UNL     1      -0.408  16.754  19.427  0.00  0.00    -0.060 C 
ATOM     10  H   UNL     1      -0.074  17.164  20.386  0.00  0.00    +0.023 HD
ATOM     11  H   UNL     1      -1.324  17.289  19.153  0.00  0.00    +0.023 HD
ATOM     12  H   UNL     1       0.357  16.985  18.680  0.00  0.00    +0.023 HD
ENDBRANCH   7   9
BRANCH   7  13
ATOM     13  C   UNL     1       0.665  14.457  19.719  0.00  0.00    +0.064 C 
ATOM     14  H   UNL     1       0.708  14.037  20.730  0.00  0.00    +0.060 HD
BRANCH  13  15
ATOM     15  C   UNL     1       1.899  15.351  19.473  0.00  0.00    +0.011 C 
ATOM     16  H   UNL     1       2.403  15.005  18.565  0.00  0.00    +0.033 HD
ATOM     17  H   UNL     1       1.565  16.379  19.310  0.00  0.00    +0.033 HD
BRANCH  15  18
ATOM     18  C   UNL     1       2.893  15.333  20.649  0.00  0.00    +0.108 C 
ATOM     19  H   UNL     1       2.598  16.093  21.381  0.00  0.00    +0.074 HD
BRANCH  18  20
ATOM     20  C   UNL     1       2.990  13.963  21.372  0.00  0.00    -0.009 C 
ATOM     21  H   UNL     1       1.985  13.521  21.369  0.00  0.00    +0.033 HD
BRANCH  20  22
ATOM     22  C   UNL     1       3.915  12.987  20.641  0.00  0.00    -0.059 C 
ATOM     23  H   UNL     1       4.859  13.478  20.383  0.00  0.00    +0.023 HD
ATOM     24  H   UNL     1       3.471  12.622  19.710  0.00  0.00    +0.023 HD
ATOM     25  H   UNL     1       4.152  12.124  21.271  0.00  0.00    +0.023 HD
ENDBRANCH  20  22
BRANCH  20  26
ATOM     26  C   UNL     1       3.401  14.082  22.842  0.00  0.00    -0.059 C 
ATOM     27  H   UNL     1       4.448  14.393  22.922  0.00  0.00    +0.023 HD
ATOM     28  H   UNL     1       2.796  14.821  23.376  0.00  0.00    +0.023 HD
ATOM     29  H   UNL     1       3.307  13.123  23.360  0.00  0.00    +0.023 HD
ENDBRANCH  20  26
ENDBRANCH  18  20
BRANCH  18  30
ATOM     30  O   UNL     1       4.195  15.654  20.100  0.00  0.00    -0.461 OA
BRANCH  30  31
ATOM     31  C   UNL     1       4.917  16.616  20.742  0.00  0.00    +0.307 C 
ATOM     32  O   UNL     1       6.131  16.609  20.894  0.00  0.00    -0.251 OA
BRANCH  31  33
ATOM     33  C   UNL     1       3.981  17.707  21.205  0.00  0.00    +0.046 C 
ATOM     34  H   UNL     1       4.491  18.278  21.989  0.00  0.00    +0.038 HD
ATOM     35  H   UNL     1       3.094  17.227  21.630  0.00  0.00    +0.038 HD
BRANCH  33  36
ATOM     36  C   UNL     1       3.573  18.637  20.065  0.00  0.00    -0.031 C 
ATOM     37  H   UNL     1       3.022  18.070  19.304  0.00  0.00    +0.028 HD
ATOM     38  H   UNL     1       2.878  19.399  20.444  0.00  0.00    +0.028 HD
BRANCH  36  39
ATOM     39  C   UNL     1       4.757  19.359  19.420  0.00  0.00    -0.006 C 
ATOM     40  H   UNL     1       4.603  20.439  19.510  0.00  0.00    +0.042 HD
ATOM     41  H   UNL     1       5.685  19.118  19.953  0.00  0.00    +0.042 HD
BRANCH  39  42
ATOM     42  N   UNL     1       4.908  19.026  18.008  0.00  0.00    -0.330 NA
ATOM     43  H   UNL     1       4.743  18.031  17.863  0.00  0.00    +0.118 HD
ATOM     44  H   UNL     1       5.877  19.186  17.732  0.00  0.00    +0.118 HD
ENDBRANCH  39  42
ENDBRANCH  36  39
ENDBRANCH  33  36
ENDBRANCH  31  33
ENDBRANCH  30  31
ENDBRANCH  18  30
ENDBRANCH  15  18
ENDBRANCH  13  15
BRANCH  13  45
ATOM     45  O   UNL     1       0.699  13.407  18.737  0.00  0.00    -0.379 OA
BRANCH  45  46
ATOM     46  C   UNL     1       1.781  13.531  17.821  0.00  0.00    +0.037 C 
ATOM     47  H   UNL     1       2.193  14.539  17.914  0.00  0.00    +0.052 HD
ATOM     48  H   UNL     1       1.437  13.386  16.792  0.00  0.00    +0.052 HD
ATOM     49  H   UNL     1       2.567  12.808  18.058  0.00  0.00    +0.052 HD
ENDBRANCH  45  46
ENDBRANCH  13  45
ENDBRANCH   7  13
ENDBRANCH   4   7
ENDBRANCH   1   4
BRANCH   1  50
ATOM     50  C   UNL     1      -4.076  14.923  18.684  0.00  0.00    +0.108 C 
ATOM     51  H   UNL     1      -4.945  15.225  18.083  0.00  0.00    +0.074 HD
BRANCH  50  52
ATOM     52  C   UNL     1      -4.461  15.262  20.156  0.00  0.00    +0.020 C 
ATOM     53  H   UNL     1      -4.000  16.236  20.367  0.00  0.00    +0.036 HD
BRANCH  52  54
ATOM     54  C   UNL     1      -3.786  14.272  21.118  0.00  0.00    -0.057 C 
ATOM     55  H   UNL     1      -3.086  13.624  20.582  0.00  0.00    +0.023 HD
ATOM     56  H   UNL     1      -4.513  13.634  21.626  0.00  0.00    +0.023 HD
ATOM     57  H   UNL     1      -3.214  14.806  21.883  0.00  0.00    +0.023 HD
ENDBRANCH  52  54
BRANCH  52  58
ATOM     58  C   UNL     1      -5.972  15.415  20.521  0.00  0.00    +0.070 C 
ATOM     59  H   UNL     1      -6.508  15.587  19.574  0.00  0.00    +0.061 HD
BRANCH  58  60
ATOM     60  C   UNL     1      -6.652  14.178  21.192  0.00  0.00    +0.002 C 
ATOM     61  H   UNL     1      -5.886  13.429  21.421  0.00  0.00    +0.037 HD
BRANCH  60  62
ATOM     62  C   UNL     1      -7.693  13.525  20.272  0.00  0.00    -0.057 C 
ATOM     63  H   UNL     1      -7.451  13.679  19.217  0.00  0.00    +0.024 HD
ATOM     64  H   UNL     1      -7.732  12.442  20.428  0.00  0.00    +0.024 HD
ATOM     65  H   UNL     1      -8.695  13.933  20.445  0.00  0.00    +0.024 HD
ENDBRANCH  60  62
BRANCH  60  66
ATOM     66  C   UNL     1      -7.220  14.563  22.559  0.00  0.00    -0.065 C 
ATOM     67  C   UNL     1      -7.208  13.831  23.682  0.00  0.00    -0.005 C 
ATOM     68  H   UNL     1      -7.669  15.553  22.547  0.00  0.00    +0.059 HD
ATOM     69  H   UNL     1      -6.750  12.844  23.669  0.00  0.00    +0.078 HD
BRANCH  67  70
ATOM     70  N   UNL     1      -7.733  14.183  24.918  0.00  0.00    -0.284 N 
ATOM     71  C   UNL     1      -8.434  13.336  25.766  0.00  0.00    +0.206 C 
ATOM     72  O   UNL     1      -8.901  13.628  26.862  0.00  0.00    -0.279 OA
ATOM     73  H   UNL     1      -8.556  12.316  25.380  0.00  0.00    +0.126 HD
BRANCH  70  74
ATOM     74  C   UNL     1      -7.529  15.561  25.355  0.00  0.00    +0.007 C 
ATOM     75  H   UNL     1      -7.799  16.237  24.537  0.00  0.00    +0.043 HD
ATOM     76  H   UNL     1      -6.491  15.755  25.641  0.00  0.00    +0.043 HD
ATOM     77  H   UNL     1      -8.175  15.754  26.219  0.00  0.00    +0.043 HD
ENDBRANCH  70  74
ENDBRANCH  67  70
ENDBRANCH  60  66
ENDBRANCH  58  60
BRANCH  58  78
ATOM     78  O   UNL     1      -6.145  16.558  21.374  0.00  0.00    -0.379 OA
BRANCH  78  79
ATOM     79  C   UNL     1      -6.411  17.757  20.657  0.00  0.00    +0.037 C 
ATOM     80  H   UNL     1      -5.529  18.407  20.644  0.00  0.00    +0.052 HD
ATOM     81  H   UNL     1      -7.262  18.290  21.090  0.00  0.00    +0.052 HD
ATOM     82  H   UNL     1      -6.656  17.492  19.627  0.00  0.00    +0.052 HD
ENDBRANCH  78  79
ENDBRANCH  58  78
ENDBRANCH  52  58
ENDBRANCH  50  52
BRANCH  50  83
ATOM     83  O   UNL     1      -3.931  13.490  18.546  0.00  0.00    -0.459 OA
BRANCH  83  85
ATOM     84  O   UNL     1      -5.854  13.400  17.292  0.00  0.00    -0.248 OA
ATOM     85  C   UNL     1      -4.948  12.841  17.896  0.00  0.00    +0.337 C 
BRANCH  85  86
ATOM     86  C   UNL     1      -4.751  11.325  18.003  0.00  0.00    +0.155 C 
ATOM     87  O   UNL     1      -4.866  10.654  16.735  0.00  0.00    -0.365 OA
ATOM     88  C   UNL     1      -5.872   9.640  16.842  0.00  0.00    +0.049 C 
ATOM     89  C   UNL     1      -5.982   9.323  18.314  0.00  0.00    -0.027 C 
ATOM     90  C   UNL     1      -5.767  10.679  18.935  0.00  0.00    -0.014 C 
ATOM     91  H   UNL     1      -3.726  11.148  18.352  0.00  0.00    +0.071 HD
ATOM     92  H   UNL     1      -6.812  10.047  16.449  0.00  0.00    +0.056 HD
ATOM     93  H   UNL     1      -5.585   8.772  16.242  0.00  0.00    +0.056 HD
ATOM     94  H   UNL     1      -5.170   8.648  18.615  0.00  0.00    +0.029 HD
ATOM     95  H   UNL     1      -6.937   8.861  18.585  0.00  0.00    +0.029 HD
ATOM     96  H   UNL     1      -5.405  10.619  19.966  0.00  0.00    +0.030 HD
ATOM     97  H   UNL     1      -6.711  11.241  18.942  0.00  0.00    +0.030 HD
ENDBRANCH  85  86
ENDBRANCH  83  85
ENDBRANCH  50  83
ENDBRANCH   1  50
TORSDOF 31
ENDMDL
MODEL 3
REMARK VINA RESULT:      -5.0      3.535      7.416
REMARK  Name = 2u_conf2
REMARK  31 active torsions:
REMARK  status: ('A' for Active; 'I' for Inactive)
REMARK    1  A    between atoms: C_2  and  C_3
REMARK    2  A    between atoms: C_2  and  O_8
REMARK    3  A    between atoms: O_8  and  C_9
REMARK    4  A    between atoms: C_9  and  C_10
REMARK    5  A    between atoms: C_9  and  C_29
REMARK    6  A    between atoms: C_10  and  C_11
REMARK    7  A    between atoms: C_11  and  C_12
REMARK    8  A    between atoms: C_12  and  C_13
REMARK    9  A    between atoms: C_12  and  C_14
REMARK   10  A    between atoms: C_14  and  O_15
REMARK   11  A    between atoms: C_14  and  C_17
REMARK   12  A    between atoms: O_15  and  C_16
REMARK   13  A    between atoms: C_17  and  C_18
REMARK   14  A    between atoms: C_18  and  O_19
REMARK   15  A    between atoms: C_18  and  C_26
REMARK   16  A    between atoms: O_19  and  C_20
REMARK   17  A    between atoms: C_20  and  C_21
REMARK   18  A    between atoms: C_21  and  C_22
REMARK   19  A    between atoms: C_22  and  C_23
REMARK   20  A    between atoms: C_23  and  N_24
REMARK   21  A    between atoms: C_26  and  C_27
REMARK   22  A    between atoms: C_26  and  C_28
REMARK   23  A    between atoms: C_29  and  C_30
REMARK   24  A    between atoms: C_29  and  C_31
REMARK   25  A    between atoms: C_31  and  O_32
REMARK   26  A    between atoms: C_31  and  C_34
REMARK   27  A    between atoms: O_32  and  C_33
REMARK   28  A    between atoms: C_34  and  C_35
REMARK   29  A    between atoms: C_34  and  C_36
REMARK   30  A    between atoms: C_37  and  N_38
REMARK   31  A    between atoms: N_38  and  C_39
REMARK                            x       y       z     vdW  Elec       q    Type
REMARK                         _______ _______ _______ _____ _____    ______ ____
ROOT
ATOM      1  C   UNL     1       7.345  17.158  22.030  0.00  0.00    -0.015 C 
ATOM      2  H   UNL     1       7.397  16.949  23.098  0.00  0.00    +0.030 HD
ATOM      3  H   UNL     1       7.899  16.348  21.545  0.00  0.00    +0.030 HD
ENDROOT
BRANCH   1   4
ATOM      4  C   UNL     1       8.055  18.494  21.755  0.00  0.00    -0.045 C 
ATOM      5  H   UNL     1       7.309  19.290  21.647  0.00  0.00    +0.027 HD
ATOM      6  H   UNL     1       8.565  18.439  20.786  0.00  0.00    +0.027 HD
BRANCH   4   7
ATOM      7  C   UNL     1       9.094  18.908  22.822  0.00  0.00    -0.017 C 
ATOM      8  H   UNL     1       8.534  19.120  23.746  0.00  0.00    +0.032 HD
BRANCH   7   9
ATOM      9  C   UNL     1       9.758  20.238  22.429  0.00  0.00    -0.060 C 
ATOM     10  H   UNL     1       9.020  20.943  22.032  0.00  0.00    +0.023 HD
ATOM     11  H   UNL     1      10.508  20.087  21.645  0.00  0.00    +0.023 HD
ATOM     12  H   UNL     1      10.250  20.713  23.283  0.00  0.00    +0.023 HD
ENDBRANCH   7   9
BRANCH   7  13
ATOM     13  C   UNL     1      10.156  17.824  23.155  0.00  0.00    +0.064 C 
ATOM     14  H   UNL     1       9.666  16.956  23.612  0.00  0.00    +0.060 HD
BRANCH  13  15
ATOM     15  C   UNL     1      11.252  18.363  24.098  0.00  0.00    +0.011 C 
ATOM     16  H   UNL     1      12.228  18.151  23.651  0.00  0.00    +0.033 HD
ATOM     17  H   UNL     1      11.142  19.447  24.185  0.00  0.00    +0.033 HD
BRANCH  15  18
ATOM     18  C   UNL     1      11.185  17.742  25.506  0.00  0.00    +0.108 C 
ATOM     19  H   UNL     1      12.119  17.204  25.706  0.00  0.00    +0.074 HD
BRANCH  18  20
ATOM     20  C   UNL     1      10.959  18.777  26.640  0.00  0.00    -0.009 C 
ATOM     21  H   UNL     1      11.873  18.799  27.248  0.00  0.00    +0.033 HD
BRANCH  20  22
ATOM     22  C   UNL     1      10.741  20.191  26.099  0.00  0.00    -0.059 C 
ATOM     23  H   UNL     1      10.294  20.829  26.869  0.00  0.00    +0.023 HD
ATOM     24  H   UNL     1      10.068  20.200  25.237  0.00  0.00    +0.023 HD
ATOM     25  H   UNL     1      11.689  20.648  25.801  0.00  0.00    +0.023 HD
ENDBRANCH  20  22
BRANCH  20  26
ATOM     26  C   UNL     1       9.823  18.392  27.592  0.00  0.00    -0.059 C 
ATOM     27  H   UNL     1       9.193  19.262  27.806  0.00  0.00    +0.023 HD
ATOM     28  H   UNL     1       9.179  17.617  27.166  0.00  0.00    +0.023 HD
ATOM     29  H   UNL     1      10.210  18.029  28.548  0.00  0.00    +0.023 HD
ENDBRANCH  20  26
ENDBRANCH  18  20
BRANCH  18  30
ATOM     30  O   UNL     1      10.071  16.816  25.501  0.00  0.00    -0.461 OA
BRANCH  30  31
ATOM     31  C   UNL     1      10.372  15.486  25.522  0.00  0.00    +0.307 C 
ATOM     32  O   UNL     1      11.438  15.006  25.880  0.00  0.00    -0.251 OA
BRANCH  31  33
ATOM     33  C   UNL     1       9.165  14.701  25.065  0.00  0.00    +0.046 C 
ATOM     34  H   UNL     1       9.123  14.756  23.972  0.00  0.00    +0.038 HD
ATOM     35  H   UNL     1       8.276  15.183  25.484  0.00  0.00    +0.038 HD
BRANCH  33  36
ATOM     36  C   UNL     1       9.226  13.242  25.512  0.00  0.00    -0.031 C 
ATOM     37  H   UNL     1       9.925  13.141  26.351  0.00  0.00    +0.028 HD
ATOM     38  H   UNL     1       8.242  12.934  25.892  0.00  0.00    +0.028 HD
BRANCH  36  39
ATOM     39  C   UNL     1       9.618  12.282  24.388  0.00  0.00    -0.006 C 
ATOM     40  H   UNL     1      10.002  11.357  24.831  0.00  0.00    +0.042 HD
ATOM     41  H   UNL     1       8.738  12.016  23.791  0.00  0.00    +0.042 HD
BRANCH  39  42
ATOM     42  N   UNL     1      10.645  12.840  23.515  0.00  0.00    -0.330 NA
ATOM     43  H   UNL     1      11.506  12.301  23.599  0.00  0.00    +0.118 HD
ATOM     44  H   UNL     1      10.878  13.780  23.838  0.00  0.00    +0.118 HD
ENDBRANCH  39  42
ENDBRANCH  36  39
ENDBRANCH  33  36
ENDBRANCH  31  33
ENDBRANCH  30  31
ENDBRANCH  18  30
ENDBRANCH  15  18
ENDBRANCH  13  15
BRANCH  13  45
ATOM     45  O   UNL     1      10.801  17.445  21.926  0.00  0.00    -0.379 OA
BRANCH  45  46
ATOM     46  C   UNL     1      11.241  16.092  21.919  0.00  0.00    +0.037 C 
ATOM     47  H   UNL     1      11.800  15.920  20.995  0.00  0.00    +0.052 HD
ATOM     48  H   UNL     1      10.388  15.407  21.946  0.00  0.00    +0.052 HD
ATOM     49  H   UNL     1      11.901  15.901  22.769  0.00  0.00    +0.052 HD
ENDBRANCH  45  46
ENDBRANCH  13  45
ENDBRANCH   7  13
ENDBRANCH   4   7
ENDBRANCH   1   4
BRANCH   1  50
ATOM     50  C   UNL     1       5.882  17.156  21.528  0.00  0.00    +0.108 C 
ATOM     51  H   UNL     1       5.679  18.104  21.013  0.00  0.00    +0.074 HD
BRANCH  50  52
ATOM     52  C   UNL     1       4.762  17.028  22.604  0.00  0.00    +0.020 C 
ATOM     53  H   UNL     1       4.020  16.337  22.181  0.00  0.00    +0.036 HD
BRANCH  52  54
ATOM     54  C   UNL     1       4.030  18.369  22.765  0.00  0.00    -0.057 C 
ATOM     55  H   UNL     1       3.422  18.589  21.882  0.00  0.00    +0.023 HD
ATOM     56  H   UNL     1       4.723  19.200  22.912  0.00  0.00    +0.023 HD
ATOM     57  H   UNL     1       3.353  18.339  23.624  0.00  0.00    +0.023 HD
ENDBRANCH  52  54
BRANCH  52  58
ATOM     58  C   UNL     1       5.132  16.450  24.008  0.00  0.00    +0.070 C 
ATOM     59  H   UNL     1       6.126  15.987  23.905  0.00  0.00    +0.061 HD
BRANCH  58  60
ATOM     60  C   UNL     1       5.249  17.484  25.175  0.00  0.00    +0.002 C 
ATOM     61  H   UNL     1       5.012  18.484  24.792  0.00  0.00    +0.037 HD
BRANCH  60  62
ATOM     62  C   UNL     1       6.664  17.526  25.766  0.00  0.00    -0.057 C 
ATOM     63  H   UNL     1       6.667  17.249  26.824  0.00  0.00    +0.024 HD
ATOM     64  H   UNL     1       7.326  16.818  25.256  0.00  0.00    +0.024 HD
ATOM     65  H   UNL     1       7.104  18.526  25.686  0.00  0.00    +0.024 HD
ENDBRANCH  60  62
BRANCH  60  66
ATOM     66  C   UNL     1       4.169  17.221  26.225  0.00  0.00    -0.065 C 
ATOM     67  C   UNL     1       3.244  18.080  26.677  0.00  0.00    -0.005 C 
ATOM     68  H   UNL     1       4.214  16.204  26.606  0.00  0.00    +0.059 HD
ATOM     69  H   UNL     1       3.217  19.092  26.277  0.00  0.00    +0.078 HD
BRANCH  67  70
ATOM     70  N   UNL     1       2.272  17.837  27.637  0.00  0.00    -0.284 N 
ATOM     71  C   UNL     1       2.391  16.947  28.697  0.00  0.00    +0.206 C 
ATOM     72  O   UNL     1       1.546  16.722  29.557  0.00  0.00    -0.279 OA
ATOM     73  H   UNL     1       3.353  16.418  28.731  0.00  0.00    +0.126 HD
BRANCH  70  74
ATOM     74  C   UNL     1       1.021  18.579  27.516  0.00  0.00    +0.007 C 
ATOM     75  H   UNL     1       0.684  18.539  26.474  0.00  0.00    +0.043 HD
ATOM     76  H   UNL     1       1.133  19.627  27.807  0.00  0.00    +0.043 HD
ATOM     77  H   UNL     1       0.271  18.112  28.163  0.00  0.00    +0.043 HD
ENDBRANCH  70  74
ENDBRANCH  67  70
ENDBRANCH  60  66
ENDBRANCH  58  60
BRANCH  58  78
ATOM     78  O   UNL     1       4.178  15.442  24.377  0.00  0.00    -0.379 OA
BRANCH  78  79
ATOM     79  C   UNL     1       3.901  14.523  23.327  0.00  0.00    +0.037 C 
ATOM     80  H   UNL     1       3.378  15.019  22.503  0.00  0.00    +0.052 HD
ATOM     81  H   UNL     1       3.307  13.680  23.693  0.00  0.00    +0.052 HD
ATOM     82  H   UNL     1       4.850  14.139  22.949  0.00  0.00    +0.052 HD
ENDBRANCH  78  79
ENDBRANCH  58  78
ENDBRANCH  52  58
ENDBRANCH  50  52
BRANCH  50  83
ATOM     83  O   UNL     1       5.734  16.094  20.557  0.00  0.00    -0.459 OA
BRANCH  83  85
ATOM     84  O   UNL     1       4.576  17.447  19.106  0.00  0.00    -0.248 OA
ATOM     85  C   UNL     1       4.861  16.335  19.529  0.00  0.00    +0.337 C 
BRANCH  85  86
ATOM     86  C   UNL     1       4.338  15.008  18.968  0.00  0.00    +0.155 C 
ATOM     87  O   UNL     1       2.911  14.998  18.789  0.00  0.00    -0.365 OA
ATOM     88  C   UNL     1       2.364  13.889  19.514  0.00  0.00    +0.049 C 
ATOM     89  C   UNL     1       3.499  12.907  19.682  0.00  0.00    -0.027 C 
ATOM     90  C   UNL     1       4.675  13.830  19.875  0.00  0.00    -0.014 C 
ATOM     91  H   UNL     1       4.773  14.875  17.970  0.00  0.00    +0.071 HD
ATOM     92  H   UNL     1       2.007  14.256  20.485  0.00  0.00    +0.056 HD
ATOM     93  H   UNL     1       1.519  13.469  18.963  0.00  0.00    +0.056 HD
ATOM     94  H   UNL     1       3.634  12.328  18.759  0.00  0.00    +0.029 HD
ATOM     95  H   UNL     1       3.347  12.210  20.512  0.00  0.00    +0.029 HD
ATOM     96  H   UNL     1       5.628  13.362  19.610  0.00  0.00    +0.030 HD
ATOM     97  H   UNL     1       4.736  14.145  20.925  0.00  0.00    +0.030 HD
ENDBRANCH  85  86
ENDBRANCH  83  85
ENDBRANCH  50  83
ENDBRANCH   1  50
TORSDOF 31
ENDMDL
MODEL 4
REMARK VINA RESULT:      -4.9      3.534      7.218
REMARK  Name = 2u_conf2
REMARK  31 active torsions:
REMARK  status: ('A' for Active; 'I' for Inactive)
REMARK    1  A    between atoms: C_2  and  C_3
REMARK    2  A    between atoms: C_2  and  O_8
REMARK    3  A    between atoms: O_8  and  C_9
REMARK    4  A    between atoms: C_9  and  C_10
REMARK    5  A    between atoms: C_9  and  C_29
REMARK    6  A    between atoms: C_10  and  C_11
REMARK    7  A    between atoms: C_11  and  C_12
REMARK    8  A    between atoms: C_12  and  C_13
REMARK    9  A    between atoms: C_12  and  C_14
REMARK   10  A    between atoms: C_14  and  O_15
REMARK   11  A    between atoms: C_14  and  C_17
REMARK   12  A    between atoms: O_15  and  C_16
REMARK   13  A    between atoms: C_17  and  C_18
REMARK   14  A    between atoms: C_18  and  O_19
REMARK   15  A    between atoms: C_18  and  C_26
REMARK   16  A    between atoms: O_19  and  C_20
REMARK   17  A    between atoms: C_20  and  C_21
REMARK   18  A    between atoms: C_21  and  C_22
REMARK   19  A    between atoms: C_22  and  C_23
REMARK   20  A    between atoms: C_23  and  N_24
REMARK   21  A    between atoms: C_26  and  C_27
REMARK   22  A    between atoms: C_26  and  C_28
REMARK   23  A    between atoms: C_29  and  C_30
REMARK   24  A    between atoms: C_29  and  C_31
REMARK   25  A    between atoms: C_31  and  O_32
REMARK   26  A    between atoms: C_31  and  C_34
REMARK   27  A    between atoms: O_32  and  C_33
REMARK   28  A    between atoms: C_34  and  C_35
REMARK   29  A    between atoms: C_34  and  C_36
REMARK   30  A    between atoms: C_37  and  N_38
REMARK   31  A    between atoms: N_38  and  C_39
REMARK                            x       y       z     vdW  Elec       q    Type
REMARK                         _______ _______ _______ _____ _____    ______ ____
ROOT
ATOM      1  C   UNL     1       6.955  16.795  22.675  0.00  0.00    -0.015 C 
ATOM      2  H   UNL     1       6.389  17.628  23.089  0.00  0.00    +0.030 HD
ATOM      3  H   UNL     1       7.603  17.233  21.909  0.00  0.00    +0.030 HD
ENDROOT
BRANCH   1   4
ATOM      4  C   UNL     1       5.975  15.815  22.009  0.00  0.00    -0.045 C 
ATOM      5  H   UNL     1       6.334  14.789  22.143  0.00  0.00    +0.027 HD
ATOM      6  H   UNL     1       5.975  15.984  20.925  0.00  0.00    +0.027 HD
BRANCH   4   7
ATOM      7  C   UNL     1       4.516  15.917  22.510  0.00  0.00    -0.017 C 
ATOM      8  H   UNL     1       4.467  16.795  23.171  0.00  0.00    +0.032 HD
BRANCH   7   9
ATOM      9  C   UNL     1       4.175  14.711  23.401  0.00  0.00    -0.060 C 
ATOM     10  H   UNL     1       4.664  14.794  24.377  0.00  0.00    +0.023 HD
ATOM     11  H   UNL     1       4.523  13.776  22.948  0.00  0.00    +0.023 HD
ATOM     12  H   UNL     1       3.097  14.625  23.572  0.00  0.00    +0.023 HD
ENDBRANCH   7   9
BRANCH   7  13
ATOM     13  C   UNL     1       3.454  16.111  21.392  0.00  0.00    +0.064 C 
ATOM     14  H   UNL     1       2.796  16.949  21.650  0.00  0.00    +0.060 HD
BRANCH  13  15
ATOM     15  C   UNL     1       2.613  14.836  21.171  0.00  0.00    +0.011 C 
ATOM     16  H   UNL     1       3.193  13.974  21.515  0.00  0.00    +0.033 HD
ATOM     17  H   UNL     1       1.704  14.902  21.776  0.00  0.00    +0.033 HD
BRANCH  15  18
ATOM     18  C   UNL     1       2.215  14.632  19.698  0.00  0.00    +0.108 C 
ATOM     19  H   UNL     1       2.458  15.538  19.130  0.00  0.00    +0.074 HD
BRANCH  18  20
ATOM     20  C   UNL     1       2.910  13.422  19.018  0.00  0.00    -0.009 C 
ATOM     21  H   UNL     1       3.559  13.821  18.227  0.00  0.00    +0.033 HD
BRANCH  20  22
ATOM     22  C   UNL     1       3.804  12.649  19.989  0.00  0.00    -0.059 C 
ATOM     23  H   UNL     1       4.596  12.126  19.443  0.00  0.00    +0.023 HD
ATOM     24  H   UNL     1       3.244  11.896  20.551  0.00  0.00    +0.023 HD
ATOM     25  H   UNL     1       4.286  13.324  20.703  0.00  0.00    +0.023 HD
ENDBRANCH  20  22
BRANCH  20  26
ATOM     26  C   UNL     1       1.930  12.470  18.328  0.00  0.00    -0.059 C 
ATOM     27  H   UNL     1       1.136  13.036  17.828  0.00  0.00    +0.023 HD
ATOM     28  H   UNL     1       2.424  11.855  17.570  0.00  0.00    +0.023 HD
ATOM     29  H   UNL     1       1.448  11.804  19.049  0.00  0.00    +0.023 HD
ENDBRANCH  20  26
ENDBRANCH  18  20
BRANCH  18  30
ATOM     30  O   UNL     1       0.783  14.406  19.680  0.00  0.00    -0.461 OA
BRANCH  30  31
ATOM     31  C   UNL     1       0.007  15.396  19.154  0.00  0.00    +0.307 C 
ATOM     32  O   UNL     1       0.069  16.580  19.452  0.00  0.00    -0.251 OA
BRANCH  31  33
ATOM     33  C   UNL     1      -0.917  14.799  18.119  0.00  0.00    +0.046 C 
ATOM     34  H   UNL     1      -1.015  13.729  18.333  0.00  0.00    +0.038 HD
ATOM     35  H   UNL     1      -0.447  14.927  17.139  0.00  0.00    +0.038 HD
BRANCH  33  36
ATOM     36  C   UNL     1      -2.293  15.461  18.127  0.00  0.00    -0.031 C 
ATOM     37  H   UNL     1      -2.195  16.520  17.859  0.00  0.00    +0.028 HD
ATOM     38  H   UNL     1      -2.924  15.004  17.351  0.00  0.00    +0.028 HD
BRANCH  36  39
ATOM     39  C   UNL     1      -3.021  15.327  19.465  0.00  0.00    -0.006 C 
ATOM     40  H   UNL     1      -4.048  14.996  19.277  0.00  0.00    +0.042 HD
ATOM     41  H   UNL     1      -2.540  14.560  20.084  0.00  0.00    +0.042 HD
BRANCH  39  42
ATOM     42  N   UNL     1      -3.065  16.586  20.201  0.00  0.00    -0.330 NA
ATOM     43  H   UNL     1      -3.600  16.471  21.060  0.00  0.00    +0.118 HD
ATOM     44  H   UNL     1      -3.578  17.274  19.647  0.00  0.00    +0.118 HD
ENDBRANCH  39  42
ENDBRANCH  36  39
ENDBRANCH  33  36
ENDBRANCH  31  33
ENDBRANCH  30  31
ENDBRANCH  18  30
ENDBRANCH  15  18
ENDBRANCH  13  15
BRANCH  13  45
ATOM     45  O   UNL     1       4.150  16.379  20.163  0.00  0.00    -0.379 OA
BRANCH  45  46
ATOM     46  C   UNL     1       4.181  17.761  19.827  0.00  0.00    +0.037 C 
ATOM     47  H   UNL     1       3.696  17.888  18.856  0.00  0.00    +0.052 HD
ATOM     48  H   UNL     1       5.213  18.119  19.753  0.00  0.00    +0.052 HD
ATOM     49  H   UNL     1       3.635  18.347  20.571  0.00  0.00    +0.052 HD
ENDBRANCH  45  46
ENDBRANCH  13  45
ENDBRANCH   7  13
ENDBRANCH   4   7
ENDBRANCH   1   4
BRANCH   1  50
ATOM     50  C   UNL     1       7.825  16.112  23.756  0.00  0.00    +0.108 C 
ATOM     51  H   UNL     1       7.883  15.036  23.542  0.00  0.00    +0.074 HD
BRANCH  50  52
ATOM     52  C   UNL     1       7.328  16.208  25.231  0.00  0.00    +0.020 C 
ATOM     53  H   UNL     1       8.231  16.353  25.840  0.00  0.00    +0.036 HD
BRANCH  52  54
ATOM     54  C   UNL     1       6.743  14.860  25.679  0.00  0.00    -0.057 C 
ATOM     55  H   UNL     1       5.653  14.916  25.758  0.00  0.00    +0.023 HD
ATOM     56  H   UNL     1       7.135  14.543  26.647  0.00  0.00    +0.023 HD
ATOM     57  H   UNL     1       6.974  14.077  24.949  0.00  0.00    +0.023 HD
ENDBRANCH  52  54
BRANCH  52  58
ATOM     58  C   UNL     1       6.357  17.367  25.622  0.00  0.00    +0.070 C 
ATOM     59  H   UNL     1       5.967  17.782  24.679  0.00  0.00    +0.061 HD
BRANCH  58  60
ATOM     60  C   UNL     1       5.109  16.969  26.475  0.00  0.00    +0.002 C 
ATOM     61  H   UNL     1       5.045  15.876  26.526  0.00  0.00    +0.037 HD
BRANCH  60  62
ATOM     62  C   UNL     1       3.803  17.492  25.861  0.00  0.00    -0.057 C 
ATOM     63  H   UNL     1       3.906  17.670  24.787  0.00  0.00    +0.024 HD
ATOM     64  H   UNL     1       2.993  16.764  25.981  0.00  0.00    +0.024 HD
ATOM     65  H   UNL     1       3.490  18.434  26.324  0.00  0.00    +0.024 HD
ENDBRANCH  60  62
BRANCH  60  66
ATOM     66  C   UNL     1       5.303  17.402  27.929  0.00  0.00    -0.065 C 
ATOM     67  C   UNL     1       4.408  17.336  28.925  0.00  0.00    -0.005 C 
ATOM     68  H   UNL     1       6.300  17.797  28.105  0.00  0.00    +0.059 HD
ATOM     69  H   UNL     1       3.417  16.934  28.724  0.00  0.00    +0.078 HD
BRANCH  67  70
ATOM     70  N   UNL     1       4.587  17.739  30.241  0.00  0.00    -0.284 N 
ATOM     71  C   UNL     1       5.122  18.956  30.646  0.00  0.00    +0.206 C 
ATOM     72  O   UNL     1       5.284  19.330  31.802  0.00  0.00    -0.279 OA
ATOM     73  H   UNL     1       5.411  19.615  29.817  0.00  0.00    +0.126 HD
BRANCH  70  74
ATOM     74  C   UNL     1       4.180  16.800  31.282  0.00  0.00    +0.007 C 
ATOM     75  H   UNL     1       4.006  15.819  30.827  0.00  0.00    +0.043 HD
ATOM     76  H   UNL     1       3.264  17.117  31.790  0.00  0.00    +0.043 HD
ATOM     77  H   UNL     1       4.984  16.725  32.021  0.00  0.00    +0.043 HD
ENDBRANCH  70  74
ENDBRANCH  67  70
ENDBRANCH  60  66
ENDBRANCH  58  60
BRANCH  58  78
ATOM     78  O   UNL     1       7.088  18.389  26.319  0.00  0.00    -0.379 OA
BRANCH  78  79
ATOM     79  C   UNL     1       7.400  19.511  25.502  0.00  0.00    +0.037 C 
ATOM     80  H   UNL     1       7.664  19.194  24.488  0.00  0.00    +0.052 HD
ATOM     81  H   UNL     1       8.217  20.095  25.937  0.00  0.00    +0.052 HD
ATOM     82  H   UNL     1       6.514  20.147  25.443  0.00  0.00    +0.052 HD
ENDBRANCH  78  79
ENDBRANCH  58  78
ENDBRANCH  52  58
ENDBRANCH  50  52
BRANCH  50  83
ATOM     83  O   UNL     1       9.166  16.646  23.668  0.00  0.00    -0.459 OA
BRANCH  83  85
ATOM     84  O   UNL     1      10.181  16.209  21.654  0.00  0.00    -0.248 OA
ATOM     85  C   UNL     1      10.030  15.972  22.845  0.00  0.00    +0.337 C 
BRANCH  85  86
ATOM     86  C   UNL     1      10.801  14.920  23.649  0.00  0.00    +0.155 C 
ATOM     87  O   UNL     1      10.168  13.628  23.634  0.00  0.00    -0.365 OA
ATOM     88  C   UNL     1       9.942  13.212  24.986  0.00  0.00    +0.049 C 
ATOM     89  C   UNL     1      10.926  13.990  25.827  0.00  0.00    -0.027 C 
ATOM     90  C   UNL     1      10.956  15.316  25.112  0.00  0.00    -0.014 C 
ATOM     91  H   UNL     1      11.779  14.787  23.170  0.00  0.00    +0.071 HD
ATOM     92  H   UNL     1       8.906  13.459  25.253  0.00  0.00    +0.056 HD
ATOM     93  H   UNL     1      10.078  12.130  25.067  0.00  0.00    +0.056 HD
ATOM     94  H   UNL     1      11.917  13.522  25.775  0.00  0.00    +0.029 HD
ATOM     95  H   UNL     1      10.630  14.064  26.878  0.00  0.00    +0.029 HD
ATOM     96  H   UNL     1      11.879  15.874  25.295  0.00  0.00    +0.030 HD
ATOM     97  H   UNL     1      10.114  15.940  25.443  0.00  0.00    +0.030 HD
ENDBRANCH  85  86
ENDBRANCH  83  85
ENDBRANCH  50  83
ENDBRANCH   1  50
TORSDOF 31
ENDMDL
MODEL 5
REMARK VINA RESULT:      -4.9      3.432      8.415
REMARK  Name = 2u_conf2
REMARK  31 active torsions:
REMARK  status: ('A' for Active; 'I' for Inactive)
REMARK    1  A    between atoms: C_2  and  C_3
REMARK    2  A    between atoms: C_2  and  O_8
REMARK    3  A    between atoms: O_8  and  C_9
REMARK    4  A    between atoms: C_9  and  C_10
REMARK    5  A    between atoms: C_9  and  C_29
REMARK    6  A    between atoms: C_10  and  C_11
REMARK    7  A    between atoms: C_11  and  C_12
REMARK    8  A    between atoms: C_12  and  C_13
REMARK    9  A    between atoms: C_12  and  C_14
REMARK   10  A    between atoms: C_14  and  O_15
REMARK   11  A    between atoms: C_14  and  C_17
REMARK   12  A    between atoms: O_15  and  C_16
REMARK   13  A    between atoms: C_17  and  C_18
REMARK   14  A    between atoms: C_18  and  O_19
REMARK   15  A    between atoms: C_18  and  C_26
REMARK   16  A    between atoms: O_19  and  C_20
REMARK   17  A    between atoms: C_20  and  C_21
REMARK   18  A    between atoms: C_21  and  C_22
REMARK   19  A    between atoms: C_22  and  C_23
REMARK   20  A    between atoms: C_23  and  N_24
REMARK   21  A    between atoms: C_26  and  C_27
REMARK   22  A    between atoms: C_26  and  C_28
REMARK   23  A    between atoms: C_29  and  C_30
REMARK   24  A    between atoms: C_29  and  C_31
REMARK   25  A    between atoms: C_31  and  O_32
REMARK   26  A    between atoms: C_31  and  C_34
REMARK   27  A    between atoms: O_32  and  C_33
REMARK   28  A    between atoms: C_34  and  C_35
REMARK   29  A    between atoms: C_34  and  C_36
REMARK   30  A    between atoms: C_37  and  N_38
REMARK   31  A    between atoms: N_38  and  C_39
REMARK                            x       y       z     vdW  Elec       q    Type
REMARK                         _______ _______ _______ _____ _____    ______ ____
ROOT
ATOM      1  C   UNL     1       7.074  16.307  22.464  0.00  0.00    -0.015 C 
ATOM      2  H   UNL     1       8.054  15.972  22.804  0.00  0.00    +0.030 HD
ATOM      3  H   UNL     1       6.790  15.618  21.662  0.00  0.00    +0.030 HD
ENDROOT
BRANCH   1   4
ATOM      4  C   UNL     1       7.211  17.726  21.889  0.00  0.00    -0.045 C 
ATOM      5  H   UNL     1       6.384  18.349  22.249  0.00  0.00    +0.027 HD
ATOM      6  H   UNL     1       7.092  17.687  20.799  0.00  0.00    +0.027 HD
BRANCH   4   7
ATOM      7  C   UNL     1       8.553  18.426  22.201  0.00  0.00    -0.017 C 
ATOM      8  H   UNL     1       8.351  19.160  22.996  0.00  0.00    +0.032 HD
BRANCH   7   9
ATOM      9  C   UNL     1       9.018  19.249  20.989  0.00  0.00    -0.060 C 
ATOM     10  H   UNL     1       9.256  18.598  20.140  0.00  0.00    +0.023 HD
ATOM     11  H   UNL     1       9.927  19.814  21.222  0.00  0.00    +0.023 HD
ATOM     12  H   UNL     1       8.251  19.958  20.662  0.00  0.00    +0.023 HD
ENDBRANCH   7   9
BRANCH   7  13
ATOM     13  C   UNL     1       9.678  17.483  22.708  0.00  0.00    +0.064 C 
ATOM     14  H   UNL     1       9.235  16.629  23.234  0.00  0.00    +0.060 HD
BRANCH  13  15
ATOM     15  C   UNL     1      10.665  18.215  23.641  0.00  0.00    +0.011 C 
ATOM     16  H   UNL     1      11.658  17.773  23.512  0.00  0.00    +0.033 HD
ATOM     17  H   UNL     1      10.716  19.268  23.347  0.00  0.00    +0.033 HD
BRANCH  15  18
ATOM     18  C   UNL     1      10.257  18.134  25.124  0.00  0.00    +0.108 C 
ATOM     19  H   UNL     1      11.154  18.217  25.749  0.00  0.00    +0.074 HD
BRANCH  18  20
ATOM     20  C   UNL     1       9.248  19.229  25.561  0.00  0.00    -0.009 C 
ATOM     21  H   UNL     1       8.277  18.975  25.115  0.00  0.00    +0.033 HD
BRANCH  20  22
ATOM     22  C   UNL     1       9.053  19.264  27.078  0.00  0.00    -0.059 C 
ATOM     23  H   UNL     1       7.997  19.422  27.322  0.00  0.00    +0.023 HD
ATOM     24  H   UNL     1       9.620  20.075  27.545  0.00  0.00    +0.023 HD
ATOM     25  H   UNL     1       9.361  18.320  27.536  0.00  0.00    +0.023 HD
ENDBRANCH  20  22
BRANCH  20  26
ATOM     26  C   UNL     1       9.605  20.624  25.040  0.00  0.00    -0.059 C 
ATOM     27  H   UNL     1      10.419  21.056  25.633  0.00  0.00    +0.023 HD
ATOM     28  H   UNL     1       9.935  20.598  23.997  0.00  0.00    +0.023 HD
ATOM     29  H   UNL     1       8.754  21.306  25.113  0.00  0.00    +0.023 HD
ENDBRANCH  20  26
ENDBRANCH  18  20
BRANCH  18  30
ATOM     30  O   UNL     1       9.638  16.838  25.316  0.00  0.00    -0.461 OA
BRANCH  30  31
ATOM     31  C   UNL     1      10.354  15.907  26.008  0.00  0.00    +0.307 C 
ATOM     32  O   UNL     1      11.074  16.137  26.970  0.00  0.00    -0.251 OA
BRANCH  31  33
ATOM     33  C   UNL     1      10.087  14.542  25.417  0.00  0.00    +0.046 C 
ATOM     34  H   UNL     1       9.078  14.551  24.993  0.00  0.00    +0.038 HD
ATOM     35  H   UNL     1      10.129  13.812  26.232  0.00  0.00    +0.038 HD
BRANCH  33  36
ATOM     36  C   UNL     1      11.103  14.176  24.337  0.00  0.00    -0.031 C 
ATOM     37  H   UNL     1      11.806  15.006  24.194  0.00  0.00    +0.028 HD
ATOM     38  H   UNL     1      11.703  13.319  24.674  0.00  0.00    +0.028 HD
BRANCH  36  39
ATOM     39  C   UNL     1      10.458  13.804  23.002  0.00  0.00    -0.006 C 
ATOM     40  H   UNL     1       9.370  13.775  23.131  0.00  0.00    +0.042 HD
ATOM     41  H   UNL     1      10.676  14.569  22.248  0.00  0.00    +0.042 HD
BRANCH  39  42
ATOM     42  N   UNL     1      10.902  12.502  22.515  0.00  0.00    -0.330 NA
ATOM     43  H   UNL     1      10.117  11.991  22.117  0.00  0.00    +0.118 HD
ATOM     44  H   UNL     1      11.220  11.944  23.309  0.00  0.00    +0.118 HD
ENDBRANCH  39  42
ENDBRANCH  36  39
ENDBRANCH  33  36
ENDBRANCH  31  33
ENDBRANCH  30  31
ENDBRANCH  18  30
ENDBRANCH  15  18
ENDBRANCH  13  15
BRANCH  13  45
ATOM     45  O   UNL     1      10.428  17.034  21.566  0.00  0.00    -0.379 OA
BRANCH  45  46
ATOM     46  C   UNL     1      11.832  17.008  21.792  0.00  0.00    +0.037 C 
ATOM     47  H   UNL     1      12.012  16.558  22.772  0.00  0.00    +0.052 HD
ATOM     48  H   UNL     1      12.244  18.022  21.792  0.00  0.00    +0.052 HD
ATOM     49  H   UNL     1      12.331  16.402  21.031  0.00  0.00    +0.052 HD
ENDBRANCH  45  46
ENDBRANCH  13  45
ENDBRANCH   7  13
ENDBRANCH   4   7
ENDBRANCH   1   4
BRANCH   1  50
ATOM     50  C   UNL     1       6.028  16.232  23.601  0.00  0.00    +0.108 C 
ATOM     51  H   UNL     1       6.352  15.481  24.335  0.00  0.00    +0.074 HD
BRANCH  50  52
ATOM     52  C   UNL     1       4.578  15.818  23.206  0.00  0.00    +0.020 C 
ATOM     53  H   UNL     1       3.943  16.674  23.470  0.00  0.00    +0.036 HD
BRANCH  52  54
ATOM     54  C   UNL     1       4.099  14.661  24.097  0.00  0.00    -0.057 C 
ATOM     55  H   UNL     1       3.010  14.682  24.208  0.00  0.00    +0.023 HD
ATOM     56  H   UNL     1       4.540  14.701  25.094  0.00  0.00    +0.023 HD
ATOM     57  H   UNL     1       4.361  13.697  23.651  0.00  0.00    +0.023 HD
ENDBRANCH  52  54
BRANCH  52  58
ATOM     58  C   UNL     1       4.270  15.501  21.708  0.00  0.00    +0.070 C 
ATOM     59  H   UNL     1       5.234  15.257  21.234  0.00  0.00    +0.061 HD
BRANCH  58  60
ATOM     60  C   UNL     1       3.327  14.284  21.436  0.00  0.00    +0.002 C 
ATOM     61  H   UNL     1       3.103  13.787  22.386  0.00  0.00    +0.037 HD
BRANCH  60  62
ATOM     62  C   UNL     1       3.975  13.253  20.502  0.00  0.00    -0.057 C 
ATOM     63  H   UNL     1       3.772  13.478  19.451  0.00  0.00    +0.024 HD
ATOM     64  H   UNL     1       5.064  13.248  20.615  0.00  0.00    +0.024 HD
ATOM     65  H   UNL     1       3.604  12.242  20.701  0.00  0.00    +0.024 HD
ENDBRANCH  60  62
BRANCH  60  66
ATOM     66  C   UNL     1       1.966  14.771  20.938  0.00  0.00    -0.065 C 
ATOM     67  C   UNL     1       1.367  14.471  19.777  0.00  0.00    -0.005 C 
ATOM     68  H   UNL     1       1.484  15.432  21.655  0.00  0.00    +0.059 HD
ATOM     69  H   UNL     1       1.868  13.805  19.076  0.00  0.00    +0.078 HD
BRANCH  67  70
ATOM     70  N   UNL     1       0.134  14.924  19.327  0.00  0.00    -0.284 N 
ATOM     71  C   UNL     1      -0.853  15.494  20.121  0.00  0.00    +0.206 C 
ATOM     72  O   UNL     1      -1.945  15.903  19.741  0.00  0.00    -0.279 OA
ATOM     73  H   UNL     1      -0.586  15.568  21.183  0.00  0.00    +0.126 HD
BRANCH  70  74
ATOM     74  C   UNL     1      -0.142  14.784  17.901  0.00  0.00    +0.007 C 
ATOM     75  H   UNL     1      -0.084  13.724  17.630  0.00  0.00    +0.043 HD
ATOM     76  H   UNL     1       0.570  15.341  17.285  0.00  0.00    +0.043 HD
ATOM     77  H   UNL     1      -1.151  15.160  17.700  0.00  0.00    +0.043 HD
ENDBRANCH  70  74
ENDBRANCH  67  70
ENDBRANCH  60  66
ENDBRANCH  58  60
BRANCH  58  78
ATOM     78  O   UNL     1       3.716  16.666  21.076  0.00  0.00    -0.379 OA
BRANCH  78  79
ATOM     79  C   UNL     1       4.401  17.038  19.886  0.00  0.00    +0.037 C 
ATOM     80  H   UNL     1       5.334  17.561  20.121  0.00  0.00    +0.052 HD
ATOM     81  H   UNL     1       3.770  17.666  19.252  0.00  0.00    +0.052 HD
ATOM     82  H   UNL     1       4.647  16.128  19.335  0.00  0.00    +0.052 HD
ENDBRANCH  78  79
ENDBRANCH  58  78
ENDBRANCH  52  58
ENDBRANCH  50  52
BRANCH  50  83
ATOM     83  O   UNL     1       5.993  17.511  24.275  0.00  0.00    -0.459 OA
BRANCH  83  85
ATOM     84  O   UNL     1       6.472  16.879  26.431  0.00  0.00    -0.248 OA
ATOM     85  C   UNL     1       5.768  17.474  25.626  0.00  0.00    +0.337 C 
BRANCH  85  86
ATOM     86  C   UNL     1       4.539  18.322  25.973  0.00  0.00    +0.155 C 
ATOM     87  O   UNL     1       4.824  19.356  26.931  0.00  0.00    -0.365 OA
ATOM     88  C   UNL     1       3.936  19.207  28.045  0.00  0.00    +0.049 C 
ATOM     89  C   UNL     1       2.750  18.428  27.526  0.00  0.00    -0.027 C 
ATOM     90  C   UNL     1       3.409  17.483  26.555  0.00  0.00    -0.014 C 
ATOM     91  H   UNL     1       4.220  18.833  25.056  0.00  0.00    +0.071 HD
ATOM     92  H   UNL     1       4.463  18.654  28.833  0.00  0.00    +0.056 HD
ATOM     93  H   UNL     1       3.659  20.192  28.431  0.00  0.00    +0.056 HD
ATOM     94  H   UNL     1       2.070  19.098  26.984  0.00  0.00    +0.029 HD
ATOM     95  H   UNL     1       2.186  17.924  28.317  0.00  0.00    +0.029 HD
ATOM     96  H   UNL     1       2.721  17.121  25.784  0.00  0.00    +0.030 HD
ATOM     97  H   UNL     1       3.802  16.608  27.091  0.00  0.00    +0.030 HD
ENDBRANCH  85  86
ENDBRANCH  83  85
ENDBRANCH  50  83
ENDBRANCH   1  50
TORSDOF 31
ENDMDL
MODEL 6
REMARK VINA RESULT:      -4.9      2.495      8.664
REMARK  Name = 2u_conf2
REMARK  31 active torsions:
REMARK  status: ('A' for Active; 'I' for Inactive)
REMARK    1  A    between atoms: C_2  and  C_3
REMARK    2  A    between atoms: C_2  and  O_8
REMARK    3  A    between atoms: O_8  and  C_9
REMARK    4  A    between atoms: C_9  and  C_10
REMARK    5  A    between atoms: C_9  and  C_29
REMARK    6  A    between atoms: C_10  and  C_11
REMARK    7  A    between atoms: C_11  and  C_12
REMARK    8  A    between atoms: C_12  and  C_13
REMARK    9  A    between atoms: C_12  and  C_14
REMARK   10  A    between atoms: C_14  and  O_15
REMARK   11  A    between atoms: C_14  and  C_17
REMARK   12  A    between atoms: O_15  and  C_16
REMARK   13  A    between atoms: C_17  and  C_18
REMARK   14  A    between atoms: C_18  and  O_19
REMARK   15  A    between atoms: C_18  and  C_26
REMARK   16  A    between atoms: O_19  and  C_20
REMARK   17  A    between atoms: C_20  and  C_21
REMARK   18  A    between atoms: C_21  and  C_22
REMARK   19  A    between atoms: C_22  and  C_23
REMARK   20  A    between atoms: C_23  and  N_24
REMARK   21  A    between atoms: C_26  and  C_27
REMARK   22  A    between atoms: C_26  and  C_28
REMARK   23  A    between atoms: C_29  and  C_30
REMARK   24  A    between atoms: C_29  and  C_31
REMARK   25  A    between atoms: C_31  and  O_32
REMARK   26  A    between atoms: C_31  and  C_34
REMARK   27  A    between atoms: O_32  and  C_33
REMARK   28  A    between atoms: C_34  and  C_35
REMARK   29  A    between atoms: C_34  and  C_36
REMARK   30  A    between atoms: C_37  and  N_38
REMARK   31  A    between atoms: N_38  and  C_39
REMARK                            x       y       z     vdW  Elec       q    Type
REMARK                         _______ _______ _______ _____ _____    ______ ____
ROOT
ATOM      1  C   UNL     1       4.777  18.590  21.561  0.00  0.00    -0.015 C 
ATOM      2  H   UNL     1       4.411  19.494  22.046  0.00  0.00    +0.030 HD
ATOM      3  H   UNL     1       4.433  17.761  22.188  0.00  0.00    +0.030 HD
ENDROOT
BRANCH   1   4
ATOM      4  C   UNL     1       6.315  18.620  21.560  0.00  0.00    -0.045 C 
ATOM      5  H   UNL     1       6.673  18.995  20.595  0.00  0.00    +0.027 HD
ATOM      6  H   UNL     1       6.696  17.595  21.634  0.00  0.00    +0.027 HD
BRANCH   4   7
ATOM      7  C   UNL     1       6.948  19.452  22.699  0.00  0.00    -0.017 C 
ATOM      8  H   UNL     1       6.122  19.795  23.340  0.00  0.00    +0.032 HD
BRANCH   7   9
ATOM      9  C   UNL     1       7.586  20.730  22.131  0.00  0.00    -0.060 C 
ATOM     10  H   UNL     1       8.097  21.296  22.917  0.00  0.00    +0.023 HD
ATOM     11  H   UNL     1       6.826  21.393  21.704  0.00  0.00    +0.023 HD
ATOM     12  H   UNL     1       8.319  20.505  21.350  0.00  0.00    +0.023 HD
ENDBRANCH   7   9
BRANCH   7  13
ATOM     13  C   UNL     1       7.948  18.673  23.597  0.00  0.00    +0.064 C 
ATOM     14  H   UNL     1       8.222  17.730  23.112  0.00  0.00    +0.060 HD
BRANCH  13  15
ATOM     15  C   UNL     1       7.363  18.390  24.996  0.00  0.00    +0.011 C 
ATOM     16  H   UNL     1       8.098  18.692  25.748  0.00  0.00    +0.033 HD
ATOM     17  H   UNL     1       6.463  18.996  25.133  0.00  0.00    +0.033 HD
BRANCH  15  18
ATOM     18  C   UNL     1       6.999  16.908  25.202  0.00  0.00    +0.108 C 
ATOM     19  H   UNL     1       6.977  16.689  26.276  0.00  0.00    +0.074 HD
BRANCH  18  20
ATOM     20  C   UNL     1       5.633  16.503  24.587  0.00  0.00    -0.009 C 
ATOM     21  H   UNL     1       5.700  16.671  23.504  0.00  0.00    +0.033 HD
BRANCH  20  22
ATOM     22  C   UNL     1       5.321  15.020  24.795  0.00  0.00    -0.059 C 
ATOM     23  H   UNL     1       6.247  14.436  24.824  0.00  0.00    +0.023 HD
ATOM     24  H   UNL     1       4.704  14.613  23.989  0.00  0.00    +0.023 HD
ATOM     25  H   UNL     1       4.798  14.857  25.743  0.00  0.00    +0.023 HD
ENDBRANCH  20  22
BRANCH  20  26
ATOM     26  C   UNL     1       4.467  17.364  25.082  0.00  0.00    -0.059 C 
ATOM     27  H   UNL     1       4.841  18.291  25.530  0.00  0.00    +0.023 HD
ATOM     28  H   UNL     1       3.790  17.640  24.268  0.00  0.00    +0.023 HD
ATOM     29  H   UNL     1       3.886  16.844  25.849  0.00  0.00    +0.023 HD
ENDBRANCH  20  26
ENDBRANCH  18  20
BRANCH  18  30
ATOM     30  O   UNL     1       8.039  16.130  24.560  0.00  0.00    -0.461 OA
BRANCH  30  31
ATOM     31  C   UNL     1       8.996  15.591  25.368  0.00  0.00    +0.307 C 
ATOM     32  O   UNL     1       9.705  16.217  26.143  0.00  0.00    -0.251 OA
BRANCH  31  33
ATOM     33  C   UNL     1       9.016  14.093  25.174  0.00  0.00    +0.046 C 
ATOM     34  H   UNL     1       8.267  13.842  24.416  0.00  0.00    +0.038 HD
ATOM     35  H   UNL     1       8.734  13.630  26.125  0.00  0.00    +0.038 HD
BRANCH  33  36
ATOM     36  C   UNL     1      10.390  13.588  24.737  0.00  0.00    -0.031 C 
ATOM     37  H   UNL     1      11.170  14.070  25.340  0.00  0.00    +0.028 HD
ATOM     38  H   UNL     1      10.466  12.510  24.939  0.00  0.00    +0.028 HD
BRANCH  36  39
ATOM     39  C   UNL     1      10.670  13.809  23.250  0.00  0.00    -0.006 C 
ATOM     40  H   UNL     1       9.823  14.344  22.807  0.00  0.00    +0.042 HD
ATOM     41  H   UNL     1      11.557  14.440  23.120  0.00  0.00    +0.042 HD
BRANCH  39  42
ATOM     42  N   UNL     1      10.856  12.555  22.529  0.00  0.00    -0.330 NA
ATOM     43  H   UNL     1      10.541  12.655  21.566  0.00  0.00    +0.118 HD
ATOM     44  H   UNL     1      10.253  11.843  22.943  0.00  0.00    +0.118 HD
ENDBRANCH  39  42
ENDBRANCH  36  39
ENDBRANCH  33  36
ENDBRANCH  31  33
ENDBRANCH  30  31
ENDBRANCH  18  30
ENDBRANCH  15  18
ENDBRANCH  13  15
BRANCH  13  45
ATOM     45  O   UNL     1       9.111  19.499  23.783  0.00  0.00    -0.379 OA
BRANCH  45  46
ATOM     46  C   UNL     1      10.329  18.764  23.758  0.00  0.00    +0.037 C 
ATOM     47  H   UNL     1      10.536  18.480  22.723  0.00  0.00    +0.052 HD
ATOM     48  H   UNL     1      10.246  17.854  24.361  0.00  0.00    +0.052 HD
ATOM     49  H   UNL     1      11.155  19.380  24.125  0.00  0.00    +0.052 HD
ENDBRANCH  45  46
ENDBRANCH  13  45
ENDBRANCH   7  13
ENDBRANCH   4   7
ENDBRANCH   1   4
BRANCH   1  50
ATOM     50  C   UNL     1       4.191  18.438  20.138  0.00  0.00    +0.108 C 
ATOM     51  H   UNL     1       5.005  18.525  19.405  0.00  0.00    +0.074 HD
BRANCH  50  52
ATOM     52  C   UNL     1       3.127  19.485  19.693  0.00  0.00    +0.020 C 
ATOM     53  H   UNL     1       3.180  20.297  20.432  0.00  0.00    +0.036 HD
BRANCH  52  54
ATOM     54  C   UNL     1       1.715  18.895  19.833  0.00  0.00    -0.057 C 
ATOM     55  H   UNL     1       1.423  18.365  18.921  0.00  0.00    +0.023 HD
ATOM     56  H   UNL     1       0.966  19.665  20.030  0.00  0.00    +0.023 HD
ATOM     57  H   UNL     1       1.679  18.172  20.654  0.00  0.00    +0.023 HD
ENDBRANCH  52  54
BRANCH  52  58
ATOM     58  C   UNL     1       3.283  20.167  18.295  0.00  0.00    +0.070 C 
ATOM     59  H   UNL     1       2.385  19.904  17.715  0.00  0.00    +0.061 HD
BRANCH  58  60
ATOM     60  C   UNL     1       3.367  21.728  18.290  0.00  0.00    +0.002 C 
ATOM     61  H   UNL     1       4.185  22.040  17.631  0.00  0.00    +0.037 HD
BRANCH  60  62
ATOM     62  C   UNL     1       3.646  22.292  19.690  0.00  0.00    -0.057 C 
ATOM     63  H   UNL     1       4.338  23.138  19.653  0.00  0.00    +0.024 HD
ATOM     64  H   UNL     1       2.726  22.662  20.156  0.00  0.00    +0.024 HD
ATOM     65  H   UNL     1       4.084  21.535  20.349  0.00  0.00    +0.024 HD
ENDBRANCH  60  62
BRANCH  60  66
ATOM     66  C   UNL     1       2.117  22.323  17.642  0.00  0.00    -0.065 C 
ATOM     67  C   UNL     1       0.994  21.679  17.293  0.00  0.00    -0.005 C 
ATOM     68  H   UNL     1       2.217  23.392  17.474  0.00  0.00    +0.059 HD
ATOM     69  H   UNL     1       0.916  20.608  17.474  0.00  0.00    +0.078 HD
BRANCH  67  70
ATOM     70  N   UNL     1      -0.135  22.224  16.697  0.00  0.00    -0.284 N 
ATOM     71  C   UNL     1      -0.154  22.923  15.496  0.00  0.00    +0.206 C 
ATOM     72  O   UNL     1      -1.141  23.408  14.953  0.00  0.00    -0.279 OA
ATOM     73  H   UNL     1       0.831  23.025  15.022  0.00  0.00    +0.126 HD
BRANCH  70  74
ATOM     74  C   UNL     1      -1.404  22.047  17.396  0.00  0.00    +0.007 C 
ATOM     75  H   UNL     1      -1.207  21.626  18.388  0.00  0.00    +0.043 HD
ATOM     76  H   UNL     1      -2.081  21.376  16.860  0.00  0.00    +0.043 HD
ATOM     77  H   UNL     1      -1.887  23.024  17.500  0.00  0.00    +0.043 HD
ENDBRANCH  70  74
ENDBRANCH  67  70
ENDBRANCH  60  66
ENDBRANCH  58  60
BRANCH  58  78
ATOM     78  O   UNL     1       4.443  19.639  17.633  0.00  0.00    -0.379 OA
BRANCH  78  79
ATOM     79  C   UNL     1       4.895  20.455  16.559  0.00  0.00    +0.037 C 
ATOM     80  H   UNL     1       4.055  20.966  16.078  0.00  0.00    +0.052 HD
ATOM     81  H   UNL     1       5.443  19.861  15.822  0.00  0.00    +0.052 HD
ATOM     82  H   UNL     1       5.570  21.210  16.965  0.00  0.00    +0.052 HD
ENDBRANCH  78  79
ENDBRANCH  58  78
ENDBRANCH  52  58
ENDBRANCH  50  52
BRANCH  50  83
ATOM     83  O   UNL     1       3.634  17.108  20.013  0.00  0.00    -0.459 OA
BRANCH  83  85
ATOM     84  O   UNL     1       5.005  16.201  18.409  0.00  0.00    -0.248 OA
ATOM     85  C   UNL     1       4.473  16.149  19.509  0.00  0.00    +0.337 C 
BRANCH  85  86
ATOM     86  C   UNL     1       4.676  15.039  20.546  0.00  0.00    +0.155 C 
ATOM     87  O   UNL     1       4.796  13.733  19.954  0.00  0.00    -0.365 OA
ATOM     88  C   UNL     1       3.805  12.875  20.530  0.00  0.00    +0.049 C 
ATOM     89  C   UNL     1       3.445  13.495  21.860  0.00  0.00    -0.027 C 
ATOM     90  C   UNL     1       3.524  14.966  21.540  0.00  0.00    -0.014 C 
ATOM     91  H   UNL     1       5.628  15.232  21.058  0.00  0.00    +0.071 HD
ATOM     92  H   UNL     1       2.940  12.847  19.855  0.00  0.00    +0.056 HD
ATOM     93  H   UNL     1       4.207  11.863  20.630  0.00  0.00    +0.056 HD
ATOM     94  H   UNL     1       4.204  13.240  22.611  0.00  0.00    +0.029 HD
ATOM     95  H   UNL     1       2.466  13.178  22.232  0.00  0.00    +0.029 HD
ATOM     96  H   UNL     1       3.701  15.582  22.428  0.00  0.00    +0.030 HD
ATOM     97  H   UNL     1       2.584  15.301  21.081  0.00  0.00    +0.030 HD
ENDBRANCH  85  86
ENDBRANCH  83  85
ENDBRANCH  50  83
ENDBRANCH   1  50
TORSDOF 31
ENDMDL
MODEL 7
REMARK VINA RESULT:      -4.8      2.230      8.246
REMARK  Name = 2u_conf2
REMARK  31 active torsions:
REMARK  status: ('A' for Active; 'I' for Inactive)
REMARK    1  A    between atoms: C_2  and  C_3
REMARK    2  A    between atoms: C_2  and  O_8
REMARK    3  A    between atoms: O_8  and  C_9
REMARK    4  A    between atoms: C_9  and  C_10
REMARK    5  A    between atoms: C_9  and  C_29
REMARK    6  A    between atoms: C_10  and  C_11
REMARK    7  A    between atoms: C_11  and  C_12
REMARK    8  A    between atoms: C_12  and  C_13
REMARK    9  A    between atoms: C_12  and  C_14
REMARK   10  A    between atoms: C_14  and  O_15
REMARK   11  A    between atoms: C_14  and  C_17
REMARK   12  A    between atoms: O_15  and  C_16
REMARK   13  A    between atoms: C_17  and  C_18
REMARK   14  A    between atoms: C_18  and  O_19
REMARK   15  A    between atoms: C_18  and  C_26
REMARK   16  A    between atoms: O_19  and  C_20
REMARK   17  A    between atoms: C_20  and  C_21
REMARK   18  A    between atoms: C_21  and  C_22
REMARK   19  A    between atoms: C_22  and  C_23
REMARK   20  A    between atoms: C_23  and  N_24
REMARK   21  A    between atoms: C_26  and  C_27
REMARK   22  A    between atoms: C_26  and  C_28
REMARK   23  A    between atoms: C_29  and  C_30
REMARK   24  A    between atoms: C_29  and  C_31
REMARK   25  A    between atoms: C_31  and  O_32
REMARK   26  A    between atoms: C_31  and  C_34
REMARK   27  A    between atoms: O_32  and  C_33
REMARK   28  A    between atoms: C_34  and  C_35
REMARK   29  A    between atoms: C_34  and  C_36
REMARK   30  A    between atoms: C_37  and  N_38
REMARK   31  A    between atoms: N_38  and  C_39
REMARK                            x       y       z     vdW  Elec       q    Type
REMARK                         _______ _______ _______ _____ _____    ______ ____
ROOT
ATOM      1  C   UNL     1       4.257  16.561  23.012  0.00  0.00    -0.015 C 
ATOM      2  H   UNL     1       4.256  17.426  23.675  0.00  0.00    +0.030 HD
ATOM      3  H   UNL     1       3.227  16.189  23.015  0.00  0.00    +0.030 HD
ENDROOT
BRANCH   1   4
ATOM      4  C   UNL     1       5.186  15.488  23.603  0.00  0.00    -0.045 C 
ATOM      5  H   UNL     1       6.180  15.574  23.151  0.00  0.00    +0.027 HD
ATOM      6  H   UNL     1       4.820  14.495  23.315  0.00  0.00    +0.027 HD
BRANCH   4   7
ATOM      7  C   UNL     1       5.319  15.523  25.143  0.00  0.00    -0.017 C 
ATOM      8  H   UNL     1       4.932  14.563  25.518  0.00  0.00    +0.032 HD
BRANCH   7   9
ATOM      9  C   UNL     1       4.394  16.599  25.733  0.00  0.00    -0.060 C 
ATOM     10  H   UNL     1       3.346  16.389  25.494  0.00  0.00    +0.023 HD
ATOM     11  H   UNL     1       4.624  17.586  25.317  0.00  0.00    +0.023 HD
ATOM     12  H   UNL     1       4.484  16.659  26.822  0.00  0.00    +0.023 HD
ENDBRANCH   7   9
BRANCH   7  13
ATOM     13  C   UNL     1       6.773  15.679  25.668  0.00  0.00    +0.064 C 
ATOM     14  H   UNL     1       6.791  15.527  26.754  0.00  0.00    +0.060 HD
BRANCH  13  15
ATOM     15  C   UNL     1       7.363  17.062  25.325  0.00  0.00    +0.011 C 
ATOM     16  H   UNL     1       6.553  17.706  24.968  0.00  0.00    +0.033 HD
ATOM     17  H   UNL     1       7.780  17.505  26.234  0.00  0.00    +0.033 HD
BRANCH  15  18
ATOM     18  C   UNL     1       8.469  16.991  24.256  0.00  0.00    +0.108 C 
ATOM     19  H   UNL     1       8.663  15.941  24.008  0.00  0.00    +0.074 HD
BRANCH  18  20
ATOM     20  C   UNL     1       8.132  17.753  22.947  0.00  0.00    -0.009 C 
ATOM     21  H   UNL     1       7.397  17.148  22.398  0.00  0.00    +0.033 HD
BRANCH  20  22
ATOM     22  C   UNL     1       7.485  19.112  23.219  0.00  0.00    -0.059 C 
ATOM     23  H   UNL     1       6.661  19.289  22.520  0.00  0.00    +0.023 HD
ATOM     24  H   UNL     1       8.195  19.935  23.100  0.00  0.00    +0.023 HD
ATOM     25  H   UNL     1       7.073  19.156  24.232  0.00  0.00    +0.023 HD
ENDBRANCH  20  22
BRANCH  20  26
ATOM     26  C   UNL     1       9.334  17.916  22.014  0.00  0.00    -0.059 C 
ATOM     27  H   UNL     1      10.060  18.615  22.444  0.00  0.00    +0.023 HD
ATOM     28  H   UNL     1       9.852  16.967  21.845  0.00  0.00    +0.023 HD
ATOM     29  H   UNL     1       9.033  18.319  21.043  0.00  0.00    +0.023 HD
ENDBRANCH  20  26
ENDBRANCH  18  20
BRANCH  18  30
ATOM     30  O   UNL     1       9.653  17.587  24.841  0.00  0.00    -0.461 OA
BRANCH  30  31
ATOM     31  C   UNL     1      10.489  16.757  25.528  0.00  0.00    +0.307 C 
ATOM     32  O   UNL     1      10.428  16.525  26.727  0.00  0.00    -0.251 OA
BRANCH  31  33
ATOM     33  C   UNL     1      11.479  16.147  24.564  0.00  0.00    +0.046 C 
ATOM     34  H   UNL     1      12.466  16.568  24.784  0.00  0.00    +0.038 HD
ATOM     35  H   UNL     1      11.181  16.439  23.552  0.00  0.00    +0.038 HD
BRANCH  33  36
ATOM     36  C   UNL     1      11.525  14.625  24.675  0.00  0.00    -0.031 C 
ATOM     37  H   UNL     1      12.568  14.289  24.729  0.00  0.00    +0.028 HD
ATOM     38  H   UNL     1      11.051  14.311  25.617  0.00  0.00    +0.028 HD
BRANCH  36  39
ATOM     39  C   UNL     1      10.806  13.913  23.528  0.00  0.00    -0.006 C 
ATOM     40  H   UNL     1      10.643  12.867  23.809  0.00  0.00    +0.042 HD
ATOM     41  H   UNL     1       9.821  14.362  23.360  0.00  0.00    +0.042 HD
BRANCH  39  42
ATOM     42  N   UNL     1      11.574  13.947  22.288  0.00  0.00    -0.330 NA
ATOM     43  H   UNL     1      12.122  14.804  22.239  0.00  0.00    +0.118 HD
ATOM     44  H   UNL     1      10.927  13.990  21.500  0.00  0.00    +0.118 HD
ENDBRANCH  39  42
ENDBRANCH  36  39
ENDBRANCH  33  36
ENDBRANCH  31  33
ENDBRANCH  30  31
ENDBRANCH  18  30
ENDBRANCH  15  18
ENDBRANCH  13  15
BRANCH  13  45
ATOM     45  O   UNL     1       7.589  14.694  25.011  0.00  0.00    -0.379 OA
BRANCH  45  46
ATOM     46  C   UNL     1       7.935  13.601  25.853  0.00  0.00    +0.037 C 
ATOM     47  H   UNL     1       7.084  13.389  26.506  0.00  0.00    +0.052 HD
ATOM     48  H   UNL     1       8.801  13.848  26.475  0.00  0.00    +0.052 HD
ATOM     49  H   UNL     1       8.147  12.710  25.255  0.00  0.00    +0.052 HD
ENDBRANCH  45  46
ENDBRANCH  13  45
ENDBRANCH   7  13
ENDBRANCH   4   7
ENDBRANCH   1   4
BRANCH   1  50
ATOM     50  C   UNL     1       4.657  16.957  21.572  0.00  0.00    +0.108 C 
ATOM     51  H   UNL     1       5.728  16.755  21.430  0.00  0.00    +0.074 HD
BRANCH  50  52
ATOM     52  C   UNL     1       4.466  18.450  21.166  0.00  0.00    +0.020 C 
ATOM     53  H   UNL     1       5.475  18.884  21.145  0.00  0.00    +0.036 HD
BRANCH  52  54
ATOM     54  C   UNL     1       3.716  19.205  22.275  0.00  0.00    -0.057 C 
ATOM     55  H   UNL     1       3.089  19.996  21.851  0.00  0.00    +0.023 HD
ATOM     56  H   UNL     1       4.399  19.665  22.992  0.00  0.00    +0.023 HD
ATOM     57  H   UNL     1       3.056  18.528  22.824  0.00  0.00    +0.023 HD
ENDBRANCH  52  54
BRANCH  52  58
ATOM     58  C   UNL     1       3.830  18.774  19.776  0.00  0.00    +0.070 C 
ATOM     59  H   UNL     1       3.666  17.809  19.273  0.00  0.00    +0.061 HD
BRANCH  58  60
ATOM     60  C   UNL     1       2.446  19.499  19.798  0.00  0.00    +0.002 C 
ATOM     61  H   UNL     1       2.341  20.041  20.746  0.00  0.00    +0.037 HD
BRANCH  60  62
ATOM     62  C   UNL     1       1.278  18.510  19.687  0.00  0.00    -0.057 C 
ATOM     63  H   UNL     1       1.629  17.489  19.515  0.00  0.00    +0.024 HD
ATOM     64  H   UNL     1       0.692  18.487  20.611  0.00  0.00    +0.024 HD
ATOM     65  H   UNL     1       0.607  18.772  18.861  0.00  0.00    +0.024 HD
ENDBRANCH  60  62
BRANCH  60  66
ATOM     66  C   UNL     1       2.406  20.596  18.733  0.00  0.00    -0.065 C 
ATOM     67  C   UNL     1       1.332  21.054  18.074  0.00  0.00    -0.005 C 
ATOM     68  H   UNL     1       3.393  21.007  18.538  0.00  0.00    +0.059 HD
ATOM     69  H   UNL     1       0.354  20.628  18.290  0.00  0.00    +0.078 HD
BRANCH  67  70
ATOM     70  N   UNL     1       1.304  22.044  17.102  0.00  0.00    -0.284 N 
ATOM     71  C   UNL     1       1.127  21.831  15.740  0.00  0.00    +0.206 C 
ATOM     72  O   UNL     1       1.095  22.693  14.868  0.00  0.00    -0.279 OA
ATOM     73  H   UNL     1       1.004  20.776  15.464  0.00  0.00    +0.126 HD
BRANCH  70  74
ATOM     74  C   UNL     1       1.479  23.420  17.554  0.00  0.00    +0.007 C 
ATOM     75  H   UNL     1       1.764  24.042  16.698  0.00  0.00    +0.043 HD
ATOM     76  H   UNL     1       2.254  23.508  18.321  0.00  0.00    +0.043 HD
ATOM     77  H   UNL     1       0.531  23.778  17.968  0.00  0.00    +0.043 HD
ENDBRANCH  70  74
ENDBRANCH  67  70
ENDBRANCH  60  66
ENDBRANCH  58  60
BRANCH  58  78
ATOM     78  O   UNL     1       4.751  19.559  19.001  0.00  0.00    -0.379 OA
BRANCH  78  79
ATOM     79  C   UNL     1       5.915  19.936  19.727  0.00  0.00    +0.037 C 
ATOM     80  H   UNL     1       6.735  20.188  19.047  0.00  0.00    +0.052 HD
ATOM     81  H   UNL     1       6.226  19.137  20.407  0.00  0.00    +0.052 HD
ATOM     82  H   UNL     1       5.676  20.821  20.320  0.00  0.00    +0.052 HD
ENDBRANCH  78  79
ENDBRANCH  58  78
ENDBRANCH  52  58
ENDBRANCH  50  52
BRANCH  50  83
ATOM     83  O   UNL     1       3.931  16.114  20.647  0.00  0.00    -0.459 OA
BRANCH  83  85
ATOM     84  O   UNL     1       5.899  15.130  19.988  0.00  0.00    -0.248 OA
ATOM     85  C   UNL     1       4.690  15.274  19.875  0.00  0.00    +0.337 C 
BRANCH  85  86
ATOM     86  C   UNL     1       3.790  14.517  18.891  0.00  0.00    +0.155 C 
ATOM     87  O   UNL     1       2.516  15.155  18.692  0.00  0.00    -0.365 OA
ATOM     88  C   UNL     1       1.479  14.213  18.992  0.00  0.00    +0.049 C 
ATOM     89  C   UNL     1       2.107  12.848  18.842  0.00  0.00    -0.027 C 
ATOM     90  C   UNL     1       3.501  13.096  19.357  0.00  0.00    -0.014 C 
ATOM     91  H   UNL     1       4.290  14.520  17.915  0.00  0.00    +0.071 HD
ATOM     92  H   UNL     1       1.145  14.388  20.022  0.00  0.00    +0.056 HD
ATOM     93  H   UNL     1       0.634  14.367  18.316  0.00  0.00    +0.056 HD
ATOM     94  H   UNL     1       2.150  12.568  17.782  0.00  0.00    +0.029 HD
ATOM     95  H   UNL     1       1.570  12.065  19.387  0.00  0.00    +0.029 HD
ATOM     96  H   UNL     1       4.229  12.376  18.968  0.00  0.00    +0.030 HD
ATOM     97  H   UNL     1       3.514  13.028  20.453  0.00  0.00    +0.030 HD
ENDBRANCH  85  86
ENDBRANCH  83  85
ENDBRANCH  50  83
ENDBRANCH   1  50
TORSDOF 31
ENDMDL
MODEL 8
REMARK VINA RESULT:      -4.8      6.707     11.105
REMARK  Name = 2u_conf2
REMARK  31 active torsions:
REMARK  status: ('A' for Active; 'I' for Inactive)
REMARK    1  A    between atoms: C_2  and  C_3
REMARK    2  A    between atoms: C_2  and  O_8
REMARK    3  A    between atoms: O_8  and  C_9
REMARK    4  A    between atoms: C_9  and  C_10
REMARK    5  A    between atoms: C_9  and  C_29
REMARK    6  A    between atoms: C_10  and  C_11
REMARK    7  A    between atoms: C_11  and  C_12
REMARK    8  A    between atoms: C_12  and  C_13
REMARK    9  A    between atoms: C_12  and  C_14
REMARK   10  A    between atoms: C_14  and  O_15
REMARK   11  A    between atoms: C_14  and  C_17
REMARK   12  A    between atoms: O_15  and  C_16
REMARK   13  A    between atoms: C_17  and  C_18
REMARK   14  A    between atoms: C_18  and  O_19
REMARK   15  A    between atoms: C_18  and  C_26
REMARK   16  A    between atoms: O_19  and  C_20
REMARK   17  A    between atoms: C_20  and  C_21
REMARK   18  A    between atoms: C_21  and  C_22
REMARK   19  A    between atoms: C_22  and  C_23
REMARK   20  A    between atoms: C_23  and  N_24
REMARK   21  A    between atoms: C_26  and  C_27
REMARK   22  A    between atoms: C_26  and  C_28
REMARK   23  A    between atoms: C_29  and  C_30
REMARK   24  A    between atoms: C_29  and  C_31
REMARK   25  A    between atoms: C_31  and  O_32
REMARK   26  A    between atoms: C_31  and  C_34
REMARK   27  A    between atoms: O_32  and  C_33
REMARK   28  A    between atoms: C_34  and  C_35
REMARK   29  A    between atoms: C_34  and  C_36
REMARK   30  A    between atoms: C_37  and  N_38
REMARK   31  A    between atoms: N_38  and  C_39
REMARK                            x       y       z     vdW  Elec       q    Type
REMARK                         _______ _______ _______ _____ _____    ______ ____
ROOT
ATOM      1  C   UNL     1      -2.046  15.047  17.549  0.00  0.00    -0.015 C 
ATOM      2  H   UNL     1      -2.197  14.580  16.576  0.00  0.00    +0.030 HD
ATOM      3  H   UNL     1      -1.670  16.053  17.337  0.00  0.00    +0.030 HD
ENDROOT
BRANCH   1   4
ATOM      4  C   UNL     1      -0.972  14.256  18.314  0.00  0.00    -0.045 C 
ATOM      5  H   UNL     1      -1.058  13.191  18.071  0.00  0.00    +0.027 HD
ATOM      6  H   UNL     1      -1.170  14.325  19.391  0.00  0.00    +0.027 HD
BRANCH   4   7
ATOM      7  C   UNL     1       0.480  14.723  18.063  0.00  0.00    -0.017 C 
ATOM      8  H   UNL     1       0.475  15.282  17.115  0.00  0.00    +0.032 HD
BRANCH   7   9
ATOM      9  C   UNL     1       1.394  13.511  17.822  0.00  0.00    -0.060 C 
ATOM     10  H   UNL     1       0.832  12.574  17.902  0.00  0.00    +0.023 HD
ATOM     11  H   UNL     1       2.195  13.468  18.568  0.00  0.00    +0.023 HD
ATOM     12  H   UNL     1       1.854  13.541  16.829  0.00  0.00    +0.023 HD
ENDBRANCH   7   9
BRANCH   7  13
ATOM     13  C   UNL     1       1.063  15.660  19.156  0.00  0.00    +0.064 C 
ATOM     14  H   UNL     1       1.934  16.194  18.759  0.00  0.00    +0.060 HD
BRANCH  13  15
ATOM     15  C   UNL     1       1.463  14.882  20.427  0.00  0.00    +0.011 C 
ATOM     16  H   UNL     1       0.698  15.049  21.192  0.00  0.00    +0.033 HD
ATOM     17  H   UNL     1       1.488  13.813  20.194  0.00  0.00    +0.033 HD
BRANCH  15  18
ATOM     18  C   UNL     1       2.838  15.303  20.977  0.00  0.00    +0.108 C 
ATOM     19  H   UNL     1       2.694  15.973  21.832  0.00  0.00    +0.074 HD
BRANCH  18  20
ATOM     20  C   UNL     1       3.729  14.114  21.426  0.00  0.00    -0.009 C 
ATOM     21  H   UNL     1       4.738  14.511  21.600  0.00  0.00    +0.033 HD
BRANCH  20  22
ATOM     22  C   UNL     1       3.251  13.498  22.742  0.00  0.00    -0.059 C 
ATOM     23  H   UNL     1       3.555  12.448  22.803  0.00  0.00    +0.023 HD
ATOM     24  H   UNL     1       2.162  13.528  22.837  0.00  0.00    +0.023 HD
ATOM     25  H   UNL     1       3.686  14.019  23.600  0.00  0.00    +0.023 HD
ENDBRANCH  20  22
BRANCH  20  26
ATOM     26  C   UNL     1       3.875  13.030  20.355  0.00  0.00    -0.059 C 
ATOM     27  H   UNL     1       3.078  13.119  19.609  0.00  0.00    +0.023 HD
ATOM     28  H   UNL     1       4.830  13.104  19.827  0.00  0.00    +0.023 HD
ATOM     29  H   UNL     1       3.801  12.029  20.790  0.00  0.00    +0.023 HD
ENDBRANCH  20  26
ENDBRANCH  18  20
BRANCH  18  30
ATOM     30  O   UNL     1       3.518  16.006  19.907  0.00  0.00    -0.461 OA
BRANCH  30  31
ATOM     31  C   UNL     1       4.528  16.849  20.264  0.00  0.00    +0.307 C 
ATOM     32  O   UNL     1       5.722  16.604  20.171  0.00  0.00    -0.251 OA
BRANCH  31  33
ATOM     33  C   UNL     1       3.934  18.146  20.760  0.00  0.00    +0.046 C 
ATOM     34  H   UNL     1       4.525  18.480  21.619  0.00  0.00    +0.038 HD
ATOM     35  H   UNL     1       2.910  17.940  21.086  0.00  0.00    +0.038 HD
BRANCH  33  36
ATOM     36  C   UNL     1       3.929  19.226  19.679  0.00  0.00    -0.031 C 
ATOM     37  H   UNL     1       3.753  18.766  18.699  0.00  0.00    +0.028 HD
ATOM     38  H   UNL     1       3.089  19.913  19.852  0.00  0.00    +0.028 HD
BRANCH  36  39
ATOM     39  C   UNL     1       5.215  20.053  19.645  0.00  0.00    -0.006 C 
ATOM     40  H   UNL     1       4.971  21.095  19.877  0.00  0.00    +0.042 HD
ATOM     41  H   UNL     1       5.913  19.703  20.414  0.00  0.00    +0.042 HD
BRANCH  39  42
ATOM     42  N   UNL     1       5.868  20.007  18.340  0.00  0.00    -0.330 NA
ATOM     43  H   UNL     1       6.693  20.605  18.341  0.00  0.00    +0.118 HD
ATOM     44  H   UNL     1       5.239  20.407  17.642  0.00  0.00    +0.118 HD
ENDBRANCH  39  42
ENDBRANCH  36  39
ENDBRANCH  33  36
ENDBRANCH  31  33
ENDBRANCH  30  31
ENDBRANCH  18  30
ENDBRANCH  15  18
ENDBRANCH  13  15
BRANCH  13  45
ATOM     45  O   UNL     1       0.034  16.591  19.535  0.00  0.00    -0.379 OA
BRANCH  45  46
ATOM     46  C   UNL     1       0.459  17.948  19.483  0.00  0.00    +0.037 C 
ATOM     47  H   UNL     1       0.879  18.212  20.457  0.00  0.00    +0.052 HD
ATOM     48  H   UNL     1      -0.385  18.612  19.273  0.00  0.00    +0.052 HD
ATOM     49  H   UNL     1       1.234  18.076  18.721  0.00  0.00    +0.052 HD
ENDBRANCH  45  46
ENDBRANCH  13  45
ENDBRANCH   7  13
ENDBRANCH   4   7
ENDBRANCH   1   4
BRANCH   1  50
ATOM     50  C   UNL     1      -3.373  15.148  18.336  0.00  0.00    +0.108 C 
ATOM     51  H   UNL     1      -3.173  14.966  19.401  0.00  0.00    +0.074 HD
BRANCH  50  52
ATOM     52  C   UNL     1      -4.503  14.144  17.956  0.00  0.00    +0.020 C 
ATOM     53  H   UNL     1      -4.129  13.592  17.083  0.00  0.00    +0.036 HD
BRANCH  52  54
ATOM     54  C   UNL     1      -5.742  14.906  17.460  0.00  0.00    -0.057 C 
ATOM     55  H   UNL     1      -5.664  15.119  16.389  0.00  0.00    +0.023 HD
ATOM     56  H   UNL     1      -5.876  15.854  17.984  0.00  0.00    +0.023 HD
ATOM     57  H   UNL     1      -6.646  14.308  17.606  0.00  0.00    +0.023 HD
ENDBRANCH  52  54
BRANCH  52  58
ATOM     58  C   UNL     1      -4.926  13.060  18.999  0.00  0.00    +0.070 C 
ATOM     59  H   UNL     1      -5.984  13.250  19.239  0.00  0.00    +0.061 HD
BRANCH  58  60
ATOM     60  C   UNL     1      -4.843  11.572  18.526  0.00  0.00    +0.002 C 
ATOM     61  H   UNL     1      -4.032  11.070  19.066  0.00  0.00    +0.037 HD
BRANCH  60  62
ATOM     62  C   UNL     1      -4.551  11.463  17.024  0.00  0.00    -0.057 C 
ATOM     63  H   UNL     1      -4.871  12.358  16.485  0.00  0.00    +0.024 HD
ATOM     64  H   UNL     1      -3.477  11.353  16.838  0.00  0.00    +0.024 HD
ATOM     65  H   UNL     1      -5.066  10.606  16.576  0.00  0.00    +0.024 HD
ENDBRANCH  60  62
BRANCH  60  66
ATOM     66  C   UNL     1      -6.101  10.812  18.949  0.00  0.00    -0.065 C 
ATOM     67  C   UNL     1      -6.304   9.487  18.914  0.00  0.00    -0.005 C 
ATOM     68  H   UNL     1      -6.878  11.483  19.307  0.00  0.00    +0.059 HD
ATOM     69  H   UNL     1      -5.509   8.837  18.553  0.00  0.00    +0.078 HD
BRANCH  67  70
ATOM     70  N   UNL     1      -7.452   8.805  19.290  0.00  0.00    -0.284 N 
ATOM     71  C   UNL     1      -8.667   9.392  19.621  0.00  0.00    +0.206 C 
ATOM     72  O   UNL     1      -9.692   8.805  19.952  0.00  0.00    -0.279 OA
ATOM     73  H   UNL     1      -8.664  10.488  19.564  0.00  0.00    +0.126 HD
BRANCH  70  74
ATOM     74  C   UNL     1      -7.368   7.348  19.344  0.00  0.00    +0.007 C 
ATOM     75  H   UNL     1      -6.447   7.027  18.848  0.00  0.00    +0.043 HD
ATOM     76  H   UNL     1      -8.217   6.867  18.850  0.00  0.00    +0.043 HD
ATOM     77  H   UNL     1      -7.349   7.036  20.394  0.00  0.00    +0.043 HD
ENDBRANCH  70  74
ENDBRANCH  67  70
ENDBRANCH  60  66
ENDBRANCH  58  60
BRANCH  58  78
ATOM     78  O   UNL     1      -4.139  13.211  20.191  0.00  0.00    -0.379 OA
BRANCH  78  79
ATOM     79  C   UNL     1      -4.893  13.671  21.306  0.00  0.00    +0.037 C 
ATOM     80  H   UNL     1      -4.705  14.734  21.493  0.00  0.00    +0.052 HD
ATOM     81  H   UNL     1      -4.662  13.088  22.202  0.00  0.00    +0.052 HD
ATOM     82  H   UNL     1      -5.953  13.546  21.076  0.00  0.00    +0.052 HD
ENDBRANCH  78  79
ENDBRANCH  58  78
ENDBRANCH  52  58
ENDBRANCH  50  52
BRANCH  50  83
ATOM     83  O   UNL     1      -3.875  16.500  18.214  0.00  0.00    -0.459 OA
BRANCH  83  85
ATOM     84  O   UNL     1      -3.202  16.961  20.361  0.00  0.00    -0.248 OA
ATOM     85  C   UNL     1      -3.641  17.328  19.279  0.00  0.00    +0.337 C 
BRANCH  85  86
ATOM     86  C   UNL     1      -3.965  18.776  18.894  0.00  0.00    +0.155 C 
ATOM     87  O   UNL     1      -4.266  19.604  20.031  0.00  0.00    -0.365 OA
ATOM     88  C   UNL     1      -5.556  20.197  19.839  0.00  0.00    +0.049 C 
ATOM     89  C   UNL     1      -5.803  20.171  18.349  0.00  0.00    -0.027 C 
ATOM     90  C   UNL     1      -5.162  18.865  17.957  0.00  0.00    -0.014 C 
ATOM     91  H   UNL     1      -3.067  19.205  18.431  0.00  0.00    +0.071 HD
ATOM     92  H   UNL     1      -6.296  19.591  20.377  0.00  0.00    +0.056 HD
ATOM     93  H   UNL     1      -5.562  21.210  20.251  0.00  0.00    +0.056 HD
ATOM     94  H   UNL     1      -5.272  21.001  17.866  0.00  0.00    +0.029 HD
ATOM     95  H   UNL     1      -6.864  20.237  18.087  0.00  0.00    +0.029 HD
ATOM     96  H   UNL     1      -4.867  18.839  16.903  0.00  0.00    +0.030 HD
ATOM     97  H   UNL     1      -5.863  18.037  18.130  0.00  0.00    +0.030 HD
ENDBRANCH  85  86
ENDBRANCH  83  85
ENDBRANCH  50  83
ENDBRANCH   1  50
TORSDOF 31
ENDMDL
MODEL 9
REMARK VINA RESULT:      -4.8      2.404      8.303
REMARK  Name = 2u_conf2
REMARK  31 active torsions:
REMARK  status: ('A' for Active; 'I' for Inactive)
REMARK    1  A    between atoms: C_2  and  C_3
REMARK    2  A    between atoms: C_2  and  O_8
REMARK    3  A    between atoms: O_8  and  C_9
REMARK    4  A    between atoms: C_9  and  C_10
REMARK    5  A    between atoms: C_9  and  C_29
REMARK    6  A    between atoms: C_10  and  C_11
REMARK    7  A    between atoms: C_11  and  C_12
REMARK    8  A    between atoms: C_12  and  C_13
REMARK    9  A    between atoms: C_12  and  C_14
REMARK   10  A    between atoms: C_14  and  O_15
REMARK   11  A    between atoms: C_14  and  C_17
REMARK   12  A    between atoms: O_15  and  C_16
REMARK   13  A    between atoms: C_17  and  C_18
REMARK   14  A    between atoms: C_18  and  O_19
REMARK   15  A    between atoms: C_18  and  C_26
REMARK   16  A    between atoms: O_19  and  C_20
REMARK   17  A    between atoms: C_20  and  C_21
REMARK   18  A    between atoms: C_21  and  C_22
REMARK   19  A    between atoms: C_22  and  C_23
REMARK   20  A    between atoms: C_23  and  N_24
REMARK   21  A    between atoms: C_26  and  C_27
REMARK   22  A    between atoms: C_26  and  C_28
REMARK   23  A    between atoms: C_29  and  C_30
REMARK   24  A    between atoms: C_29  and  C_31
REMARK   25  A    between atoms: C_31  and  O_32
REMARK   26  A    between atoms: C_31  and  C_34
REMARK   27  A    between atoms: O_32  and  C_33
REMARK   28  A    between atoms: C_34  and  C_35
REMARK   29  A    between atoms: C_34  and  C_36
REMARK   30  A    between atoms: C_37  and  N_38
REMARK   31  A    between atoms: N_38  and  C_39
REMARK                            x       y       z     vdW  Elec       q    Type
REMARK                         _______ _______ _______ _____ _____    ______ ____
ROOT
ATOM      1  C   UNL     1       6.420  17.458  21.843  0.00  0.00    -0.015 C 
ATOM      2  H   UNL     1       6.003  16.722  22.530  0.00  0.00    +0.030 HD
ATOM      3  H   UNL     1       7.167  16.917  21.253  0.00  0.00    +0.030 HD
ENDROOT
BRANCH   1   4
ATOM      4  C   UNL     1       7.119  18.555  22.661  0.00  0.00    -0.045 C 
ATOM      5  H   UNL     1       6.851  18.451  23.718  0.00  0.00    +0.027 HD
ATOM      6  H   UNL     1       6.730  19.535  22.358  0.00  0.00    +0.027 HD
BRANCH   4   7
ATOM      7  C   UNL     1       8.658  18.586  22.524  0.00  0.00    -0.017 C 
ATOM      8  H   UNL     1       9.032  19.278  23.294  0.00  0.00    +0.032 HD
BRANCH   7   9
ATOM      9  C   UNL     1       9.059  19.212  21.179  0.00  0.00    -0.060 C 
ATOM     10  H   UNL     1      10.111  19.517  21.186  0.00  0.00    +0.023 HD
ATOM     11  H   UNL     1       8.468  20.110  20.970  0.00  0.00    +0.023 HD
ATOM     12  H   UNL     1       8.920  18.512  20.349  0.00  0.00    +0.023 HD
ENDBRANCH   7   9
BRANCH   7  13
ATOM     13  C   UNL     1       9.360  17.217  22.742  0.00  0.00    +0.064 C 
ATOM     14  H   UNL     1       8.606  16.434  22.879  0.00  0.00    +0.060 HD
BRANCH  13  15
ATOM     15  C   UNL     1      10.310  17.246  23.958  0.00  0.00    +0.011 C 
ATOM     16  H   UNL     1      11.296  16.898  23.636  0.00  0.00    +0.033 HD
ATOM     17  H   UNL     1      10.407  18.278  24.308  0.00  0.00    +0.033 HD
BRANCH  15  18
ATOM     18  C   UNL     1       9.813  16.371  25.124  0.00  0.00    +0.108 C 
ATOM     19  H   UNL     1      10.528  15.557  25.294  0.00  0.00    +0.074 HD
BRANCH  18  20
ATOM     20  C   UNL     1       9.621  17.145  26.456  0.00  0.00    -0.009 C 
ATOM     21  H   UNL     1       8.850  16.616  27.032  0.00  0.00    +0.033 HD
BRANCH  20  22
ATOM     22  C   UNL     1      10.892  17.158  27.306  0.00  0.00    -0.059 C 
ATOM     23  H   UNL     1      10.717  16.650  28.260  0.00  0.00    +0.023 HD
ATOM     24  H   UNL     1      11.222  18.175  27.534  0.00  0.00    +0.023 HD
ATOM     25  H   UNL     1      11.710  16.636  26.799  0.00  0.00    +0.023 HD
ENDBRANCH  20  22
BRANCH  20  26
ATOM     26  C   UNL     1       9.102  18.571  26.257  0.00  0.00    -0.059 C 
ATOM     27  H   UNL     1       8.047  18.638  26.545  0.00  0.00    +0.023 HD
ATOM     28  H   UNL     1       9.655  19.295  26.863  0.00  0.00    +0.023 HD
ATOM     29  H   UNL     1       9.172  18.878  25.209  0.00  0.00    +0.023 HD
ENDBRANCH  20  26
ENDBRANCH  18  20
BRANCH  18  30
ATOM     30  O   UNL     1       8.531  15.828  24.721  0.00  0.00    -0.461 OA
BRANCH  30  31
ATOM     31  C   UNL     1       8.125  14.680  25.335  0.00  0.00    +0.307 C 
ATOM     32  O   UNL     1       8.830  13.706  25.555  0.00  0.00    -0.251 OA
BRANCH  31  33
ATOM     33  C   UNL     1       6.673  14.821  25.730  0.00  0.00    +0.046 C 
ATOM     34  H   UNL     1       6.597  14.629  26.805  0.00  0.00    +0.038 HD
ATOM     35  H   UNL     1       6.105  14.060  25.187  0.00  0.00    +0.038 HD
BRANCH  33  36
ATOM     36  C   UNL     1       6.123  16.209  25.409  0.00  0.00    -0.031 C 
ATOM     37  H   UNL     1       6.267  16.872  26.271  0.00  0.00    +0.028 HD
ATOM     38  H   UNL     1       6.699  16.649  24.583  0.00  0.00    +0.028 HD
BRANCH  36  39
ATOM     39  C   UNL     1       4.649  16.196  25.002  0.00  0.00    -0.006 C 
ATOM     40  H   UNL     1       4.057  16.645  25.806  0.00  0.00    +0.042 HD
ATOM     41  H   UNL     1       4.497  16.808  24.106  0.00  0.00    +0.042 HD
BRANCH  39  42
ATOM     42  N   UNL     1       4.154  14.846  24.757  0.00  0.00    -0.330 NA
ATOM     43  H   UNL     1       4.167  14.306  25.621  0.00  0.00    +0.118 HD
ATOM     44  H   UNL     1       4.797  14.367  24.125  0.00  0.00    +0.118 HD
ENDBRANCH  39  42
ENDBRANCH  36  39
ENDBRANCH  33  36
ENDBRANCH  31  33
ENDBRANCH  30  31
ENDBRANCH  18  30
ENDBRANCH  15  18
ENDBRANCH  13  15
BRANCH  13  45
ATOM     45  O   UNL     1      10.164  16.943  21.582  0.00  0.00    -0.379 OA
BRANCH  45  46
ATOM     46  C   UNL     1      11.329  16.180  21.875  0.00  0.00    +0.037 C 
ATOM     47  H   UNL     1      11.121  15.134  21.636  0.00  0.00    +0.052 HD
ATOM     48  H   UNL     1      11.584  16.253  22.937  0.00  0.00    +0.052 HD
ATOM     49  H   UNL     1      12.171  16.518  21.265  0.00  0.00    +0.052 HD
ENDBRANCH  45  46
ENDBRANCH  13  45
ENDBRANCH   7  13
ENDBRANCH   4   7
ENDBRANCH   1   4
BRANCH   1  50
ATOM     50  C   UNL     1       5.334  18.027  20.901  0.00  0.00    +0.108 C 
ATOM     51  H   UNL     1       5.760  18.149  19.896  0.00  0.00    +0.074 HD
BRANCH  50  52
ATOM     52  C   UNL     1       4.739  19.422  21.265  0.00  0.00    +0.020 C 
ATOM     53  H   UNL     1       5.472  19.892  21.935  0.00  0.00    +0.036 HD
BRANCH  52  54
ATOM     54  C   UNL     1       3.465  19.249  22.105  0.00  0.00    -0.057 C 
ATOM     55  H   UNL     1       3.066  18.235  22.003  0.00  0.00    +0.023 HD
ATOM     56  H   UNL     1       2.681  19.949  21.810  0.00  0.00    +0.023 HD
ATOM     57  H   UNL     1       3.677  19.408  23.166  0.00  0.00    +0.023 HD
ENDBRANCH  52  54
BRANCH  52  58
ATOM     58  C   UNL     1       4.486  20.452  20.117  0.00  0.00    +0.070 C 
ATOM     59  H   UNL     1       5.466  20.889  19.866  0.00  0.00    +0.061 HD
BRANCH  58  60
ATOM     60  C   UNL     1       3.907  19.877  18.784  0.00  0.00    +0.002 C 
ATOM     61  H   UNL     1       3.558  18.853  18.958  0.00  0.00    +0.037 HD
BRANCH  60  62
ATOM     62  C   UNL     1       4.961  19.836  17.670  0.00  0.00    -0.057 C 
ATOM     63  H   UNL     1       4.643  20.406  16.793  0.00  0.00    +0.024 HD
ATOM     64  H   UNL     1       5.906  20.278  18.005  0.00  0.00    +0.024 HD
ATOM     65  H   UNL     1       5.160  18.809  17.343  0.00  0.00    +0.024 HD
ENDBRANCH  60  62
BRANCH  60  66
ATOM     66  C   UNL     1       2.643  20.640  18.384  0.00  0.00    -0.065 C 
ATOM     67  C   UNL     1       2.246  20.968  17.147  0.00  0.00    -0.005 C 
ATOM     68  H   UNL     1       2.046  20.917  19.250  0.00  0.00    +0.059 HD
ATOM     69  H   UNL     1       2.860  20.677  16.296  0.00  0.00    +0.078 HD
BRANCH  67  70
ATOM     70  N   UNL     1       1.102  21.669  16.791  0.00  0.00    -0.284 N 
ATOM     71  C   UNL     1       0.864  22.248  15.551  0.00  0.00    +0.206 C 
ATOM     72  O   UNL     1      -0.141  22.867  15.218  0.00  0.00    -0.279 OA
ATOM     73  H   UNL     1       1.680  22.112  14.830  0.00  0.00    +0.126 HD
BRANCH  70  74
ATOM     74  C   UNL     1       0.067  21.808  17.811  0.00  0.00    +0.007 C 
ATOM     75  H   UNL     1       0.514  22.238  18.714  0.00  0.00    +0.043 HD
ATOM     76  H   UNL     1      -0.389  20.848  18.071  0.00  0.00    +0.043 HD
ATOM     77  H   UNL     1      -0.713  22.477  17.432  0.00  0.00    +0.043 HD
ENDBRANCH  70  74
ENDBRANCH  67  70
ENDBRANCH  60  66
ENDBRANCH  58  60
BRANCH  58  78
ATOM     78  O   UNL     1       3.615  21.491  20.591  0.00  0.00    -0.379 OA
BRANCH  78  79
ATOM     79  C   UNL     1       4.308  22.674  20.971  0.00  0.00    +0.037 C 
ATOM     80  H   UNL     1       5.080  22.926  20.237  0.00  0.00    +0.052 HD
ATOM     81  H   UNL     1       4.758  22.561  21.962  0.00  0.00    +0.052 HD
ATOM     82  H   UNL     1       3.589  23.494  21.009  0.00  0.00    +0.052 HD
ENDBRANCH  78  79
ENDBRANCH  58  78
ENDBRANCH  52  58
ENDBRANCH  50  52
BRANCH  50  83
ATOM     83  O   UNL     1       4.261  17.062  20.803  0.00  0.00    -0.459 OA
BRANCH  83  85
ATOM     84  O   UNL     1       4.949  16.471  18.693  0.00  0.00    -0.248 OA
ATOM     85  C   UNL     1       4.265  16.268  19.687  0.00  0.00    +0.337 C 
BRANCH  85  86
ATOM     86  C   UNL     1       3.327  15.074  19.894  0.00  0.00    +0.155 C 
ATOM     87  O   UNL     1       3.700  14.256  21.018  0.00  0.00    -0.365 OA
ATOM     88  C   UNL     1       3.877  12.908  20.567  0.00  0.00    +0.049 C 
ATOM     89  C   UNL     1       3.082  12.794  19.287  0.00  0.00    -0.027 C 
ATOM     90  C   UNL     1       3.289  14.157  18.678  0.00  0.00    -0.014 C 
ATOM     91  H   UNL     1       2.330  15.470  20.121  0.00  0.00    +0.071 HD
ATOM     92  H   UNL     1       4.947  12.744  20.388  0.00  0.00    +0.056 HD
ATOM     93  H   UNL     1       3.537  12.213  21.339  0.00  0.00    +0.056 HD
ATOM     94  H   UNL     1       2.018  12.652  19.517  0.00  0.00    +0.029 HD
ATOM     95  H   UNL     1       3.413  11.971  18.646  0.00  0.00    +0.029 HD
ATOM     96  H   UNL     1       2.495  14.431  17.976  0.00  0.00    +0.030 HD
ATOM     97  H   UNL     1       4.243  14.183  18.133  0.00  0.00    +0.030 HD
ENDBRANCH  85  86
ENDBRANCH  83  85
ENDBRANCH  50  83
ENDBRANCH   1  50
TORSDOF 31
ENDMDL
MODEL 10
REMARK VINA RESULT:      -4.7      6.382     10.856
REMARK  Name = 2u_conf2
REMARK  31 active torsions:
REMARK  status: ('A' for Active; 'I' for Inactive)
REMARK    1  A    between atoms: C_2  and  C_3
REMARK    2  A    between atoms: C_2  and  O_8
REMARK    3  A    between atoms: O_8  and  C_9
REMARK    4  A    between atoms: C_9  and  C_10
REMARK    5  A    between atoms: C_9  and  C_29
REMARK    6  A    between atoms: C_10  and  C_11
REMARK    7  A    between atoms: C_11  and  C_12
REMARK    8  A    between atoms: C_12  and  C_13
REMARK    9  A    between atoms: C_12  and  C_14
REMARK   10  A    between atoms: C_14  and  O_15
REMARK   11  A    between atoms: C_14  and  C_17
REMARK   12  A    between atoms: O_15  and  C_16
REMARK   13  A    between atoms: C_17  and  C_18
REMARK   14  A    between atoms: C_18  and  O_19
REMARK   15  A    between atoms: C_18  and  C_26
REMARK   16  A    between atoms: O_19  and  C_20
REMARK   17  A    between atoms: C_20  and  C_21
REMARK   18  A    between atoms: C_21  and  C_22
REMARK   19  A    between atoms: C_22  and  C_23
REMARK   20  A    between atoms: C_23  and  N_24
REMARK   21  A    between atoms: C_26  and  C_27
REMARK   22  A    between atoms: C_26  and  C_28
REMARK   23  A    between atoms: C_29  and  C_30
REMARK   24  A    between atoms: C_29  and  C_31
REMARK   25  A    between atoms: C_31  and  O_32
REMARK   26  A    between atoms: C_31  and  C_34
REMARK   27  A    between atoms: O_32  and  C_33
REMARK   28  A    between atoms: C_34  and  C_35
REMARK   29  A    between atoms: C_34  and  C_36
REMARK   30  A    between atoms: C_37  and  N_38
REMARK   31  A    between atoms: N_38  and  C_39
REMARK                            x       y       z     vdW  Elec       q    Type
REMARK                         _______ _______ _______ _____ _____    ______ ____
ROOT
ATOM      1  C   UNL     1      -2.062  15.198  17.438  0.00  0.00    -0.015 C 
ATOM      2  H   UNL     1      -2.098  14.641  16.502  0.00  0.00    +0.030 HD
ATOM      3  H   UNL     1      -1.604  16.160  17.189  0.00  0.00    +0.030 HD
ENDROOT
BRANCH   1   4
ATOM      4  C   UNL     1      -1.153  14.444  18.423  0.00  0.00    -0.045 C 
ATOM      5  H   UNL     1      -1.383  13.373  18.387  0.00  0.00    +0.027 HD
ATOM      6  H   UNL     1      -1.392  14.758  19.447  0.00  0.00    +0.027 HD
BRANCH   4   7
ATOM      7  C   UNL     1       0.362  14.651  18.198  0.00  0.00    -0.017 C 
ATOM      8  H   UNL     1       0.479  15.071  17.187  0.00  0.00    +0.032 HD
BRANCH   7   9
ATOM      9  C   UNL     1       1.084  13.295  18.167  0.00  0.00    -0.060 C 
ATOM     10  H   UNL     1       1.509  13.099  17.177  0.00  0.00    +0.023 HD
ATOM     11  H   UNL     1       0.392  12.474  18.385  0.00  0.00    +0.023 HD
ATOM     12  H   UNL     1       1.900  13.253  18.896  0.00  0.00    +0.023 HD
ENDBRANCH   7   9
BRANCH   7  13
ATOM     13  C   UNL     1       1.042  15.630  19.194  0.00  0.00    +0.064 C 
ATOM     14  H   UNL     1       1.898  16.113  18.710  0.00  0.00    +0.060 HD
BRANCH  13  15
ATOM     15  C   UNL     1       1.505  14.913  20.479  0.00  0.00    +0.011 C 
ATOM     16  H   UNL     1       0.798  15.146  21.281  0.00  0.00    +0.033 HD
ATOM     17  H   UNL     1       1.486  13.833  20.308  0.00  0.00    +0.033 HD
BRANCH  15  18
ATOM     18  C   UNL     1       2.926  15.322  20.912  0.00  0.00    +0.108 C 
ATOM     19  H   UNL     1       2.857  16.051  21.728  0.00  0.00    +0.074 HD
BRANCH  18  20
ATOM     20  C   UNL     1       3.807  14.135  21.383  0.00  0.00    -0.009 C 
ATOM     21  H   UNL     1       4.833  14.513  21.488  0.00  0.00    +0.033 HD
BRANCH  20  22
ATOM     22  C   UNL     1       3.379  13.604  22.752  0.00  0.00    -0.059 C 
ATOM     23  H   UNL     1       3.929  12.689  22.995  0.00  0.00    +0.023 HD
ATOM     24  H   UNL     1       2.313  13.361  22.783  0.00  0.00    +0.023 HD
ATOM     25  H   UNL     1       3.588  14.334  23.541  0.00  0.00    +0.023 HD
ENDBRANCH  20  22
BRANCH  20  26
ATOM     26  C   UNL     1       3.875  12.991  20.368  0.00  0.00    -0.059 C 
ATOM     27  H   UNL     1       3.058  12.281  20.538  0.00  0.00    +0.023 HD
ATOM     28  H   UNL     1       3.789  13.353  19.339  0.00  0.00    +0.023 HD
ATOM     29  H   UNL     1       4.812  12.434  20.459  0.00  0.00    +0.023 HD
ENDBRANCH  20  26
ENDBRANCH  18  20
BRANCH  18  30
ATOM     30  O   UNL     1       3.555  15.930  19.757  0.00  0.00    -0.461 OA
BRANCH  30  31
ATOM     31  C   UNL     1       4.177  17.128  19.950  0.00  0.00    +0.307 C 
ATOM     32  O   UNL     1       4.869  17.708  19.125  0.00  0.00    -0.251 OA
BRANCH  31  33
ATOM     33  C   UNL     1       3.845  17.637  21.333  0.00  0.00    +0.046 C 
ATOM     34  H   UNL     1       3.324  16.838  21.869  0.00  0.00    +0.038 HD
ATOM     35  H   UNL     1       3.171  18.493  21.220  0.00  0.00    +0.038 HD
BRANCH  33  36
ATOM     36  C   UNL     1       5.093  18.056  22.105  0.00  0.00    -0.031 C 
ATOM     37  H   UNL     1       5.849  18.439  21.408  0.00  0.00    +0.028 HD
ATOM     38  H   UNL     1       4.845  18.890  22.778  0.00  0.00    +0.028 HD
BRANCH  36  39
ATOM     39  C   UNL     1       5.687  16.929  22.951  0.00  0.00    -0.006 C 
ATOM     40  H   UNL     1       5.734  16.019  22.344  0.00  0.00    +0.042 HD
ATOM     41  H   UNL     1       6.714  17.176  23.246  0.00  0.00    +0.042 HD
BRANCH  39  42
ATOM     42  N   UNL     1       4.893  16.653  24.143  0.00  0.00    -0.330 NA
ATOM     43  H   UNL     1       4.951  17.436  24.792  0.00  0.00    +0.118 HD
ATOM     44  H   UNL     1       5.302  15.857  24.635  0.00  0.00    +0.118 HD
ENDBRANCH  39  42
ENDBRANCH  36  39
ENDBRANCH  33  36
ENDBRANCH  31  33
ENDBRANCH  30  31
ENDBRANCH  18  30
ENDBRANCH  15  18
ENDBRANCH  13  15
BRANCH  13  45
ATOM     45  O   UNL     1       0.066  16.612  19.585  0.00  0.00    -0.379 OA
BRANCH  45  46
ATOM     46  C   UNL     1       0.556  17.946  19.515  0.00  0.00    +0.037 C 
ATOM     47  H   UNL     1       1.287  18.000  18.704  0.00  0.00    +0.052 HD
ATOM     48  H   UNL     1       1.049  18.228  20.451  0.00  0.00    +0.052 HD
ATOM     49  H   UNL     1      -0.259  18.642  19.299  0.00  0.00    +0.052 HD
ENDBRANCH  45  46
ENDBRANCH  13  45
ENDBRANCH   7  13
ENDBRANCH   4   7
ENDBRANCH   1   4
BRANCH   1  50
ATOM     50  C   UNL     1      -3.480  15.433  18.007  0.00  0.00    +0.108 C 
ATOM     51  H   UNL     1      -3.562  14.931  18.981  0.00  0.00    +0.074 HD
BRANCH  50  52
ATOM     52  C   UNL     1      -4.680  14.899  17.169  0.00  0.00    +0.020 C 
ATOM     53  H   UNL     1      -4.242  14.495  16.246  0.00  0.00    +0.036 HD
BRANCH  52  54
ATOM     54  C   UNL     1      -5.573  16.067  16.722  0.00  0.00    -0.057 C 
ATOM     55  H   UNL     1      -5.061  16.686  15.979  0.00  0.00    +0.023 HD
ATOM     56  H   UNL     1      -5.856  16.710  17.558  0.00  0.00    +0.023 HD
ATOM     57  H   UNL     1      -6.490  15.695  16.257  0.00  0.00    +0.023 HD
ENDBRANCH  52  54
BRANCH  52  58
ATOM     58  C   UNL     1      -5.559  13.752  17.764  0.00  0.00    +0.070 C 
ATOM     59  H   UNL     1      -5.660  12.991  16.973  0.00  0.00    +0.061 HD
BRANCH  58  60
ATOM     60  C   UNL     1      -4.983  13.013  19.014  0.00  0.00    +0.002 C 
ATOM     61  H   UNL     1      -3.939  13.315  19.158  0.00  0.00    +0.037 HD
BRANCH  60  62
ATOM     62  C   UNL     1      -5.016  11.488  18.846  0.00  0.00    -0.057 C 
ATOM     63  H   UNL     1      -4.465  10.983  19.644  0.00  0.00    +0.024 HD
ATOM     64  H   UNL     1      -6.042  11.109  18.888  0.00  0.00    +0.024 HD
ATOM     65  H   UNL     1      -4.574  11.179  17.893  0.00  0.00    +0.024 HD
ENDBRANCH  60  62
BRANCH  60  66
ATOM     66  C   UNL     1      -5.689  13.491  20.284  0.00  0.00    -0.065 C 
ATOM     67  C   UNL     1      -5.160  14.191  21.298  0.00  0.00    -0.005 C 
ATOM     68  H   UNL     1      -6.735  13.196  20.301  0.00  0.00    +0.059 HD
ATOM     69  H   UNL     1      -4.110  14.476  21.256  0.00  0.00    +0.078 HD
BRANCH  67  70
ATOM     70  N   UNL     1      -5.805  14.614  22.451  0.00  0.00    -0.284 N 
ATOM     71  C   UNL     1      -6.614  13.823  23.258  0.00  0.00    +0.206 C 
ATOM     72  O   UNL     1      -7.188  14.178  24.282  0.00  0.00    -0.279 OA
ATOM     73  H   UNL     1      -6.718  12.788  22.909  0.00  0.00    +0.126 HD
BRANCH  70  74
ATOM     74  C   UNL     1      -5.616  16.007  22.842  0.00  0.00    +0.007 C 
ATOM     75  H   UNL     1      -5.973  16.139  23.869  0.00  0.00    +0.043 HD
ATOM     76  H   UNL     1      -6.161  16.697  22.192  0.00  0.00    +0.043 HD
ATOM     77  H   UNL     1      -4.548  16.245  22.791  0.00  0.00    +0.043 HD
ENDBRANCH  70  74
ENDBRANCH  67  70
ENDBRANCH  60  66
ENDBRANCH  58  60
BRANCH  58  78
ATOM     78  O   UNL     1      -6.860  14.267  18.089  0.00  0.00    -0.379 OA
BRANCH  78  79
ATOM     79  C   UNL     1      -7.921  13.505  17.526  0.00  0.00    +0.037 C 
ATOM     80  H   UNL     1      -7.547  12.828  16.752  0.00  0.00    +0.052 HD
ATOM     81  H   UNL     1      -8.693  14.159  17.110  0.00  0.00    +0.052 HD
ATOM     82  H   UNL     1      -8.369  12.904  18.320  0.00  0.00    +0.052 HD
ENDBRANCH  78  79
ENDBRANCH  58  78
ENDBRANCH  52  58
ENDBRANCH  50  52
BRANCH  50  83
ATOM     83  O   UNL     1      -3.651  16.852  18.235  0.00  0.00    -0.459 OA
BRANCH  83  85
ATOM     84  O   UNL     1      -3.055  16.696  20.448  0.00  0.00    -0.248 OA
ATOM     85  C   UNL     1      -3.663  17.254  19.545  0.00  0.00    +0.337 C 
BRANCH  85  86
ATOM     86  C   UNL     1      -4.509  18.524  19.692  0.00  0.00    +0.155 C 
ATOM     87  O   UNL     1      -4.118  19.331  20.817  0.00  0.00    -0.365 OA
ATOM     88  C   UNL     1      -5.262  19.536  21.654  0.00  0.00    +0.049 C 
ATOM     89  C   UNL     1      -6.466  19.322  20.767  0.00  0.00    -0.027 C 
ATOM     90  C   UNL     1      -5.989  18.210  19.869  0.00  0.00    -0.014 C 
ATOM     91  H   UNL     1      -4.340  19.140  18.799  0.00  0.00    +0.071 HD
ATOM     92  H   UNL     1      -5.229  18.799  22.467  0.00  0.00    +0.056 HD
ATOM     93  H   UNL     1      -5.228  20.539  22.087  0.00  0.00    +0.056 HD
ATOM     94  H   UNL     1      -6.655  20.222  20.168  0.00  0.00    +0.029 HD
ATOM     95  H   UNL     1      -7.375  19.077  21.325  0.00  0.00    +0.029 HD
ATOM     96  H   UNL     1      -6.524  18.178  18.915  0.00  0.00    +0.030 HD
ATOM     97  H   UNL     1      -6.130  17.240  20.366  0.00  0.00    +0.030 HD
ENDBRANCH  85  86
ENDBRANCH  83  85
ENDBRANCH  50  83
ENDBRANCH   1  50
TORSDOF 31
ENDMDL
