MODEL 1
REMARK VINA RESULT:      -5.3      0.000      0.000
REMARK  Name = 2u_conf1
REMARK  31 active torsions:
REMARK  status: ('A' for Active; 'I' for Inactive)
REMARK    1  A    between atoms: C_2  and  C_3
REMARK    2  A    between atoms: C_2  and  O_8
REMARK    3  A    between atoms: O_8  and  C_9
REMARK    4  A    between atoms: C_9  and  C_10
REMARK    5  A    between atoms: C_9  and  C_29
REMARK    6  A    between atoms: C_10  and  C_11
REMARK    7  A    between atoms: C_11  and  C_12
REMARK    8  A    between atoms: C_12  and  C_13
REMARK    9  A    between atoms: C_12  and  C_14
REMARK   10  A    between atoms: C_14  and  O_15
REMARK   11  A    between atoms: C_14  and  C_17
REMARK   12  A    between atoms: O_15  and  C_16
REMARK   13  A    between atoms: C_17  and  C_18
REMARK   14  A    between atoms: C_18  and  O_19
REMARK   15  A    between atoms: C_18  and  C_26
REMARK   16  A    between atoms: O_19  and  C_20
REMARK   17  A    between atoms: C_20  and  C_21
REMARK   18  A    between atoms: C_21  and  C_22
REMARK   19  A    between atoms: C_22  and  C_23
REMARK   20  A    between atoms: C_23  and  N_24
REMARK   21  A    between atoms: C_26  and  C_27
REMARK   22  A    between atoms: C_26  and  C_28
REMARK   23  A    between atoms: C_29  and  C_30
REMARK   24  A    between atoms: C_29  and  C_31
REMARK   25  A    between atoms: C_31  and  O_32
REMARK   26  A    between atoms: C_31  and  C_34
REMARK   27  A    between atoms: O_32  and  C_33
REMARK   28  A    between atoms: C_34  and  C_35
REMARK   29  A    between atoms: C_34  and  C_36
REMARK   30  A    between atoms: C_37  and  N_38
REMARK   31  A    between atoms: N_38  and  C_39
REMARK                            x       y       z     vdW  Elec       q    Type
REMARK                         _______ _______ _______ _____ _____    ______ ____
ROOT
ATOM      1  C   UNL     1       7.239  17.148  21.983  0.00  0.00    -0.015 C 
ATOM      2  H   UNL     1       7.884  16.442  21.464  0.00  0.00    +0.030 HD
ATOM      3  H   UNL     1       7.294  16.865  23.041  0.00  0.00    +0.030 HD
ENDROOT
BRANCH   1   4
ATOM      4  C   UNL     1       7.856  18.544  21.786  0.00  0.00    -0.045 C 
ATOM      5  H   UNL     1       7.056  19.289  21.873  0.00  0.00    +0.027 HD
ATOM      6  H   UNL     1       8.217  18.621  20.753  0.00  0.00    +0.027 HD
BRANCH   4   7
ATOM      7  C   UNL     1       8.998  18.912  22.761  0.00  0.00    -0.017 C 
ATOM      8  H   UNL     1       8.562  19.065  23.755  0.00  0.00    +0.032 HD
BRANCH   7   9
ATOM      9  C   UNL     1       9.594  20.259  22.322  0.00  0.00    -0.060 C 
ATOM     10  H   UNL     1       8.916  21.081  22.583  0.00  0.00    +0.023 HD
ATOM     11  H   UNL     1      10.545  20.460  22.824  0.00  0.00    +0.023 HD
ATOM     12  H   UNL     1       9.761  20.295  21.241  0.00  0.00    +0.023 HD
ENDBRANCH   7   9
BRANCH   7  13
ATOM     13  C   UNL     1      10.072  17.794  22.873  0.00  0.00    +0.064 C 
ATOM     14  H   UNL     1       9.570  16.820  22.861  0.00  0.00    +0.060 HD
BRANCH  13  15
ATOM     15  C   UNL     1      10.873  17.911  24.184  0.00  0.00    +0.011 C 
ATOM     16  H   UNL     1      10.849  18.956  24.510  0.00  0.00    +0.033 HD
ATOM     17  H   UNL     1      11.915  17.622  24.010  0.00  0.00    +0.033 HD
BRANCH  15  18
ATOM     18  C   UNL     1      10.300  17.016  25.302  0.00  0.00    +0.108 C 
ATOM     19  H   UNL     1      11.051  16.257  25.553  0.00  0.00    +0.074 HD
BRANCH  18  20
ATOM     20  C   UNL     1       9.973  17.839  26.574  0.00  0.00    -0.009 C 
ATOM     21  H   UNL     1       8.911  17.691  26.811  0.00  0.00    +0.033 HD
BRANCH  20  22
ATOM     22  C   UNL     1      10.795  17.420  27.797  0.00  0.00    -0.059 C 
ATOM     23  H   UNL     1      11.777  17.027  27.510  0.00  0.00    +0.023 HD
ATOM     24  H   UNL     1      10.962  18.278  28.459  0.00  0.00    +0.023 HD
ATOM     25  H   UNL     1      10.278  16.654  28.382  0.00  0.00    +0.023 HD
ENDBRANCH  20  22
BRANCH  20  26
ATOM     26  C   UNL     1      10.160  19.339  26.330  0.00  0.00    -0.059 C 
ATOM     27  H   UNL     1      10.552  19.542  25.329  0.00  0.00    +0.023 HD
ATOM     28  H   UNL     1       9.209  19.873  26.442  0.00  0.00    +0.023 HD
ATOM     29  H   UNL     1      10.863  19.763  27.054  0.00  0.00    +0.023 HD
ENDBRANCH  20  26
ENDBRANCH  18  20
BRANCH  18  30
ATOM     30  O   UNL     1       9.101  16.406  24.770  0.00  0.00    -0.461 OA
BRANCH  30  31
ATOM     31  C   UNL     1       8.709  15.210  25.289  0.00  0.00    +0.307 C 
ATOM     32  O   UNL     1       7.571  14.921  25.630  0.00  0.00    -0.251 OA
BRANCH  31  33
ATOM     33  C   UNL     1       9.922  14.332  25.503  0.00  0.00    +0.046 C 
ATOM     34  H   UNL     1      10.835  14.936  25.466  0.00  0.00    +0.038 HD
ATOM     35  H   UNL     1       9.832  13.928  26.519  0.00  0.00    +0.038 HD
BRANCH  33  36
ATOM     36  C   UNL     1      10.012  13.179  24.503  0.00  0.00    -0.031 C 
ATOM     37  H   UNL     1       9.025  12.728  24.337  0.00  0.00    +0.028 HD
ATOM     38  H   UNL     1      10.645  12.395  24.935  0.00  0.00    +0.028 HD
BRANCH  36  39
ATOM     39  C   UNL     1      10.626  13.585  23.162  0.00  0.00    -0.006 C 
ATOM     40  H   UNL     1      11.542  14.159  23.343  0.00  0.00    +0.042 HD
ATOM     41  H   UNL     1       9.933  14.240  22.622  0.00  0.00    +0.042 HD
BRANCH  39  42
ATOM     42  N   UNL     1      10.936  12.435  22.328  0.00  0.00    -0.330 NA
ATOM     43  H   UNL     1      11.416  12.738  21.476  0.00  0.00    +0.118 HD
ATOM     44  H   UNL     1      10.071  11.986  22.026  0.00  0.00    +0.118 HD
ENDBRANCH  39  42
ENDBRANCH  36  39
ENDBRANCH  33  36
ENDBRANCH  31  33
ENDBRANCH  30  31
ENDBRANCH  18  30
ENDBRANCH  15  18
ENDBRANCH  13  15
BRANCH  13  45
ATOM     45  O   UNL     1      10.988  17.907  21.777  0.00  0.00    -0.379 OA
BRANCH  45  46
ATOM     46  C   UNL     1      12.052  16.968  21.821  0.00  0.00    +0.037 C 
ATOM     47  H   UNL     1      12.166  16.464  20.858  0.00  0.00    +0.052 HD
ATOM     48  H   UNL     1      12.988  17.456  22.103  0.00  0.00    +0.052 HD
ATOM     49  H   UNL     1      11.812  16.216  22.579  0.00  0.00    +0.052 HD
ENDBRANCH  45  46
ENDBRANCH  13  45
ENDBRANCH   7  13
ENDBRANCH   4   7
ENDBRANCH   1   4
BRANCH   1  50
ATOM     50  C   UNL     1       5.792  17.006  21.481  0.00  0.00    +0.108 C 
ATOM     51  H   UNL     1       5.654  17.836  20.774  0.00  0.00    +0.074 HD
BRANCH  50  52
ATOM     52  C   UNL     1       4.687  17.155  22.564  0.00  0.00    +0.020 C 
ATOM     53  H   UNL     1       4.004  16.324  22.333  0.00  0.00    +0.036 HD
BRANCH  52  54
ATOM     54  C   UNL     1       3.811  18.395  22.343  0.00  0.00    -0.057 C 
ATOM     55  H   UNL     1       3.964  19.138  23.130  0.00  0.00    +0.023 HD
ATOM     56  H   UNL     1       2.752  18.116  22.366  0.00  0.00    +0.023 HD
ATOM     57  H   UNL     1       3.998  18.878  21.382  0.00  0.00    +0.023 HD
ENDBRANCH  52  54
BRANCH  52  58
ATOM     58  C   UNL     1       5.080  16.885  24.052  0.00  0.00    +0.070 C 
ATOM     59  H   UNL     1       6.101  16.479  24.053  0.00  0.00    +0.061 HD
BRANCH  58  60
ATOM     60  C   UNL     1       5.072  18.030  25.117  0.00  0.00    +0.002 C 
ATOM     61  H   UNL     1       4.570  18.872  24.615  0.00  0.00    +0.037 HD
BRANCH  60  62
ATOM     62  C   UNL     1       6.462  18.582  25.448  0.00  0.00    -0.057 C 
ATOM     63  H   UNL     1       6.719  18.373  26.493  0.00  0.00    +0.024 HD
ATOM     64  H   UNL     1       6.501  19.669  25.325  0.00  0.00    +0.024 HD
ATOM     65  H   UNL     1       7.246  18.138  24.833  0.00  0.00    +0.024 HD
ENDBRANCH  60  62
BRANCH  60  66
ATOM     66  C   UNL     1       4.174  17.745  26.308  0.00  0.00    -0.065 C 
ATOM     67  C   UNL     1       4.535  17.655  27.598  0.00  0.00    -0.005 C 
ATOM     68  H   UNL     1       3.126  17.635  26.044  0.00  0.00    +0.059 HD
ATOM     69  H   UNL     1       5.577  17.793  27.877  0.00  0.00    +0.078 HD
BRANCH  67  70
ATOM     70  N   UNL     1       3.682  17.369  28.655  0.00  0.00    -0.284 N 
ATOM     71  C   UNL     1       4.185  17.170  29.938  0.00  0.00    +0.206 C 
ATOM     72  O   UNL     1       3.541  16.902  30.943  0.00  0.00    -0.279 OA
ATOM     73  H   UNL     1       5.283  17.276  29.989  0.00  0.00    +0.126 HD
BRANCH  70  74
ATOM     74  C   UNL     1       2.243  17.247  28.464  0.00  0.00    +0.007 C 
ATOM     75  H   UNL     1       1.994  16.472  27.734  0.00  0.00    +0.043 HD
ATOM     76  H   UNL     1       1.845  18.199  28.099  0.00  0.00    +0.043 HD
ATOM     77  H   UNL     1       1.773  16.981  29.417  0.00  0.00    +0.043 HD
ENDBRANCH  70  74
ENDBRANCH  67  70
ENDBRANCH  60  66
ENDBRANCH  58  60
BRANCH  58  78
ATOM     78  O   UNL     1       4.222  15.851  24.598  0.00  0.00    -0.379 OA
BRANCH  78  79
ATOM     79  C   UNL     1       4.208  14.645  23.841  0.00  0.00    +0.037 C 
ATOM     80  H   UNL     1       4.421  14.836  22.787  0.00  0.00    +0.052 HD
ATOM     81  H   UNL     1       3.206  14.212  23.911  0.00  0.00    +0.052 HD
ATOM     82  H   UNL     1       4.923  13.921  24.247  0.00  0.00    +0.052 HD
ENDBRANCH  78  79
ENDBRANCH  58  78
ENDBRANCH  52  58
ENDBRANCH  50  52
BRANCH  50  83
ATOM     83  O   UNL     1       5.649  15.760  20.771  0.00  0.00    -0.459 OA
BRANCH  83  85
ATOM     84  O   UNL     1       4.633  16.827  19.011  0.00  0.00    -0.248 OA
ATOM     85  C   UNL     1       4.920  15.802  19.614  0.00  0.00    +0.337 C 
BRANCH  85  86
ATOM     86  C   UNL     1       4.521  14.380  19.200  0.00  0.00    +0.155 C 
ATOM     87  O   UNL     1       3.368  14.370  18.343  0.00  0.00    -0.365 OA
ATOM     88  C   UNL     1       2.249  13.849  19.069  0.00  0.00    +0.049 C 
ATOM     89  C   UNL     1       2.663  13.768  20.521  0.00  0.00    -0.027 C 
ATOM     90  C   UNL     1       4.151  13.543  20.413  0.00  0.00    -0.014 C 
ATOM     91  H   UNL     1       5.358  13.949  18.641  0.00  0.00    +0.071 HD
ATOM     92  H   UNL     1       1.377  14.490  18.914  0.00  0.00    +0.056 HD
ATOM     93  H   UNL     1       2.025  12.853  18.668  0.00  0.00    +0.056 HD
ATOM     94  H   UNL     1       2.139  12.984  21.073  0.00  0.00    +0.029 HD
ATOM     95  H   UNL     1       2.467  14.724  21.020  0.00  0.00    +0.029 HD
ATOM     96  H   UNL     1       4.343  12.483  20.202  0.00  0.00    +0.030 HD
ATOM     97  H   UNL     1       4.682  13.807  21.331  0.00  0.00    +0.030 HD
ENDBRANCH  85  86
ENDBRANCH  83  85
ENDBRANCH  50  83
ENDBRANCH   1  50
TORSDOF 31
ENDMDL
MODEL 2
REMARK VINA RESULT:      -5.3      2.535      4.900
REMARK  Name = 2u_conf1
REMARK  31 active torsions:
REMARK  status: ('A' for Active; 'I' for Inactive)
REMARK    1  A    between atoms: C_2  and  C_3
REMARK    2  A    between atoms: C_2  and  O_8
REMARK    3  A    between atoms: O_8  and  C_9
REMARK    4  A    between atoms: C_9  and  C_10
REMARK    5  A    between atoms: C_9  and  C_29
REMARK    6  A    between atoms: C_10  and  C_11
REMARK    7  A    between atoms: C_11  and  C_12
REMARK    8  A    between atoms: C_12  and  C_13
REMARK    9  A    between atoms: C_12  and  C_14
REMARK   10  A    between atoms: C_14  and  O_15
REMARK   11  A    between atoms: C_14  and  C_17
REMARK   12  A    between atoms: O_15  and  C_16
REMARK   13  A    between atoms: C_17  and  C_18
REMARK   14  A    between atoms: C_18  and  O_19
REMARK   15  A    between atoms: C_18  and  C_26
REMARK   16  A    between atoms: O_19  and  C_20
REMARK   17  A    between atoms: C_20  and  C_21
REMARK   18  A    between atoms: C_21  and  C_22
REMARK   19  A    between atoms: C_22  and  C_23
REMARK   20  A    between atoms: C_23  and  N_24
REMARK   21  A    between atoms: C_26  and  C_27
REMARK   22  A    between atoms: C_26  and  C_28
REMARK   23  A    between atoms: C_29  and  C_30
REMARK   24  A    between atoms: C_29  and  C_31
REMARK   25  A    between atoms: C_31  and  O_32
REMARK   26  A    between atoms: C_31  and  C_34
REMARK   27  A    between atoms: O_32  and  C_33
REMARK   28  A    between atoms: C_34  and  C_35
REMARK   29  A    between atoms: C_34  and  C_36
REMARK   30  A    between atoms: C_37  and  N_38
REMARK   31  A    between atoms: N_38  and  C_39
REMARK                            x       y       z     vdW  Elec       q    Type
REMARK                         _______ _______ _______ _____ _____    ______ ____
ROOT
ATOM      1  C   UNL     1       4.549  16.513  21.932  0.00  0.00    -0.015 C 
ATOM      2  H   UNL     1       4.563  15.440  21.749  0.00  0.00    +0.030 HD
ATOM      3  H   UNL     1       3.662  16.688  22.551  0.00  0.00    +0.030 HD
ENDROOT
BRANCH   1   4
ATOM      4  C   UNL     1       5.818  16.845  22.736  0.00  0.00    -0.045 C 
ATOM      5  H   UNL     1       6.378  17.616  22.192  0.00  0.00    +0.027 HD
ATOM      6  H   UNL     1       6.467  15.961  22.742  0.00  0.00    +0.027 HD
BRANCH   4   7
ATOM      7  C   UNL     1       5.582  17.321  24.188  0.00  0.00    -0.017 C 
ATOM      8  H   UNL     1       5.346  16.443  24.801  0.00  0.00    +0.032 HD
BRANCH   7   9
ATOM      9  C   UNL     1       4.337  18.224  24.204  0.00  0.00    -0.060 C 
ATOM     10  H   UNL     1       4.347  18.905  23.345  0.00  0.00    +0.023 HD
ATOM     11  H   UNL     1       3.416  17.640  24.136  0.00  0.00    +0.023 HD
ATOM     12  H   UNL     1       4.293  18.834  25.112  0.00  0.00    +0.023 HD
ENDBRANCH   7   9
BRANCH   7  13
ATOM     13  C   UNL     1       6.830  18.017  24.799  0.00  0.00    +0.064 C 
ATOM     14  H   UNL     1       7.482  18.349  23.985  0.00  0.00    +0.060 HD
BRANCH  13  15
ATOM     15  C   UNL     1       7.628  17.052  25.697  0.00  0.00    +0.011 C 
ATOM     16  H   UNL     1       7.082  16.104  25.756  0.00  0.00    +0.033 HD
ATOM     17  H   UNL     1       7.714  17.469  26.706  0.00  0.00    +0.033 HD
BRANCH  15  18
ATOM     18  C   UNL     1       9.049  16.789  25.157  0.00  0.00    +0.108 C 
ATOM     19  H   UNL     1       8.968  16.511  24.099  0.00  0.00    +0.074 HD
BRANCH  18  20
ATOM     20  C   UNL     1       9.942  18.049  25.278  0.00  0.00    -0.009 C 
ATOM     21  H   UNL     1       9.463  18.861  24.714  0.00  0.00    +0.033 HD
BRANCH  20  22
ATOM     22  C   UNL     1      10.132  18.523  26.723  0.00  0.00    -0.059 C 
ATOM     23  H   UNL     1      10.623  19.503  26.767  0.00  0.00    +0.023 HD
ATOM     24  H   UNL     1       9.162  18.616  27.226  0.00  0.00    +0.023 HD
ATOM     25  H   UNL     1      10.731  17.814  27.301  0.00  0.00    +0.023 HD
ENDBRANCH  20  22
BRANCH  20  26
ATOM     26  C   UNL     1      11.314  17.824  24.636  0.00  0.00    -0.059 C 
ATOM     27  H   UNL     1      11.666  16.799  24.779  0.00  0.00    +0.023 HD
ATOM     28  H   UNL     1      11.278  18.028  23.560  0.00  0.00    +0.023 HD
ATOM     29  H   UNL     1      12.059  18.495  25.074  0.00  0.00    +0.023 HD
ENDBRANCH  20  26
ENDBRANCH  18  20
BRANCH  18  30
ATOM     30  O   UNL     1       9.594  15.702  25.940  0.00  0.00    -0.461 OA
BRANCH  30  31
ATOM     31  C   UNL     1       9.494  14.441  25.438  0.00  0.00    +0.307 C 
ATOM     32  O   UNL     1       8.525  13.704  25.552  0.00  0.00    -0.251 OA
BRANCH  31  33
ATOM     33  C   UNL     1      10.817  14.036  24.826  0.00  0.00    +0.046 C 
ATOM     34  H   UNL     1      11.580  14.791  25.046  0.00  0.00    +0.038 HD
ATOM     35  H   UNL     1      11.115  13.106  25.328  0.00  0.00    +0.038 HD
BRANCH  33  36
ATOM     36  C   UNL     1      10.732  13.795  23.318  0.00  0.00    -0.031 C 
ATOM     37  H   UNL     1       9.713  13.513  23.025  0.00  0.00    +0.028 HD
ATOM     38  H   UNL     1      11.377  12.945  23.067  0.00  0.00    +0.028 HD
BRANCH  36  39
ATOM     39  C   UNL     1      11.197  14.991  22.486  0.00  0.00    -0.006 C 
ATOM     40  H   UNL     1      11.918  14.651  21.734  0.00  0.00    +0.042 HD
ATOM     41  H   UNL     1      11.715  15.711  23.132  0.00  0.00    +0.042 HD
BRANCH  39  42
ATOM     42  N   UNL     1      10.092  15.664  21.823  0.00  0.00    -0.330 NA
ATOM     43  H   UNL     1       9.785  16.467  22.378  0.00  0.00    +0.118 HD
ATOM     44  H   UNL     1       9.291  15.034  21.763  0.00  0.00    +0.118 HD
ENDBRANCH  39  42
ENDBRANCH  36  39
ENDBRANCH  33  36
ENDBRANCH  31  33
ENDBRANCH  30  31
ENDBRANCH  18  30
ENDBRANCH  15  18
ENDBRANCH  13  15
BRANCH  13  45
ATOM     45  O   UNL     1       6.408  19.128  25.599  0.00  0.00    -0.379 OA
BRANCH  45  46
ATOM     46  C   UNL     1       6.473  18.885  26.996  0.00  0.00    +0.037 C 
ATOM     47  H   UNL     1       6.859  19.760  27.524  0.00  0.00    +0.052 HD
ATOM     48  H   UNL     1       5.489  18.612  27.388  0.00  0.00    +0.052 HD
ATOM     49  H   UNL     1       7.157  18.048  27.166  0.00  0.00    +0.052 HD
ENDBRANCH  45  46
ENDBRANCH  13  45
ENDBRANCH   7  13
ENDBRANCH   4   7
ENDBRANCH   1   4
BRANCH   1  50
ATOM     50  C   UNL     1       4.412  17.272  20.601  0.00  0.00    +0.108 C 
ATOM     51  H   UNL     1       5.445  17.454  20.269  0.00  0.00    +0.074 HD
BRANCH  50  52
ATOM     52  C   UNL     1       3.721  18.661  20.687  0.00  0.00    +0.020 C 
ATOM     53  H   UNL     1       3.482  18.749  21.757  0.00  0.00    +0.036 HD
BRANCH  52  54
ATOM     54  C   UNL     1       2.340  18.672  20.021  0.00  0.00    -0.057 C 
ATOM     55  H   UNL     1       2.102  19.657  19.608  0.00  0.00    +0.023 HD
ATOM     56  H   UNL     1       1.564  18.438  20.760  0.00  0.00    +0.023 HD
ATOM     57  H   UNL     1       2.252  17.940  19.216  0.00  0.00    +0.023 HD
ENDBRANCH  52  54
BRANCH  52  58
ATOM     58  C   UNL     1       4.593  19.929  20.414  0.00  0.00    +0.070 C 
ATOM     59  H   UNL     1       3.916  20.725  20.074  0.00  0.00    +0.061 HD
BRANCH  58  60
ATOM     60  C   UNL     1       5.476  20.566  21.536  0.00  0.00    +0.002 C 
ATOM     61  H   UNL     1       5.127  20.091  22.467  0.00  0.00    +0.037 HD
BRANCH  60  62
ATOM     62  C   UNL     1       5.211  22.056  21.767  0.00  0.00    -0.057 C 
ATOM     63  H   UNL     1       4.307  22.373  21.234  0.00  0.00    +0.024 HD
ATOM     64  H   UNL     1       6.033  22.673  21.389  0.00  0.00    +0.024 HD
ATOM     65  H   UNL     1       5.059  22.296  22.821  0.00  0.00    +0.024 HD
ENDBRANCH  60  62
BRANCH  60  66
ATOM     66  C   UNL     1       6.938  20.160  21.462  0.00  0.00    -0.065 C 
ATOM     67  C   UNL     1       7.944  20.590  22.239  0.00  0.00    -0.005 C 
ATOM     68  H   UNL     1       7.142  19.415  20.697  0.00  0.00    +0.059 HD
ATOM     69  H   UNL     1       7.745  21.314  23.027  0.00  0.00    +0.078 HD
BRANCH  67  70
ATOM     70  N   UNL     1       9.274  20.208  22.121  0.00  0.00    -0.284 N 
ATOM     71  C   UNL     1       9.631  19.126  21.322  0.00  0.00    +0.206 C 
ATOM     72  O   UNL     1      10.761  18.687  21.148  0.00  0.00    -0.279 OA
ATOM     73  H   UNL     1       8.766  18.657  20.822  0.00  0.00    +0.126 HD
BRANCH  70  74
ATOM     74  C   UNL     1      10.334  20.903  22.838  0.00  0.00    +0.007 C 
ATOM     75  H   UNL     1      10.501  20.477  23.832  0.00  0.00    +0.043 HD
ATOM     76  H   UNL     1      10.058  21.955  22.961  0.00  0.00    +0.043 HD
ATOM     77  H   UNL     1      11.268  20.819  22.271  0.00  0.00    +0.043 HD
ENDBRANCH  70  74
ENDBRANCH  67  70
ENDBRANCH  60  66
ENDBRANCH  58  60
BRANCH  58  78
ATOM     78  O   UNL     1       5.504  19.662  19.317  0.00  0.00    -0.379 OA
BRANCH  78  79
ATOM     79  C   UNL     1       5.068  20.172  18.061  0.00  0.00    +0.037 C 
ATOM     80  H   UNL     1       5.310  19.483  17.248  0.00  0.00    +0.052 HD
ATOM     81  H   UNL     1       5.595  21.112  17.876  0.00  0.00    +0.052 HD
ATOM     82  H   UNL     1       3.993  20.379  18.075  0.00  0.00    +0.052 HD
ENDBRANCH  78  79
ENDBRANCH  58  78
ENDBRANCH  52  58
ENDBRANCH  50  52
BRANCH  50  83
ATOM     83  O   UNL     1       3.754  16.430  19.632  0.00  0.00    -0.459 OA
BRANCH  83  85
ATOM     84  O   UNL     1       5.571  15.154  19.051  0.00  0.00    -0.248 OA
ATOM     85  C   UNL     1       4.382  15.255  19.324  0.00  0.00    +0.337 C 
BRANCH  85  86
ATOM     86  C   UNL     1       3.374  14.100  19.367  0.00  0.00    +0.155 C 
ATOM     87  O   UNL     1       2.100  14.514  19.884  0.00  0.00    -0.365 OA
ATOM     88  C   UNL     1       1.919  13.952  21.190  0.00  0.00    +0.049 C 
ATOM     89  C   UNL     1       3.250  13.370  21.608  0.00  0.00    -0.027 C 
ATOM     90  C   UNL     1       3.859  12.987  20.281  0.00  0.00    -0.014 C 
ATOM     91  H   UNL     1       3.222  13.753  18.340  0.00  0.00    +0.071 HD
ATOM     92  H   UNL     1       1.561  14.722  21.878  0.00  0.00    +0.056 HD
ATOM     93  H   UNL     1       1.154  13.170  21.114  0.00  0.00    +0.056 HD
ATOM     94  H   UNL     1       3.152  12.533  22.304  0.00  0.00    +0.029 HD
ATOM     95  H   UNL     1       3.862  14.142  22.089  0.00  0.00    +0.029 HD
ATOM     96  H   UNL     1       3.437  12.029  19.951  0.00  0.00    +0.030 HD
ATOM     97  H   UNL     1       4.945  12.879  20.335  0.00  0.00    +0.030 HD
ENDBRANCH  85  86
ENDBRANCH  83  85
ENDBRANCH  50  83
ENDBRANCH   1  50
TORSDOF 31
ENDMDL
MODEL 3
REMARK VINA RESULT:      -5.0      2.618      4.820
REMARK  Name = 2u_conf1
REMARK  31 active torsions:
REMARK  status: ('A' for Active; 'I' for Inactive)
REMARK    1  A    between atoms: C_2  and  C_3
REMARK    2  A    between atoms: C_2  and  O_8
REMARK    3  A    between atoms: O_8  and  C_9
REMARK    4  A    between atoms: C_9  and  C_10
REMARK    5  A    between atoms: C_9  and  C_29
REMARK    6  A    between atoms: C_10  and  C_11
REMARK    7  A    between atoms: C_11  and  C_12
REMARK    8  A    between atoms: C_12  and  C_13
REMARK    9  A    between atoms: C_12  and  C_14
REMARK   10  A    between atoms: C_14  and  O_15
REMARK   11  A    between atoms: C_14  and  C_17
REMARK   12  A    between atoms: O_15  and  C_16
REMARK   13  A    between atoms: C_17  and  C_18
REMARK   14  A    between atoms: C_18  and  O_19
REMARK   15  A    between atoms: C_18  and  C_26
REMARK   16  A    between atoms: O_19  and  C_20
REMARK   17  A    between atoms: C_20  and  C_21
REMARK   18  A    between atoms: C_21  and  C_22
REMARK   19  A    between atoms: C_22  and  C_23
REMARK   20  A    between atoms: C_23  and  N_24
REMARK   21  A    between atoms: C_26  and  C_27
REMARK   22  A    between atoms: C_26  and  C_28
REMARK   23  A    between atoms: C_29  and  C_30
REMARK   24  A    between atoms: C_29  and  C_31
REMARK   25  A    between atoms: C_31  and  O_32
REMARK   26  A    between atoms: C_31  and  C_34
REMARK   27  A    between atoms: O_32  and  C_33
REMARK   28  A    between atoms: C_34  and  C_35
REMARK   29  A    between atoms: C_34  and  C_36
REMARK   30  A    between atoms: C_37  and  N_38
REMARK   31  A    between atoms: N_38  and  C_39
REMARK                            x       y       z     vdW  Elec       q    Type
REMARK                         _______ _______ _______ _____ _____    ______ ____
ROOT
ATOM      1  C   UNL     1       4.322  16.435  21.902  0.00  0.00    -0.015 C 
ATOM      2  H   UNL     1       4.249  15.372  21.682  0.00  0.00    +0.030 HD
ATOM      3  H   UNL     1       3.374  16.695  22.387  0.00  0.00    +0.030 HD
ENDROOT
BRANCH   1   4
ATOM      4  C   UNL     1       5.480  16.607  22.901  0.00  0.00    -0.045 C 
ATOM      5  H   UNL     1       5.359  17.574  23.404  0.00  0.00    +0.027 HD
ATOM      6  H   UNL     1       6.417  16.686  22.336  0.00  0.00    +0.027 HD
BRANCH   4   7
ATOM      7  C   UNL     1       5.612  15.495  23.966  0.00  0.00    -0.017 C 
ATOM      8  H   UNL     1       6.017  14.601  23.478  0.00  0.00    +0.032 HD
BRANCH   7   9
ATOM      9  C   UNL     1       4.203  15.132  24.464  0.00  0.00    -0.060 C 
ATOM     10  H   UNL     1       4.249  14.732  25.484  0.00  0.00    +0.023 HD
ATOM     11  H   UNL     1       3.550  16.008  24.496  0.00  0.00    +0.023 HD
ATOM     12  H   UNL     1       3.733  14.373  23.830  0.00  0.00    +0.023 HD
ENDBRANCH   7   9
BRANCH   7  13
ATOM     13  C   UNL     1       6.569  15.889  25.125  0.00  0.00    +0.064 C 
ATOM     14  H   UNL     1       7.076  16.824  24.862  0.00  0.00    +0.060 HD
BRANCH  13  15
ATOM     15  C   UNL     1       7.641  14.807  25.362  0.00  0.00    +0.011 C 
ATOM     16  H   UNL     1       7.318  13.886  24.863  0.00  0.00    +0.033 HD
ATOM     17  H   UNL     1       7.738  14.608  26.434  0.00  0.00    +0.033 HD
BRANCH  15  18
ATOM     18  C   UNL     1       9.023  15.222  24.818  0.00  0.00    +0.108 C 
ATOM     19  H   UNL     1       9.372  16.090  25.391  0.00  0.00    +0.074 HD
BRANCH  18  20
ATOM     20  C   UNL     1      10.056  14.076  24.963  0.00  0.00    -0.009 C 
ATOM     21  H   UNL     1      10.458  13.852  23.966  0.00  0.00    +0.033 HD
BRANCH  20  22
ATOM     22  C   UNL     1      11.232  14.430  25.880  0.00  0.00    -0.059 C 
ATOM     23  H   UNL     1      10.912  14.550  26.921  0.00  0.00    +0.023 HD
ATOM     24  H   UNL     1      11.989  13.637  25.855  0.00  0.00    +0.023 HD
ATOM     25  H   UNL     1      11.721  15.355  25.563  0.00  0.00    +0.023 HD
ENDBRANCH  20  22
BRANCH  20  26
ATOM     26  C   UNL     1       9.394  12.790  25.465  0.00  0.00    -0.059 C 
ATOM     27  H   UNL     1       8.373  12.685  25.088  0.00  0.00    +0.023 HD
ATOM     28  H   UNL     1       9.968  11.909  25.154  0.00  0.00    +0.023 HD
ATOM     29  H   UNL     1       9.346  12.782  26.559  0.00  0.00    +0.023 HD
ENDBRANCH  20  26
ENDBRANCH  18  20
BRANCH  18  30
ATOM     30  O   UNL     1       8.834  15.562  23.425  0.00  0.00    -0.461 OA
BRANCH  30  31
ATOM     31  C   UNL     1       9.457  16.674  22.949  0.00  0.00    +0.307 C 
ATOM     32  O   UNL     1       9.875  16.824  21.809  0.00  0.00    -0.251 OA
BRANCH  31  33
ATOM     33  C   UNL     1       9.672  17.654  24.081  0.00  0.00    +0.046 C 
ATOM     34  H   UNL     1       9.724  17.120  25.035  0.00  0.00    +0.038 HD
ATOM     35  H   UNL     1      10.651  18.116  23.904  0.00  0.00    +0.038 HD
BRANCH  33  36
ATOM     36  C   UNL     1       8.600  18.743  24.144  0.00  0.00    -0.031 C 
ATOM     37  H   UNL     1       8.020  18.666  25.072  0.00  0.00    +0.028 HD
ATOM     38  H   UNL     1       7.894  18.581  23.320  0.00  0.00    +0.028 HD
BRANCH  36  39
ATOM     39  C   UNL     1       9.162  20.158  24.000  0.00  0.00    -0.006 C 
ATOM     40  H   UNL     1       8.655  20.823  24.710  0.00  0.00    +0.042 HD
ATOM     41  H   UNL     1       8.952  20.537  22.993  0.00  0.00    +0.042 HD
BRANCH  39  42
ATOM     42  N   UNL     1      10.596  20.208  24.235  0.00  0.00    -0.330 NA
ATOM     43  H   UNL     1      11.022  19.308  23.998  0.00  0.00    +0.118 HD
ATOM     44  H   UNL     1      10.777  20.359  25.227  0.00  0.00    +0.118 HD
ENDBRANCH  39  42
ENDBRANCH  36  39
ENDBRANCH  33  36
ENDBRANCH  31  33
ENDBRANCH  30  31
ENDBRANCH  18  30
ENDBRANCH  15  18
ENDBRANCH  13  15
BRANCH  13  45
ATOM     45  O   UNL     1       5.814  16.042  26.332  0.00  0.00    -0.379 OA
BRANCH  45  46
ATOM     46  C   UNL     1       5.963  17.316  26.942  0.00  0.00    +0.037 C 
ATOM     47  H   UNL     1       4.995  17.809  27.053  0.00  0.00    +0.052 HD
ATOM     48  H   UNL     1       6.451  17.224  27.916  0.00  0.00    +0.052 HD
ATOM     49  H   UNL     1       6.594  17.932  26.296  0.00  0.00    +0.052 HD
ENDBRANCH  45  46
ENDBRANCH  13  45
ENDBRANCH   7  13
ENDBRANCH   4   7
ENDBRANCH   1   4
BRANCH   1  50
ATOM     50  C   UNL     1       4.473  17.234  20.595  0.00  0.00    +0.108 C 
ATOM     51  H   UNL     1       5.558  17.322  20.440  0.00  0.00    +0.074 HD
BRANCH  50  52
ATOM     52  C   UNL     1       3.908  18.681  20.622  0.00  0.00    +0.020 C 
ATOM     53  H   UNL     1       3.772  18.871  21.697  0.00  0.00    +0.036 HD
BRANCH  52  54
ATOM     54  C   UNL     1       2.479  18.763  20.072  0.00  0.00    -0.057 C 
ATOM     55  H   UNL     1       2.202  19.793  19.829  0.00  0.00    +0.023 HD
ATOM     56  H   UNL     1       1.765  18.409  20.825  0.00  0.00    +0.023 HD
ATOM     57  H   UNL     1       2.334  18.155  19.178  0.00  0.00    +0.023 HD
ENDBRANCH  52  54
BRANCH  52  58
ATOM     58  C   UNL     1       4.852  19.843  20.175  0.00  0.00    +0.070 C 
ATOM     59  H   UNL     1       4.224  20.727  19.998  0.00  0.00    +0.061 HD
BRANCH  58  60
ATOM     60  C   UNL     1       6.032  20.328  21.081  0.00  0.00    +0.002 C 
ATOM     61  H   UNL     1       6.200  21.374  20.780  0.00  0.00    +0.037 HD
BRANCH  60  62
ATOM     62  C   UNL     1       7.368  19.644  20.781  0.00  0.00    -0.057 C 
ATOM     63  H   UNL     1       7.460  18.713  21.353  0.00  0.00    +0.024 HD
ATOM     64  H   UNL     1       8.215  20.275  21.069  0.00  0.00    +0.024 HD
ATOM     65  H   UNL     1       7.478  19.382  19.728  0.00  0.00    +0.024 HD
ENDBRANCH  60  62
BRANCH  60  66
ATOM     66  C   UNL     1       5.662  20.440  22.550  0.00  0.00    -0.065 C 
ATOM     67  C   UNL     1       4.966  21.423  23.142  0.00  0.00    -0.005 C 
ATOM     68  H   UNL     1       5.996  19.595  23.146  0.00  0.00    +0.059 HD
ATOM     69  H   UNL     1       4.602  22.259  22.548  0.00  0.00    +0.078 HD
BRANCH  67  70
ATOM     70  N   UNL     1       4.670  21.497  24.497  0.00  0.00    -0.284 N 
ATOM     71  C   UNL     1       5.473  20.854  25.434  0.00  0.00    +0.206 C 
ATOM     72  O   UNL     1       5.310  20.835  26.647  0.00  0.00    -0.279 OA
ATOM     73  H   UNL     1       6.326  20.323  24.976  0.00  0.00    +0.126 HD
BRANCH  70  74
ATOM     74  C   UNL     1       3.507  22.226  24.985  0.00  0.00    +0.007 C 
ATOM     75  H   UNL     1       2.608  21.602  24.991  0.00  0.00    +0.043 HD
ATOM     76  H   UNL     1       3.320  23.086  24.334  0.00  0.00    +0.043 HD
ATOM     77  H   UNL     1       3.695  22.562  26.011  0.00  0.00    +0.043 HD
ENDBRANCH  70  74
ENDBRANCH  67  70
ENDBRANCH  60  66
ENDBRANCH  58  60
BRANCH  58  78
ATOM     78  O   UNL     1       5.462  19.507  18.903  0.00  0.00    -0.379 OA
BRANCH  78  79
ATOM     79  C   UNL     1       4.909  20.201  17.790  0.00  0.00    +0.037 C 
ATOM     80  H   UNL     1       5.673  20.775  17.260  0.00  0.00    +0.052 HD
ATOM     81  H   UNL     1       4.160  20.903  18.166  0.00  0.00    +0.052 HD
ATOM     82  H   UNL     1       4.413  19.507  17.103  0.00  0.00    +0.052 HD
ENDBRANCH  78  79
ENDBRANCH  58  78
ENDBRANCH  52  58
ENDBRANCH  50  52
BRANCH  50  83
ATOM     83  O   UNL     1       3.907  16.481  19.503  0.00  0.00    -0.459 OA
BRANCH  83  85
ATOM     84  O   UNL     1       5.721  15.100  19.240  0.00  0.00    -0.248 OA
ATOM     85  C   UNL     1       4.512  15.290  19.209  0.00  0.00    +0.337 C 
BRANCH  85  86
ATOM     86  C   UNL     1       3.452  14.248  18.834  0.00  0.00    +0.155 C 
ATOM     87  O   UNL     1       2.138  14.820  18.747  0.00  0.00    -0.365 OA
ATOM     88  C   UNL     1       1.354  14.366  19.857  0.00  0.00    +0.049 C 
ATOM     89  C   UNL     1       2.302  13.682  20.816  0.00  0.00    -0.027 C 
ATOM     90  C   UNL     1       3.367  13.154  19.886  0.00  0.00    -0.014 C 
ATOM     91  H   UNL     1       3.711  13.850  17.847  0.00  0.00    +0.071 HD
ATOM     92  H   UNL     1       0.832  15.212  20.312  0.00  0.00    +0.056 HD
ATOM     93  H   UNL     1       0.608  13.661  19.473  0.00  0.00    +0.056 HD
ATOM     94  H   UNL     1       1.819  12.907  21.416  0.00  0.00    +0.029 HD
ATOM     95  H   UNL     1       2.738  14.419  21.501  0.00  0.00    +0.029 HD
ATOM     96  H   UNL     1       3.015  12.224  19.423  0.00  0.00    +0.030 HD
ATOM     97  H   UNL     1       4.305  12.941  20.403  0.00  0.00    +0.030 HD
ENDBRANCH  85  86
ENDBRANCH  83  85
ENDBRANCH  50  83
ENDBRANCH   1  50
TORSDOF 31
ENDMDL
MODEL 4
REMARK VINA RESULT:      -5.0      3.315      5.912
REMARK  Name = 2u_conf1
REMARK  31 active torsions:
REMARK  status: ('A' for Active; 'I' for Inactive)
REMARK    1  A    between atoms: C_2  and  C_3
REMARK    2  A    between atoms: C_2  and  O_8
REMARK    3  A    between atoms: O_8  and  C_9
REMARK    4  A    between atoms: C_9  and  C_10
REMARK    5  A    between atoms: C_9  and  C_29
REMARK    6  A    between atoms: C_10  and  C_11
REMARK    7  A    between atoms: C_11  and  C_12
REMARK    8  A    between atoms: C_12  and  C_13
REMARK    9  A    between atoms: C_12  and  C_14
REMARK   10  A    between atoms: C_14  and  O_15
REMARK   11  A    between atoms: C_14  and  C_17
REMARK   12  A    between atoms: O_15  and  C_16
REMARK   13  A    between atoms: C_17  and  C_18
REMARK   14  A    between atoms: C_18  and  O_19
REMARK   15  A    between atoms: C_18  and  C_26
REMARK   16  A    between atoms: O_19  and  C_20
REMARK   17  A    between atoms: C_20  and  C_21
REMARK   18  A    between atoms: C_21  and  C_22
REMARK   19  A    between atoms: C_22  and  C_23
REMARK   20  A    between atoms: C_23  and  N_24
REMARK   21  A    between atoms: C_26  and  C_27
REMARK   22  A    between atoms: C_26  and  C_28
REMARK   23  A    between atoms: C_29  and  C_30
REMARK   24  A    between atoms: C_29  and  C_31
REMARK   25  A    between atoms: C_31  and  O_32
REMARK   26  A    between atoms: C_31  and  C_34
REMARK   27  A    between atoms: O_32  and  C_33
REMARK   28  A    between atoms: C_34  and  C_35
REMARK   29  A    between atoms: C_34  and  C_36
REMARK   30  A    between atoms: C_37  and  N_38
REMARK   31  A    between atoms: N_38  and  C_39
REMARK                            x       y       z     vdW  Elec       q    Type
REMARK                         _______ _______ _______ _____ _____    ______ ____
ROOT
ATOM      1  C   UNL     1       6.040  17.113  22.626  0.00  0.00    -0.015 C 
ATOM      2  H   UNL     1       5.196  16.582  23.061  0.00  0.00    +0.030 HD
ATOM      3  H   UNL     1       6.161  18.013  23.239  0.00  0.00    +0.030 HD
ENDROOT
BRANCH   1   4
ATOM      4  C   UNL     1       7.271  16.205  22.788  0.00  0.00    -0.045 C 
ATOM      5  H   UNL     1       7.941  16.378  21.936  0.00  0.00    +0.027 HD
ATOM      6  H   UNL     1       6.947  15.161  22.696  0.00  0.00    +0.027 HD
BRANCH   4   7
ATOM      7  C   UNL     1       8.065  16.385  24.101  0.00  0.00    -0.017 C 
ATOM      8  H   UNL     1       9.135  16.343  23.862  0.00  0.00    +0.032 HD
BRANCH   7   9
ATOM      9  C   UNL     1       7.765  15.188  25.017  0.00  0.00    -0.060 C 
ATOM     10  H   UNL     1       8.613  14.995  25.685  0.00  0.00    +0.023 HD
ATOM     11  H   UNL     1       6.896  15.377  25.653  0.00  0.00    +0.023 HD
ATOM     12  H   UNL     1       7.580  14.275  24.442  0.00  0.00    +0.023 HD
ENDBRANCH   7   9
BRANCH   7  13
ATOM     13  C   UNL     1       7.778  17.748  24.790  0.00  0.00    +0.064 C 
ATOM     14  H   UNL     1       6.892  18.197  24.328  0.00  0.00    +0.060 HD
BRANCH  13  15
ATOM     15  C   UNL     1       8.959  18.724  24.623  0.00  0.00    +0.011 C 
ATOM     16  H   UNL     1       9.247  19.091  25.614  0.00  0.00    +0.033 HD
ATOM     17  H   UNL     1       8.652  19.578  24.009  0.00  0.00    +0.033 HD
BRANCH  15  18
ATOM     18  C   UNL     1      10.179  18.058  23.953  0.00  0.00    +0.108 C 
ATOM     19  H   UNL     1       9.865  17.082  23.561  0.00  0.00    +0.074 HD
BRANCH  18  20
ATOM     20  C   UNL     1      10.722  18.918  22.784  0.00  0.00    -0.009 C 
ATOM     21  H   UNL     1      11.816  18.966  22.878  0.00  0.00    +0.033 HD
BRANCH  20  22
ATOM     22  C   UNL     1      10.390  18.345  21.403  0.00  0.00    -0.059 C 
ATOM     23  H   UNL     1       9.753  19.025  20.825  0.00  0.00    +0.023 HD
ATOM     24  H   UNL     1      11.308  18.181  20.825  0.00  0.00    +0.023 HD
ATOM     25  H   UNL     1       9.879  17.382  21.482  0.00  0.00    +0.023 HD
ENDBRANCH  20  22
BRANCH  20  26
ATOM     26  C   UNL     1      10.213  20.359  22.870  0.00  0.00    -0.059 C 
ATOM     27  H   UNL     1      10.943  21.072  22.477  0.00  0.00    +0.023 HD
ATOM     28  H   UNL     1       9.280  20.477  22.307  0.00  0.00    +0.023 HD
ATOM     29  H   UNL     1      10.008  20.634  23.909  0.00  0.00    +0.023 HD
ENDBRANCH  20  26
ENDBRANCH  18  20
BRANCH  18  30
ATOM     30  O   UNL     1      11.184  17.906  24.982  0.00  0.00    -0.461 OA
BRANCH  30  31
ATOM     31  C   UNL     1      11.376  16.666  25.509  0.00  0.00    +0.307 C 
ATOM     32  O   UNL     1      11.139  16.338  26.663  0.00  0.00    -0.251 OA
BRANCH  31  33
ATOM     33  C   UNL     1      12.051  15.781  24.484  0.00  0.00    +0.046 C 
ATOM     34  H   UNL     1      12.080  16.287  23.513  0.00  0.00    +0.038 HD
ATOM     35  H   UNL     1      13.086  15.653  24.824  0.00  0.00    +0.038 HD
BRANCH  33  36
ATOM     36  C   UNL     1      11.387  14.410  24.345  0.00  0.00    -0.031 C 
ATOM     37  H   UNL     1      10.564  14.301  25.062  0.00  0.00    +0.028 HD
ATOM     38  H   UNL     1      12.127  13.641  24.599  0.00  0.00    +0.028 HD
BRANCH  36  39
ATOM     39  C   UNL     1      10.883  14.120  22.931  0.00  0.00    -0.006 C 
ATOM     40  H   UNL     1      11.428  14.748  22.216  0.00  0.00    +0.042 HD
ATOM     41  H   UNL     1       9.823  14.387  22.856  0.00  0.00    +0.042 HD
BRANCH  39  42
ATOM     42  N   UNL     1      11.045  12.723  22.564  0.00  0.00    -0.330 NA
ATOM     43  H   UNL     1      12.018  12.537  22.309  0.00  0.00    +0.118 HD
ATOM     44  H   UNL     1      10.487  12.517  21.736  0.00  0.00    +0.118 HD
ENDBRANCH  39  42
ENDBRANCH  36  39
ENDBRANCH  33  36
ENDBRANCH  31  33
ENDBRANCH  30  31
ENDBRANCH  18  30
ENDBRANCH  15  18
ENDBRANCH  13  15
BRANCH  13  45
ATOM     45  O   UNL     1       7.569  17.535  26.191  0.00  0.00    -0.379 OA
BRANCH  45  46
ATOM     46  C   UNL     1       6.445  18.228  26.713  0.00  0.00    +0.037 C 
ATOM     47  H   UNL     1       6.618  19.307  26.710  0.00  0.00    +0.052 HD
ATOM     48  H   UNL     1       5.543  17.991  26.142  0.00  0.00    +0.052 HD
ATOM     49  H   UNL     1       6.293  17.905  27.747  0.00  0.00    +0.052 HD
ENDBRANCH  45  46
ENDBRANCH  13  45
ENDBRANCH   7  13
ENDBRANCH   4   7
ENDBRANCH   1   4
BRANCH   1  50
ATOM     50  C   UNL     1       5.719  17.513  21.175  0.00  0.00    +0.108 C 
ATOM     51  H   UNL     1       6.578  17.160  20.586  0.00  0.00    +0.074 HD
BRANCH  50  52
ATOM     52  C   UNL     1       5.593  19.038  20.909  0.00  0.00    +0.020 C 
ATOM     53  H   UNL     1       5.634  19.099  19.811  0.00  0.00    +0.036 HD
BRANCH  52  54
ATOM     54  C   UNL     1       6.841  19.816  21.346  0.00  0.00    -0.057 C 
ATOM     55  H   UNL     1       7.688  19.147  21.521  0.00  0.00    +0.023 HD
ATOM     56  H   UNL     1       6.646  20.340  22.289  0.00  0.00    +0.023 HD
ATOM     57  H   UNL     1       7.149  20.567  20.616  0.00  0.00    +0.023 HD
ENDBRANCH  52  54
BRANCH  52  58
ATOM     58  C   UNL     1       4.234  19.730  21.250  0.00  0.00    +0.070 C 
ATOM     59  H   UNL     1       4.463  20.739  21.618  0.00  0.00    +0.061 HD
BRANCH  58  60
ATOM     60  C   UNL     1       3.119  19.910  20.169  0.00  0.00    +0.002 C 
ATOM     61  H   UNL     1       2.567  20.808  20.487  0.00  0.00    +0.037 HD
BRANCH  60  62
ATOM     62  C   UNL     1       2.056  18.808  20.181  0.00  0.00    -0.057 C 
ATOM     63  H   UNL     1       2.317  18.015  19.470  0.00  0.00    +0.024 HD
ATOM     64  H   UNL     1       1.077  19.191  19.880  0.00  0.00    +0.024 HD
ATOM     65  H   UNL     1       1.954  18.336  21.160  0.00  0.00    +0.024 HD
ENDBRANCH  60  62
BRANCH  60  66
ATOM     66  C   UNL     1       3.655  20.295  18.801  0.00  0.00    -0.065 C 
ATOM     67  C   UNL     1       3.115  21.158  17.926  0.00  0.00    -0.005 C 
ATOM     68  H   UNL     1       4.598  19.813  18.554  0.00  0.00    +0.059 HD
ATOM     69  H   UNL     1       2.187  21.668  18.176  0.00  0.00    +0.078 HD
BRANCH  67  70
ATOM     70  N   UNL     1       3.629  21.463  16.673  0.00  0.00    -0.284 N 
ATOM     71  C   UNL     1       4.997  21.654  16.496  0.00  0.00    +0.206 C 
ATOM     72  O   UNL     1       5.566  21.938  15.450  0.00  0.00    -0.279 OA
ATOM     73  H   UNL     1       5.573  21.525  17.429  0.00  0.00    +0.126 HD
BRANCH  70  74
ATOM     74  C   UNL     1       2.766  21.615  15.511  0.00  0.00    +0.007 C 
ATOM     75  H   UNL     1       2.798  22.633  15.109  0.00  0.00    +0.043 HD
ATOM     76  H   UNL     1       1.732  21.396  15.796  0.00  0.00    +0.043 HD
ATOM     77  H   UNL     1       3.095  20.929  14.723  0.00  0.00    +0.043 HD
ENDBRANCH  70  74
ENDBRANCH  67  70
ENDBRANCH  60  66
ENDBRANCH  58  60
BRANCH  58  78
ATOM     78  O   UNL     1       3.595  19.025  22.344  0.00  0.00    -0.379 OA
BRANCH  78  79
ATOM     79  C   UNL     1       3.496  19.781  23.546  0.00  0.00    +0.037 C 
ATOM     80  H   UNL     1       4.382  20.402  23.699  0.00  0.00    +0.052 HD
ATOM     81  H   UNL     1       3.427  19.080  24.383  0.00  0.00    +0.052 HD
ATOM     82  H   UNL     1       2.594  20.402  23.545  0.00  0.00    +0.052 HD
ENDBRANCH  78  79
ENDBRANCH  58  78
ENDBRANCH  52  58
ENDBRANCH  50  52
BRANCH  50  83
ATOM     83  O   UNL     1       4.536  16.816  20.735  0.00  0.00    -0.459 OA
BRANCH  83  85
ATOM     84  O   UNL     1       4.810  16.112  18.568  0.00  0.00    -0.248 OA
ATOM     85  C   UNL     1       4.715  15.869  19.764  0.00  0.00    +0.337 C 
BRANCH  85  86
ATOM     86  C   UNL     1       4.771  14.475  20.401  0.00  0.00    +0.155 C 
ATOM     87  O   UNL     1       4.613  13.430  19.430  0.00  0.00    -0.365 OA
ATOM     88  C   UNL     1       3.328  12.820  19.603  0.00  0.00    +0.049 C 
ATOM     89  C   UNL     1       2.550  13.694  20.561  0.00  0.00    -0.027 C 
ATOM     90  C   UNL     1       3.648  14.290  21.407  0.00  0.00    -0.014 C 
ATOM     91  H   UNL     1       5.759  14.359  20.860  0.00  0.00    +0.071 HD
ATOM     92  H   UNL     1       2.834  12.715  18.633  0.00  0.00    +0.056 HD
ATOM     93  H   UNL     1       3.486  11.820  20.023  0.00  0.00    +0.056 HD
ATOM     94  H   UNL     1       1.804  13.141  21.135  0.00  0.00    +0.029 HD
ATOM     95  H   UNL     1       2.034  14.488  20.008  0.00  0.00    +0.029 HD
ATOM     96  H   UNL     1       3.953  13.563  22.171  0.00  0.00    +0.030 HD
ATOM     97  H   UNL     1       3.334  15.204  21.917  0.00  0.00    +0.030 HD
ENDBRANCH  85  86
ENDBRANCH  83  85
ENDBRANCH  50  83
ENDBRANCH   1  50
TORSDOF 31
ENDMDL
MODEL 5
REMARK VINA RESULT:      -5.0      6.555      9.951
REMARK  Name = 2u_conf1
REMARK  31 active torsions:
REMARK  status: ('A' for Active; 'I' for Inactive)
REMARK    1  A    between atoms: C_2  and  C_3
REMARK    2  A    between atoms: C_2  and  O_8
REMARK    3  A    between atoms: O_8  and  C_9
REMARK    4  A    between atoms: C_9  and  C_10
REMARK    5  A    between atoms: C_9  and  C_29
REMARK    6  A    between atoms: C_10  and  C_11
REMARK    7  A    between atoms: C_11  and  C_12
REMARK    8  A    between atoms: C_12  and  C_13
REMARK    9  A    between atoms: C_12  and  C_14
REMARK   10  A    between atoms: C_14  and  O_15
REMARK   11  A    between atoms: C_14  and  C_17
REMARK   12  A    between atoms: O_15  and  C_16
REMARK   13  A    between atoms: C_17  and  C_18
REMARK   14  A    between atoms: C_18  and  O_19
REMARK   15  A    between atoms: C_18  and  C_26
REMARK   16  A    between atoms: O_19  and  C_20
REMARK   17  A    between atoms: C_20  and  C_21
REMARK   18  A    between atoms: C_21  and  C_22
REMARK   19  A    between atoms: C_22  and  C_23
REMARK   20  A    between atoms: C_23  and  N_24
REMARK   21  A    between atoms: C_26  and  C_27
REMARK   22  A    between atoms: C_26  and  C_28
REMARK   23  A    between atoms: C_29  and  C_30
REMARK   24  A    between atoms: C_29  and  C_31
REMARK   25  A    between atoms: C_31  and  O_32
REMARK   26  A    between atoms: C_31  and  C_34
REMARK   27  A    between atoms: O_32  and  C_33
REMARK   28  A    between atoms: C_34  and  C_35
REMARK   29  A    between atoms: C_34  and  C_36
REMARK   30  A    between atoms: C_37  and  N_38
REMARK   31  A    between atoms: N_38  and  C_39
REMARK                            x       y       z     vdW  Elec       q    Type
REMARK                         _______ _______ _______ _____ _____    ______ ____
ROOT
ATOM      1  C   UNL     1      -2.038  14.045  18.147  0.00  0.00    -0.015 C 
ATOM      2  H   UNL     1      -2.270  13.512  17.228  0.00  0.00    +0.030 HD
ATOM      3  H   UNL     1      -1.448  13.343  18.747  0.00  0.00    +0.030 HD
ENDROOT
BRANCH   1   4
ATOM      4  C   UNL     1      -1.168  15.252  17.757  0.00  0.00    -0.045 C 
ATOM      5  H   UNL     1      -1.523  16.127  18.316  0.00  0.00    +0.027 HD
ATOM      6  H   UNL     1      -1.353  15.486  16.701  0.00  0.00    +0.027 HD
BRANCH   4   7
ATOM      7  C   UNL     1       0.350  15.084  17.991  0.00  0.00    -0.017 C 
ATOM      8  H   UNL     1       0.874  15.413  17.085  0.00  0.00    +0.032 HD
BRANCH   7   9
ATOM      9  C   UNL     1       0.651  13.586  18.162  0.00  0.00    -0.060 C 
ATOM     10  H   UNL     1       0.631  13.079  17.190  0.00  0.00    +0.023 HD
ATOM     11  H   UNL     1       1.645  13.422  18.586  0.00  0.00    +0.023 HD
ATOM     12  H   UNL     1      -0.085  13.097  18.808  0.00  0.00    +0.023 HD
ENDBRANCH   7   9
BRANCH   7  13
ATOM     13  C   UNL     1       0.869  15.935  19.184  0.00  0.00    +0.064 C 
ATOM     14  H   UNL     1       1.855  16.336  18.928  0.00  0.00    +0.060 HD
BRANCH  13  15
ATOM     15  C   UNL     1       1.006  15.086  20.463  0.00  0.00    +0.011 C 
ATOM     16  H   UNL     1       0.650  14.074  20.245  0.00  0.00    +0.033 HD
ATOM     17  H   UNL     1       0.386  15.512  21.259  0.00  0.00    +0.033 HD
BRANCH  15  18
ATOM     18  C   UNL     1       2.463  15.016  20.965  0.00  0.00    +0.108 C 
ATOM     19  H   UNL     1       2.564  15.694  21.821  0.00  0.00    +0.074 HD
BRANCH  18  20
ATOM     20  C   UNL     1       2.837  13.580  21.415  0.00  0.00    -0.009 C 
ATOM     21  H   UNL     1       1.913  12.988  21.461  0.00  0.00    +0.033 HD
BRANCH  20  22
ATOM     22  C   UNL     1       3.804  12.876  20.459  0.00  0.00    -0.059 C 
ATOM     23  H   UNL     1       3.612  13.148  19.414  0.00  0.00    +0.023 HD
ATOM     24  H   UNL     1       4.840  13.155  20.688  0.00  0.00    +0.023 HD
ATOM     25  H   UNL     1       3.733  11.789  20.547  0.00  0.00    +0.023 HD
ENDBRANCH  20  22
BRANCH  20  26
ATOM     26  C   UNL     1       3.429  13.576  22.827  0.00  0.00    -0.059 C 
ATOM     27  H   UNL     1       3.542  12.561  23.217  0.00  0.00    +0.023 HD
ATOM     28  H   UNL     1       4.412  14.060  22.838  0.00  0.00    +0.023 HD
ATOM     29  H   UNL     1       2.782  14.127  23.518  0.00  0.00    +0.023 HD
ENDBRANCH  20  26
ENDBRANCH  18  20
BRANCH  18  30
ATOM     30  O   UNL     1       3.301  15.438  19.864  0.00  0.00    -0.461 OA
BRANCH  30  31
ATOM     31  C   UNL     1       4.092  16.530  20.046  0.00  0.00    +0.307 C 
ATOM     32  O   UNL     1       4.554  17.230  19.157  0.00  0.00    -0.251 OA
BRANCH  31  33
ATOM     33  C   UNL     1       4.423  16.673  21.516  0.00  0.00    +0.046 C 
ATOM     34  H   UNL     1       4.212  17.694  21.850  0.00  0.00    +0.038 HD
ATOM     35  H   UNL     1       3.742  16.000  22.051  0.00  0.00    +0.038 HD
BRANCH  33  36
ATOM     36  C   UNL     1       5.869  16.299  21.843  0.00  0.00    -0.031 C 
ATOM     37  H   UNL     1       6.312  15.707  21.033  0.00  0.00    +0.028 HD
ATOM     38  H   UNL     1       5.868  15.659  22.734  0.00  0.00    +0.028 HD
BRANCH  36  39
ATOM     39  C   UNL     1       6.756  17.509  22.144  0.00  0.00    -0.006 C 
ATOM     40  H   UNL     1       7.698  17.166  22.587  0.00  0.00    +0.042 HD
ATOM     41  H   UNL     1       6.264  18.151  22.884  0.00  0.00    +0.042 HD
BRANCH  39  42
ATOM     42  N   UNL     1       7.040  18.293  20.953  0.00  0.00    -0.330 NA
ATOM     43  H   UNL     1       6.952  17.708  20.118  0.00  0.00    +0.118 HD
ATOM     44  H   UNL     1       8.008  18.615  20.976  0.00  0.00    +0.118 HD
ENDBRANCH  39  42
ENDBRANCH  36  39
ENDBRANCH  33  36
ENDBRANCH  31  33
ENDBRANCH  30  31
ENDBRANCH  18  30
ENDBRANCH  15  18
ENDBRANCH  13  15
BRANCH  13  45
ATOM     45  O   UNL     1      -0.058  16.995  19.447  0.00  0.00    -0.379 OA
BRANCH  45  46
ATOM     46  C   UNL     1       0.535  18.285  19.452  0.00  0.00    +0.037 C 
ATOM     47  H   UNL     1       0.774  18.606  18.435  0.00  0.00    +0.052 HD
ATOM     48  H   UNL     1      -0.126  19.013  19.930  0.00  0.00    +0.052 HD
ATOM     49  H   UNL     1       1.464  18.232  20.027  0.00  0.00    +0.052 HD
ENDBRANCH  45  46
ENDBRANCH  13  45
ENDBRANCH   7  13
ENDBRANCH   4   7
ENDBRANCH   1   4
BRANCH   1  50
ATOM     50  C   UNL     1      -3.338  14.399  18.891  0.00  0.00    +0.108 C 
ATOM     51  H   UNL     1      -4.035  14.727  18.106  0.00  0.00    +0.074 HD
BRANCH  50  52
ATOM     52  C   UNL     1      -3.232  15.569  19.909  0.00  0.00    +0.020 C 
ATOM     53  H   UNL     1      -2.306  16.077  19.602  0.00  0.00    +0.036 HD
BRANCH  52  54
ATOM     54  C   UNL     1      -2.910  15.085  21.328  0.00  0.00    -0.057 C 
ATOM     55  H   UNL     1      -2.564  14.048  21.328  0.00  0.00    +0.023 HD
ATOM     56  H   UNL     1      -3.810  15.124  21.952  0.00  0.00    +0.023 HD
ATOM     57  H   UNL     1      -2.149  15.695  21.819  0.00  0.00    +0.023 HD
ENDBRANCH  52  54
BRANCH  52  58
ATOM     58  C   UNL     1      -4.301  16.706  19.828  0.00  0.00    +0.070 C 
ATOM     59  H   UNL     1      -4.588  16.813  18.774  0.00  0.00    +0.061 HD
BRANCH  58  60
ATOM     60  C   UNL     1      -5.640  16.623  20.632  0.00  0.00    +0.002 C 
ATOM     61  H   UNL     1      -5.685  15.582  20.988  0.00  0.00    +0.037 HD
BRANCH  60  62
ATOM     62  C   UNL     1      -6.895  16.766  19.767  0.00  0.00    -0.057 C 
ATOM     63  H   UNL     1      -6.785  16.204  18.834  0.00  0.00    +0.024 HD
ATOM     64  H   UNL     1      -7.073  17.810  19.488  0.00  0.00    +0.024 HD
ATOM     65  H   UNL     1      -7.791  16.387  20.263  0.00  0.00    +0.024 HD
ENDBRANCH  60  62
BRANCH  60  66
ATOM     66  C   UNL     1      -5.628  17.433  21.917  0.00  0.00    -0.065 C 
ATOM     67  C   UNL     1      -5.571  16.966  23.175  0.00  0.00    -0.005 C 
ATOM     68  H   UNL     1      -5.641  18.507  21.752  0.00  0.00    +0.059 HD
ATOM     69  H   UNL     1      -5.528  15.893  23.349  0.00  0.00    +0.078 HD
BRANCH  67  70
ATOM     70  N   UNL     1      -5.585  17.744  24.324  0.00  0.00    -0.284 N 
ATOM     71  C   UNL     1      -6.301  17.336  25.447  0.00  0.00    +0.206 C 
ATOM     72  O   UNL     1      -6.400  17.936  26.509  0.00  0.00    -0.279 OA
ATOM     73  H   UNL     1      -6.810  16.367  25.302  0.00  0.00    +0.126 HD
BRANCH  70  74
ATOM     74  C   UNL     1      -4.877  19.014  24.395  0.00  0.00    +0.007 C 
ATOM     75  H   UNL     1      -5.008  19.500  25.367  0.00  0.00    +0.043 HD
ATOM     76  H   UNL     1      -5.264  19.688  23.624  0.00  0.00    +0.043 HD
ATOM     77  H   UNL     1      -3.806  18.840  24.244  0.00  0.00    +0.043 HD
ENDBRANCH  70  74
ENDBRANCH  67  70
ENDBRANCH  60  66
ENDBRANCH  58  60
BRANCH  58  78
ATOM     78  O   UNL     1      -3.697  17.965  20.223  0.00  0.00    -0.379 OA
BRANCH  78  79
ATOM     79  C   UNL     1      -3.523  18.888  19.154  0.00  0.00    +0.037 C 
ATOM     80  H   UNL     1      -2.919  18.457  18.352  0.00  0.00    +0.052 HD
ATOM     81  H   UNL     1      -2.993  19.762  19.543  0.00  0.00    +0.052 HD
ATOM     82  H   UNL     1      -4.491  19.220  18.762  0.00  0.00    +0.052 HD
ENDBRANCH  78  79
ENDBRANCH  58  78
ENDBRANCH  52  58
ENDBRANCH  50  52
BRANCH  50  83
ATOM     83  O   UNL     1      -3.869  13.217  19.521  0.00  0.00    -0.459 OA
BRANCH  83  85
ATOM     84  O   UNL     1      -6.042  13.204  20.259  0.00  0.00    -0.248 OA
ATOM     85  C   UNL     1      -5.214  13.007  19.381  0.00  0.00    +0.337 C 
BRANCH  85  86
ATOM     86  C   UNL     1      -5.514  12.486  17.969  0.00  0.00    +0.155 C 
ATOM     87  O   UNL     1      -6.915  12.249  17.767  0.00  0.00    -0.365 OA
ATOM     88  C   UNL     1      -7.148  10.837  17.708  0.00  0.00    +0.049 C 
ATOM     89  C   UNL     1      -5.869  10.160  18.147  0.00  0.00    -0.027 C 
ATOM     90  C   UNL     1      -4.821  11.158  17.719  0.00  0.00    -0.014 C 
ATOM     91  H   UNL     1      -5.198  13.256  17.257  0.00  0.00    +0.071 HD
ATOM     92  H   UNL     1      -8.001  10.575  18.339  0.00  0.00    +0.056 HD
ATOM     93  H   UNL     1      -7.391  10.581  16.670  0.00  0.00    +0.056 HD
ATOM     94  H   UNL     1      -5.737   9.168  17.709  0.00  0.00    +0.029 HD
ATOM     95  H   UNL     1      -5.858  10.053  19.238  0.00  0.00    +0.029 HD
ATOM     96  H   UNL     1      -4.624  11.040  16.647  0.00  0.00    +0.030 HD
ATOM     97  H   UNL     1      -3.876  11.026  18.253  0.00  0.00    +0.030 HD
ENDBRANCH  85  86
ENDBRANCH  83  85
ENDBRANCH  50  83
ENDBRANCH   1  50
TORSDOF 31
ENDMDL
MODEL 6
REMARK VINA RESULT:      -5.0      4.049      6.734
REMARK  Name = 2u_conf1
REMARK  31 active torsions:
REMARK  status: ('A' for Active; 'I' for Inactive)
REMARK    1  A    between atoms: C_2  and  C_3
REMARK    2  A    between atoms: C_2  and  O_8
REMARK    3  A    between atoms: O_8  and  C_9
REMARK    4  A    between atoms: C_9  and  C_10
REMARK    5  A    between atoms: C_9  and  C_29
REMARK    6  A    between atoms: C_10  and  C_11
REMARK    7  A    between atoms: C_11  and  C_12
REMARK    8  A    between atoms: C_12  and  C_13
REMARK    9  A    between atoms: C_12  and  C_14
REMARK   10  A    between atoms: C_14  and  O_15
REMARK   11  A    between atoms: C_14  and  C_17
REMARK   12  A    between atoms: O_15  and  C_16
REMARK   13  A    between atoms: C_17  and  C_18
REMARK   14  A    between atoms: C_18  and  O_19
REMARK   15  A    between atoms: C_18  and  C_26
REMARK   16  A    between atoms: O_19  and  C_20
REMARK   17  A    between atoms: C_20  and  C_21
REMARK   18  A    between atoms: C_21  and  C_22
REMARK   19  A    between atoms: C_22  and  C_23
REMARK   20  A    between atoms: C_23  and  N_24
REMARK   21  A    between atoms: C_26  and  C_27
REMARK   22  A    between atoms: C_26  and  C_28
REMARK   23  A    between atoms: C_29  and  C_30
REMARK   24  A    between atoms: C_29  and  C_31
REMARK   25  A    between atoms: C_31  and  O_32
REMARK   26  A    between atoms: C_31  and  C_34
REMARK   27  A    between atoms: O_32  and  C_33
REMARK   28  A    between atoms: C_34  and  C_35
REMARK   29  A    between atoms: C_34  and  C_36
REMARK   30  A    between atoms: C_37  and  N_38
REMARK   31  A    between atoms: N_38  and  C_39
REMARK                            x       y       z     vdW  Elec       q    Type
REMARK                         _______ _______ _______ _____ _____    ______ ____
ROOT
ATOM      1  C   UNL     1       4.678  16.805  21.667  0.00  0.00    -0.015 C 
ATOM      2  H   UNL     1       4.277  15.794  21.697  0.00  0.00    +0.030 HD
ATOM      3  H   UNL     1       4.076  17.376  22.382  0.00  0.00    +0.030 HD
ENDROOT
BRANCH   1   4
ATOM      4  C   UNL     1       6.133  16.722  22.161  0.00  0.00    -0.045 C 
ATOM      5  H   UNL     1       6.505  17.744  22.307  0.00  0.00    +0.027 HD
ATOM      6  H   UNL     1       6.749  16.299  21.359  0.00  0.00    +0.027 HD
BRANCH   4   7
ATOM      7  C   UNL     1       6.351  15.915  23.461  0.00  0.00    -0.017 C 
ATOM      8  H   UNL     1       6.637  14.893  23.184  0.00  0.00    +0.032 HD
BRANCH   7   9
ATOM      9  C   UNL     1       5.007  15.816  24.201  0.00  0.00    -0.060 C 
ATOM     10  H   UNL     1       4.262  15.311  23.575  0.00  0.00    +0.023 HD
ATOM     11  H   UNL     1       5.097  15.232  25.121  0.00  0.00    +0.023 HD
ATOM     12  H   UNL     1       4.612  16.804  24.456  0.00  0.00    +0.023 HD
ENDBRANCH   7   9
BRANCH   7  13
ATOM     13  C   UNL     1       7.478  16.508  24.351  0.00  0.00    +0.064 C 
ATOM     14  H   UNL     1       8.270  16.898  23.703  0.00  0.00    +0.060 HD
BRANCH  13  15
ATOM     15  C   UNL     1       8.090  15.436  25.273  0.00  0.00    +0.011 C 
ATOM     16  H   UNL     1       7.697  14.458  24.974  0.00  0.00    +0.033 HD
ATOM     17  H   UNL     1       7.798  15.627  26.311  0.00  0.00    +0.033 HD
BRANCH  15  18
ATOM     18  C   UNL     1       9.631  15.409  25.199  0.00  0.00    +0.108 C 
ATOM     19  H   UNL     1      10.027  15.780  26.152  0.00  0.00    +0.074 HD
BRANCH  18  20
ATOM     20  C   UNL     1      10.161  13.972  24.960  0.00  0.00    -0.009 C 
ATOM     21  H   UNL     1      11.126  13.877  25.475  0.00  0.00    +0.033 HD
BRANCH  20  22
ATOM     22  C   UNL     1       9.227  12.883  25.497  0.00  0.00    -0.059 C 
ATOM     23  H   UNL     1       9.076  12.081  24.765  0.00  0.00    +0.023 HD
ATOM     24  H   UNL     1       9.648  12.430  26.402  0.00  0.00    +0.023 HD
ATOM     25  H   UNL     1       8.248  13.291  25.764  0.00  0.00    +0.023 HD
ENDBRANCH  20  22
BRANCH  20  26
ATOM     26  C   UNL     1      10.432  13.719  23.475  0.00  0.00    -0.059 C 
ATOM     27  H   UNL     1       9.541  13.357  22.955  0.00  0.00    +0.023 HD
ATOM     28  H   UNL     1      10.771  14.636  22.979  0.00  0.00    +0.023 HD
ATOM     29  H   UNL     1      11.217  12.967  23.349  0.00  0.00    +0.023 HD
ENDBRANCH  20  26
ENDBRANCH  18  20
BRANCH  18  30
ATOM     30  O   UNL     1      10.007  16.278  24.106  0.00  0.00    -0.461 OA
BRANCH  30  31
ATOM     31  C   UNL     1      10.968  17.214  24.335  0.00  0.00    +0.307 C 
ATOM     32  O   UNL     1      11.685  17.270  25.325  0.00  0.00    -0.251 OA
BRANCH  31  33
ATOM     33  C   UNL     1      10.929  18.256  23.239  0.00  0.00    +0.046 C 
ATOM     34  H   UNL     1      10.530  19.198  23.631  0.00  0.00    +0.038 HD
ATOM     35  H   UNL     1      11.971  18.432  22.947  0.00  0.00    +0.038 HD
BRANCH  33  36
ATOM     36  C   UNL     1      10.126  17.810  22.017  0.00  0.00    -0.031 C 
ATOM     37  H   UNL     1       9.612  16.860  22.212  0.00  0.00    +0.028 HD
ATOM     38  H   UNL     1      10.825  17.624  21.193  0.00  0.00    +0.028 HD
BRANCH  36  39
ATOM     39  C   UNL     1       9.116  18.855  21.540  0.00  0.00    -0.006 C 
ATOM     40  H   UNL     1       9.120  19.706  22.231  0.00  0.00    +0.042 HD
ATOM     41  H   UNL     1       8.106  18.427  21.558  0.00  0.00    +0.042 HD
BRANCH  39  42
ATOM     42  N   UNL     1       9.405  19.326  20.195  0.00  0.00    -0.330 NA
ATOM     43  H   UNL     1       9.502  18.532  19.558  0.00  0.00    +0.118 HD
ATOM     44  H   UNL     1      10.301  19.813  20.186  0.00  0.00    +0.118 HD
ENDBRANCH  39  42
ENDBRANCH  36  39
ENDBRANCH  33  36
ENDBRANCH  31  33
ENDBRANCH  30  31
ENDBRANCH  18  30
ENDBRANCH  15  18
ENDBRANCH  13  15
BRANCH  13  45
ATOM     45  O   UNL     1       6.934  17.548  25.173  0.00  0.00    -0.379 OA
BRANCH  45  46
ATOM     46  C   UNL     1       7.606  18.791  25.041  0.00  0.00    +0.037 C 
ATOM     47  H   UNL     1       8.651  18.639  24.758  0.00  0.00    +0.052 HD
ATOM     48  H   UNL     1       7.106  19.426  24.304  0.00  0.00    +0.052 HD
ATOM     49  H   UNL     1       7.580  19.299  26.009  0.00  0.00    +0.052 HD
ENDBRANCH  45  46
ENDBRANCH  13  45
ENDBRANCH   7  13
ENDBRANCH   4   7
ENDBRANCH   1   4
BRANCH   1  50
ATOM     50  C   UNL     1       4.509  17.396  20.256  0.00  0.00    +0.108 C 
ATOM     51  H   UNL     1       5.533  17.522  19.876  0.00  0.00    +0.074 HD
BRANCH  50  52
ATOM     52  C   UNL     1       3.834  18.795  20.190  0.00  0.00    +0.020 C 
ATOM     53  H   UNL     1       3.994  19.191  21.204  0.00  0.00    +0.036 HD
BRANCH  52  54
ATOM     54  C   UNL     1       2.307  18.706  20.089  0.00  0.00    -0.057 C 
ATOM     55  H   UNL     1       1.913  17.884  20.693  0.00  0.00    +0.023 HD
ATOM     56  H   UNL     1       2.009  18.514  19.051  0.00  0.00    +0.023 HD
ATOM     57  H   UNL     1       1.808  19.625  20.403  0.00  0.00    +0.023 HD
ENDBRANCH  52  54
BRANCH  52  58
ATOM     58  C   UNL     1       4.492  19.881  19.279  0.00  0.00    +0.070 C 
ATOM     59  H   UNL     1       5.575  19.701  19.284  0.00  0.00    +0.061 HD
BRANCH  58  60
ATOM     60  C   UNL     1       4.089  20.034  17.775  0.00  0.00    +0.002 C 
ATOM     61  H   UNL     1       3.405  19.192  17.585  0.00  0.00    +0.037 HD
BRANCH  60  62
ATOM     62  C   UNL     1       5.241  19.797  16.795  0.00  0.00    -0.057 C 
ATOM     63  H   UNL     1       4.873  19.322  15.878  0.00  0.00    +0.024 HD
ATOM     64  H   UNL     1       5.995  19.125  17.217  0.00  0.00    +0.024 HD
ATOM     65  H   UNL     1       5.735  20.723  16.497  0.00  0.00    +0.024 HD
ENDBRANCH  60  62
BRANCH  60  66
ATOM     66  C   UNL     1       3.229  21.255  17.499  0.00  0.00    -0.065 C 
ATOM     67  C   UNL     1       2.051  21.294  16.857  0.00  0.00    -0.005 C 
ATOM     68  H   UNL     1       3.638  22.175  17.908  0.00  0.00    +0.059 HD
ATOM     69  H   UNL     1       1.618  20.374  16.470  0.00  0.00    +0.078 HD
BRANCH  67  70
ATOM     70  N   UNL     1       1.307  22.439  16.606  0.00  0.00    -0.284 N 
ATOM     71  C   UNL     1       0.541  22.546  15.448  0.00  0.00    +0.206 C 
ATOM     72  O   UNL     1      -0.144  23.503  15.111  0.00  0.00    -0.279 OA
ATOM     73  H   UNL     1       0.599  21.648  14.811  0.00  0.00    +0.126 HD
BRANCH  70  74
ATOM     74  C   UNL     1       1.313  23.570  17.523  0.00  0.00    +0.007 C 
ATOM     75  H   UNL     1       1.161  24.519  17.001  0.00  0.00    +0.043 HD
ATOM     76  H   UNL     1       2.280  23.615  18.035  0.00  0.00    +0.043 HD
ATOM     77  H   UNL     1       0.504  23.449  18.252  0.00  0.00    +0.043 HD
ENDBRANCH  70  74
ENDBRANCH  67  70
ENDBRANCH  60  66
ENDBRANCH  58  60
BRANCH  58  78
ATOM     78  O   UNL     1       4.286  21.191  19.864  0.00  0.00    -0.379 OA
BRANCH  78  79
ATOM     79  C   UNL     1       4.856  21.347  21.160  0.00  0.00    +0.037 C 
ATOM     80  H   UNL     1       4.818  22.389  21.487  0.00  0.00    +0.052 HD
ATOM     81  H   UNL     1       5.906  21.048  21.106  0.00  0.00    +0.052 HD
ATOM     82  H   UNL     1       4.352  20.702  21.888  0.00  0.00    +0.052 HD
ENDBRANCH  78  79
ENDBRANCH  58  78
ENDBRANCH  52  58
ENDBRANCH  50  52
BRANCH  50  83
ATOM     83  O   UNL     1       3.814  16.451  19.419  0.00  0.00    -0.459 OA
BRANCH  83  85
ATOM     84  O   UNL     1       5.588  15.050  19.024  0.00  0.00    -0.248 OA
ATOM     85  C   UNL     1       4.402  15.225  19.270  0.00  0.00    +0.337 C 
BRANCH  85  86
ATOM     86  C   UNL     1       3.354  14.120  19.451  0.00  0.00    +0.155 C 
ATOM     87  O   UNL     1       2.164  14.603  20.093  0.00  0.00    -0.365 OA
ATOM     88  C   UNL     1       2.103  14.076  21.423  0.00  0.00    +0.049 C 
ATOM     89  C   UNL     1       3.444  13.440  21.709  0.00  0.00    -0.027 C 
ATOM     90  C   UNL     1       3.886  13.003  20.333  0.00  0.00    -0.014 C 
ATOM     91  H   UNL     1       3.075  13.760  18.455  0.00  0.00    +0.071 HD
ATOM     92  H   UNL     1       1.857  14.876  22.127  0.00  0.00    +0.056 HD
ATOM     93  H   UNL     1       1.300  13.330  21.450  0.00  0.00    +0.056 HD
ATOM     94  H   UNL     1       3.386  12.623  22.431  0.00  0.00    +0.029 HD
ATOM     95  H   UNL     1       4.139  14.192  22.102  0.00  0.00    +0.029 HD
ATOM     96  H   UNL     1       3.389  12.060  20.075  0.00  0.00    +0.030 HD
ATOM     97  H   UNL     1       4.965  12.845  20.272  0.00  0.00    +0.030 HD
ENDBRANCH  85  86
ENDBRANCH  83  85
ENDBRANCH  50  83
ENDBRANCH   1  50
TORSDOF 31
ENDMDL
MODEL 7
REMARK VINA RESULT:      -4.9      2.359      6.612
REMARK  Name = 2u_conf1
REMARK  31 active torsions:
REMARK  status: ('A' for Active; 'I' for Inactive)
REMARK    1  A    between atoms: C_2  and  C_3
REMARK    2  A    between atoms: C_2  and  O_8
REMARK    3  A    between atoms: O_8  and  C_9
REMARK    4  A    between atoms: C_9  and  C_10
REMARK    5  A    between atoms: C_9  and  C_29
REMARK    6  A    between atoms: C_10  and  C_11
REMARK    7  A    between atoms: C_11  and  C_12
REMARK    8  A    between atoms: C_12  and  C_13
REMARK    9  A    between atoms: C_12  and  C_14
REMARK   10  A    between atoms: C_14  and  O_15
REMARK   11  A    between atoms: C_14  and  C_17
REMARK   12  A    between atoms: O_15  and  C_16
REMARK   13  A    between atoms: C_17  and  C_18
REMARK   14  A    between atoms: C_18  and  O_19
REMARK   15  A    between atoms: C_18  and  C_26
REMARK   16  A    between atoms: O_19  and  C_20
REMARK   17  A    between atoms: C_20  and  C_21
REMARK   18  A    between atoms: C_21  and  C_22
REMARK   19  A    between atoms: C_22  and  C_23
REMARK   20  A    between atoms: C_23  and  N_24
REMARK   21  A    between atoms: C_26  and  C_27
REMARK   22  A    between atoms: C_26  and  C_28
REMARK   23  A    between atoms: C_29  and  C_30
REMARK   24  A    between atoms: C_29  and  C_31
REMARK   25  A    between atoms: C_31  and  O_32
REMARK   26  A    between atoms: C_31  and  C_34
REMARK   27  A    between atoms: O_32  and  C_33
REMARK   28  A    between atoms: C_34  and  C_35
REMARK   29  A    between atoms: C_34  and  C_36
REMARK   30  A    between atoms: C_37  and  N_38
REMARK   31  A    between atoms: N_38  and  C_39
REMARK                            x       y       z     vdW  Elec       q    Type
REMARK                         _______ _______ _______ _____ _____    ______ ____
ROOT
ATOM      1  C   UNL     1       5.212  15.781  21.504  0.00  0.00    -0.015 C 
ATOM      2  H   UNL     1       6.155  15.248  21.408  0.00  0.00    +0.030 HD
ATOM      3  H   UNL     1       4.435  15.014  21.401  0.00  0.00    +0.030 HD
ENDROOT
BRANCH   1   4
ATOM      4  C   UNL     1       5.173  16.370  22.925  0.00  0.00    -0.045 C 
ATOM      5  H   UNL     1       4.290  17.016  23.006  0.00  0.00    +0.027 HD
ATOM      6  H   UNL     1       6.036  17.037  23.047  0.00  0.00    +0.027 HD
BRANCH   4   7
ATOM      7  C   UNL     1       5.152  15.337  24.075  0.00  0.00    -0.017 C 
ATOM      8  H   UNL     1       6.073  14.745  24.019  0.00  0.00    +0.032 HD
BRANCH   7   9
ATOM      9  C   UNL     1       3.983  14.368  23.833  0.00  0.00    -0.060 C 
ATOM     10  H   UNL     1       3.073  14.922  23.577  0.00  0.00    +0.023 HD
ATOM     11  H   UNL     1       4.189  13.692  22.999  0.00  0.00    +0.023 HD
ATOM     12  H   UNL     1       3.767  13.765  24.721  0.00  0.00    +0.023 HD
ENDBRANCH   7   9
BRANCH   7  13
ATOM     13  C   UNL     1       5.090  16.005  25.476  0.00  0.00    +0.064 C 
ATOM     14  H   UNL     1       4.851  15.239  26.222  0.00  0.00    +0.060 HD
BRANCH  13  15
ATOM     15  C   UNL     1       4.002  17.095  25.534  0.00  0.00    +0.011 C 
ATOM     16  H   UNL     1       3.183  16.731  26.164  0.00  0.00    +0.033 HD
ATOM     17  H   UNL     1       3.612  17.285  24.528  0.00  0.00    +0.033 HD
BRANCH  15  18
ATOM     18  C   UNL     1       4.534  18.424  26.109  0.00  0.00    +0.108 C 
ATOM     19  H   UNL     1       5.526  18.239  26.539  0.00  0.00    +0.074 HD
BRANCH  18  20
ATOM     20  C   UNL     1       4.657  19.507  25.008  0.00  0.00    -0.009 C 
ATOM     21  H   UNL     1       5.531  19.264  24.389  0.00  0.00    +0.033 HD
BRANCH  20  22
ATOM     22  C   UNL     1       3.433  19.583  24.090  0.00  0.00    -0.059 C 
ATOM     23  H   UNL     1       3.721  19.619  23.032  0.00  0.00    +0.023 HD
ATOM     24  H   UNL     1       2.795  18.702  24.229  0.00  0.00    +0.023 HD
ATOM     25  H   UNL     1       2.823  20.464  24.309  0.00  0.00    +0.023 HD
ENDBRANCH  20  22
BRANCH  20  26
ATOM     26  C   UNL     1       4.922  20.889  25.612  0.00  0.00    -0.059 C 
ATOM     27  H   UNL     1       5.353  21.576  24.880  0.00  0.00    +0.023 HD
ATOM     28  H   UNL     1       3.995  21.330  25.995  0.00  0.00    +0.023 HD
ATOM     29  H   UNL     1       5.622  20.814  26.451  0.00  0.00    +0.023 HD
ENDBRANCH  20  26
ENDBRANCH  18  20
BRANCH  18  30
ATOM     30  O   UNL     1       3.594  18.839  27.127  0.00  0.00    -0.461 OA
BRANCH  30  31
ATOM     31  C   UNL     1       3.424  18.029  28.207  0.00  0.00    +0.307 C 
ATOM     32  O   UNL     1       4.321  17.557  28.892  0.00  0.00    -0.251 OA
BRANCH  31  33
ATOM     33  C   UNL     1       1.957  17.691  28.357  0.00  0.00    +0.046 C 
ATOM     34  H   UNL     1       1.364  18.610  28.415  0.00  0.00    +0.038 HD
ATOM     35  H   UNL     1       1.668  17.166  27.439  0.00  0.00    +0.038 HD
BRANCH  33  36
ATOM     36  C   UNL     1       1.668  16.801  29.566  0.00  0.00    -0.031 C 
ATOM     37  H   UNL     1       2.173  17.183  30.462  0.00  0.00    +0.028 HD
ATOM     38  H   UNL     1       2.087  15.806  29.371  0.00  0.00    +0.028 HD
BRANCH  36  39
ATOM     39  C   UNL     1       0.174  16.627  29.849  0.00  0.00    -0.006 C 
ATOM     40  H   UNL     1      -0.373  17.489  29.450  0.00  0.00    +0.042 HD
ATOM     41  H   UNL     1       0.004  16.607  30.932  0.00  0.00    +0.042 HD
BRANCH  39  42
ATOM     42  N   UNL     1      -0.358  15.406  29.266  0.00  0.00    -0.330 NA
ATOM     43  H   UNL     1      -0.803  15.611  28.368  0.00  0.00    +0.118 HD
ATOM     44  H   UNL     1      -1.089  15.027  29.868  0.00  0.00    +0.118 HD
ENDBRANCH  39  42
ENDBRANCH  36  39
ENDBRANCH  33  36
ENDBRANCH  31  33
ENDBRANCH  30  31
ENDBRANCH  18  30
ENDBRANCH  15  18
ENDBRANCH  13  15
BRANCH  13  45
ATOM     45  O   UNL     1       6.353  16.617  25.764  0.00  0.00    -0.379 OA
BRANCH  45  46
ATOM     46  C   UNL     1       7.463  15.751  25.582  0.00  0.00    +0.037 C 
ATOM     47  H   UNL     1       8.343  16.134  26.105  0.00  0.00    +0.052 HD
ATOM     48  H   UNL     1       7.229  14.742  25.931  0.00  0.00    +0.052 HD
ATOM     49  H   UNL     1       7.688  15.704  24.513  0.00  0.00    +0.052 HD
ENDBRANCH  45  46
ENDBRANCH  13  45
ENDBRANCH   7  13
ENDBRANCH   4   7
ENDBRANCH   1   4
BRANCH   1  50
ATOM     50  C   UNL     1       5.074  16.815  20.373  0.00  0.00    +0.108 C 
ATOM     51  H   UNL     1       6.106  17.073  20.096  0.00  0.00    +0.074 HD
BRANCH  50  52
ATOM     52  C   UNL     1       4.370  18.145  20.759  0.00  0.00    +0.020 C 
ATOM     53  H   UNL     1       4.222  18.037  21.844  0.00  0.00    +0.036 HD
BRANCH  52  54
ATOM     54  C   UNL     1       2.937  18.229  20.221  0.00  0.00    -0.057 C 
ATOM     55  H   UNL     1       2.851  17.761  19.236  0.00  0.00    +0.023 HD
ATOM     56  H   UNL     1       2.639  19.278  20.105  0.00  0.00    +0.023 HD
ATOM     57  H   UNL     1       2.208  17.757  20.883  0.00  0.00    +0.023 HD
ENDBRANCH  52  54
BRANCH  52  58
ATOM     58  C   UNL     1       5.194  19.468  20.646  0.00  0.00    +0.070 C 
ATOM     59  H   UNL     1       4.478  20.301  20.637  0.00  0.00    +0.061 HD
BRANCH  58  60
ATOM     60  C   UNL     1       6.278  19.845  21.708  0.00  0.00    +0.002 C 
ATOM     61  H   UNL     1       5.926  19.378  22.641  0.00  0.00    +0.037 HD
BRANCH  60  62
ATOM     62  C   UNL     1       6.328  21.338  22.044  0.00  0.00    -0.057 C 
ATOM     63  H   UNL     1       5.564  21.885  21.479  0.00  0.00    +0.024 HD
ATOM     64  H   UNL     1       7.293  21.778  21.776  0.00  0.00    +0.024 HD
ATOM     65  H   UNL     1       6.142  21.535  23.101  0.00  0.00    +0.024 HD
ENDBRANCH  60  62
BRANCH  60  66
ATOM     66  C   UNL     1       7.622  19.178  21.466  0.00  0.00    -0.065 C 
ATOM     67  C   UNL     1       8.239  18.281  22.251  0.00  0.00    -0.005 C 
ATOM     68  H   UNL     1       8.088  19.470  20.529  0.00  0.00    +0.059 HD
ATOM     69  H   UNL     1       7.767  17.961  23.177  0.00  0.00    +0.078 HD
BRANCH  67  70
ATOM     70  N   UNL     1       9.481  17.712  22.003  0.00  0.00    -0.284 N 
ATOM     71  C   UNL     1       9.745  16.398  22.377  0.00  0.00    +0.206 C 
ATOM     72  O   UNL     1      10.798  15.792  22.225  0.00  0.00    -0.279 OA
ATOM     73  H   UNL     1       8.881  15.906  22.856  0.00  0.00    +0.126 HD
BRANCH  70  74
ATOM     74  C   UNL     1      10.552  18.466  21.366  0.00  0.00    +0.007 C 
ATOM     75  H   UNL     1      10.676  19.456  21.815  0.00  0.00    +0.043 HD
ATOM     76  H   UNL     1      10.318  18.601  20.305  0.00  0.00    +0.043 HD
ATOM     77  H   UNL     1      11.495  17.920  21.480  0.00  0.00    +0.043 HD
ENDBRANCH  70  74
ENDBRANCH  67  70
ENDBRANCH  60  66
ENDBRANCH  58  60
BRANCH  58  78
ATOM     78  O   UNL     1       5.883  19.499  19.370  0.00  0.00    -0.379 OA
BRANCH  78  79
ATOM     79  C   UNL     1       5.254  20.317  18.388  0.00  0.00    +0.037 C 
ATOM     80  H   UNL     1       5.922  20.510  17.546  0.00  0.00    +0.052 HD
ATOM     81  H   UNL     1       5.010  21.277  18.853  0.00  0.00    +0.052 HD
ATOM     82  H   UNL     1       4.323  19.861  18.037  0.00  0.00    +0.052 HD
ENDBRANCH  78  79
ENDBRANCH  58  78
ENDBRANCH  52  58
ENDBRANCH  50  52
BRANCH  50  83
ATOM     83  O   UNL     1       4.428  16.203  19.238  0.00  0.00    -0.459 OA
BRANCH  83  85
ATOM     84  O   UNL     1       5.801  14.369  19.101  0.00  0.00    -0.248 OA
ATOM     85  C   UNL     1       4.690  14.876  19.034  0.00  0.00    +0.337 C 
BRANCH  85  86
ATOM     86  C   UNL     1       3.387  14.135  18.706  0.00  0.00    +0.155 C 
ATOM     87  O   UNL     1       2.257  15.019  18.663  0.00  0.00    -0.365 OA
ATOM     88  C   UNL     1       1.427  14.775  19.805  0.00  0.00    +0.049 C 
ATOM     89  C   UNL     1       2.208  13.872  20.733  0.00  0.00    -0.027 C 
ATOM     90  C   UNL     1       3.069  13.095  19.767  0.00  0.00    -0.014 C 
ATOM     91  H   UNL     1       3.501  13.688  17.712  0.00  0.00    +0.071 HD
ATOM     92  H   UNL     1       1.152  15.724  20.273  0.00  0.00    +0.056 HD
ATOM     93  H   UNL     1       0.513  14.282  19.454  0.00  0.00    +0.056 HD
ATOM     94  H   UNL     1       1.569  13.242  21.356  0.00  0.00    +0.029 HD
ATOM     95  H   UNL     1       2.841  14.473  21.396  0.00  0.00    +0.029 HD
ATOM     96  H   UNL     1       2.478  12.284  19.324  0.00  0.00    +0.030 HD
ATOM     97  H   UNL     1       3.943  12.652  20.251  0.00  0.00    +0.030 HD
ENDBRANCH  85  86
ENDBRANCH  83  85
ENDBRANCH  50  83
ENDBRANCH   1  50
TORSDOF 31
ENDMDL
MODEL 8
REMARK VINA RESULT:      -4.9      3.229      5.997
REMARK  Name = 2u_conf1
REMARK  31 active torsions:
REMARK  status: ('A' for Active; 'I' for Inactive)
REMARK    1  A    between atoms: C_2  and  C_3
REMARK    2  A    between atoms: C_2  and  O_8
REMARK    3  A    between atoms: O_8  and  C_9
REMARK    4  A    between atoms: C_9  and  C_10
REMARK    5  A    between atoms: C_9  and  C_29
REMARK    6  A    between atoms: C_10  and  C_11
REMARK    7  A    between atoms: C_11  and  C_12
REMARK    8  A    between atoms: C_12  and  C_13
REMARK    9  A    between atoms: C_12  and  C_14
REMARK   10  A    between atoms: C_14  and  O_15
REMARK   11  A    between atoms: C_14  and  C_17
REMARK   12  A    between atoms: O_15  and  C_16
REMARK   13  A    between atoms: C_17  and  C_18
REMARK   14  A    between atoms: C_18  and  O_19
REMARK   15  A    between atoms: C_18  and  C_26
REMARK   16  A    between atoms: O_19  and  C_20
REMARK   17  A    between atoms: C_20  and  C_21
REMARK   18  A    between atoms: C_21  and  C_22
REMARK   19  A    between atoms: C_22  and  C_23
REMARK   20  A    between atoms: C_23  and  N_24
REMARK   21  A    between atoms: C_26  and  C_27
REMARK   22  A    between atoms: C_26  and  C_28
REMARK   23  A    between atoms: C_29  and  C_30
REMARK   24  A    between atoms: C_29  and  C_31
REMARK   25  A    between atoms: C_31  and  O_32
REMARK   26  A    between atoms: C_31  and  C_34
REMARK   27  A    between atoms: O_32  and  C_33
REMARK   28  A    between atoms: C_34  and  C_35
REMARK   29  A    between atoms: C_34  and  C_36
REMARK   30  A    between atoms: C_37  and  N_38
REMARK   31  A    between atoms: N_38  and  C_39
REMARK                            x       y       z     vdW  Elec       q    Type
REMARK                         _______ _______ _______ _____ _____    ______ ____
ROOT
ATOM      1  C   UNL     1       5.602  15.830  21.600  0.00  0.00    -0.015 C 
ATOM      2  H   UNL     1       6.686  15.747  21.644  0.00  0.00    +0.030 HD
ATOM      3  H   UNL     1       5.243  14.815  21.395  0.00  0.00    +0.030 HD
ENDROOT
BRANCH   1   4
ATOM      4  C   UNL     1       5.132  16.275  22.996  0.00  0.00    -0.045 C 
ATOM      5  H   UNL     1       4.283  15.645  23.290  0.00  0.00    +0.027 HD
ATOM      6  H   UNL     1       4.729  17.292  22.919  0.00  0.00    +0.027 HD
BRANCH   4   7
ATOM      7  C   UNL     1       6.205  16.227  24.108  0.00  0.00    -0.017 C 
ATOM      8  H   UNL     1       7.135  15.844  23.669  0.00  0.00    +0.032 HD
BRANCH   7   9
ATOM      9  C   UNL     1       5.760  15.207  25.168  0.00  0.00    -0.060 C 
ATOM     10  H   UNL     1       4.773  15.474  25.565  0.00  0.00    +0.023 HD
ATOM     11  H   UNL     1       5.671  14.202  24.746  0.00  0.00    +0.023 HD
ATOM     12  H   UNL     1       6.458  15.167  26.010  0.00  0.00    +0.023 HD
ENDBRANCH   7   9
BRANCH   7  13
ATOM     13  C   UNL     1       6.499  17.627  24.715  0.00  0.00    +0.064 C 
ATOM     14  H   UNL     1       6.296  18.390  23.956  0.00  0.00    +0.060 HD
BRANCH  13  15
ATOM     15  C   UNL     1       7.972  17.755  25.150  0.00  0.00    +0.011 C 
ATOM     16  H   UNL     1       8.343  16.757  25.408  0.00  0.00    +0.033 HD
ATOM     17  H   UNL     1       8.044  18.395  26.036  0.00  0.00    +0.033 HD
BRANCH  15  18
ATOM     18  C   UNL     1       8.860  18.356  24.041  0.00  0.00    +0.108 C 
ATOM     19  H   UNL     1       8.217  18.621  23.193  0.00  0.00    +0.074 HD
BRANCH  18  20
ATOM     20  C   UNL     1       9.593  19.630  24.533  0.00  0.00    -0.009 C 
ATOM     21  H   UNL     1      10.333  19.326  25.287  0.00  0.00    +0.033 HD
BRANCH  20  22
ATOM     22  C   UNL     1      10.332  20.375  23.418  0.00  0.00    -0.059 C 
ATOM     23  H   UNL     1       9.844  20.237  22.446  0.00  0.00    +0.023 HD
ATOM     24  H   UNL     1      10.355  21.451  23.626  0.00  0.00    +0.023 HD
ATOM     25  H   UNL     1      11.369  20.039  23.330  0.00  0.00    +0.023 HD
ENDBRANCH  20  22
BRANCH  20  26
ATOM     26  C   UNL     1       8.630  20.592  25.233  0.00  0.00    -0.059 C 
ATOM     27  H   UNL     1       8.665  21.593  24.794  0.00  0.00    +0.023 HD
ATOM     28  H   UNL     1       7.599  20.225  25.169  0.00  0.00    +0.023 HD
ATOM     29  H   UNL     1       8.881  20.686  26.294  0.00  0.00    +0.023 HD
ENDBRANCH  20  26
ENDBRANCH  18  20
BRANCH  18  30
ATOM     30  O   UNL     1       9.812  17.332  23.673  0.00  0.00    -0.461 OA
BRANCH  30  31
ATOM     31  C   UNL     1       9.746  16.823  22.412  0.00  0.00    +0.307 C 
ATOM     32  O   UNL     1       9.924  17.453  21.379  0.00  0.00    -0.251 OA
BRANCH  31  33
ATOM     33  C   UNL     1       9.288  15.382  22.474  0.00  0.00    +0.046 C 
ATOM     34  H   UNL     1       8.194  15.336  22.474  0.00  0.00    +0.038 HD
ATOM     35  H   UNL     1       9.642  14.909  21.550  0.00  0.00    +0.038 HD
BRANCH  33  36
ATOM     36  C   UNL     1       9.848  14.627  23.680  0.00  0.00    -0.031 C 
ATOM     37  H   UNL     1       9.109  13.917  24.073  0.00  0.00    +0.028 HD
ATOM     38  H   UNL     1      10.044  15.350  24.481  0.00  0.00    +0.028 HD
BRANCH  36  39
ATOM     39  C   UNL     1      11.159  13.897  23.384  0.00  0.00    -0.006 C 
ATOM     40  H   UNL     1      11.615  13.574  24.327  0.00  0.00    +0.042 HD
ATOM     41  H   UNL     1      11.863  14.586  22.902  0.00  0.00    +0.042 HD
BRANCH  39  42
ATOM     42  N   UNL     1      10.965  12.742  22.523  0.00  0.00    -0.330 NA
ATOM     43  H   UNL     1      11.764  12.108  22.600  0.00  0.00    +0.118 HD
ATOM     44  H   UNL     1      10.930  13.042  21.548  0.00  0.00    +0.118 HD
ENDBRANCH  39  42
ENDBRANCH  36  39
ENDBRANCH  33  36
ENDBRANCH  31  33
ENDBRANCH  30  31
ENDBRANCH  18  30
ENDBRANCH  15  18
ENDBRANCH  13  15
BRANCH  13  45
ATOM     45  O   UNL     1       5.672  17.825  25.869  0.00  0.00    -0.379 OA
BRANCH  45  46
ATOM     46  C   UNL     1       4.945  19.044  25.848  0.00  0.00    +0.037 C 
ATOM     47  H   UNL     1       5.383  19.769  26.538  0.00  0.00    +0.052 HD
ATOM     48  H   UNL     1       4.912  19.459  24.837  0.00  0.00    +0.052 HD
ATOM     49  H   UNL     1       3.920  18.835  26.169  0.00  0.00    +0.052 HD
ENDBRANCH  45  46
ENDBRANCH  13  45
ENDBRANCH   7  13
ENDBRANCH   4   7
ENDBRANCH   1   4
BRANCH   1  50
ATOM     50  C   UNL     1       5.192  16.769  20.452  0.00  0.00    +0.108 C 
ATOM     51  H   UNL     1       6.140  17.133  20.030  0.00  0.00    +0.074 HD
BRANCH  50  52
ATOM     52  C   UNL     1       4.379  18.026  20.869  0.00  0.00    +0.020 C 
ATOM     53  H   UNL     1       4.255  17.888  21.953  0.00  0.00    +0.036 HD
BRANCH  52  54
ATOM     54  C   UNL     1       2.937  17.992  20.348  0.00  0.00    -0.057 C 
ATOM     55  H   UNL     1       2.751  18.798  19.632  0.00  0.00    +0.023 HD
ATOM     56  H   UNL     1       2.234  18.131  21.177  0.00  0.00    +0.023 HD
ATOM     57  H   UNL     1       2.684  17.046  19.864  0.00  0.00    +0.023 HD
ENDBRANCH  52  54
BRANCH  52  58
ATOM     58  C   UNL     1       5.082  19.418  20.768  0.00  0.00    +0.070 C 
ATOM     59  H   UNL     1       5.710  19.404  19.867  0.00  0.00    +0.061 HD
BRANCH  58  60
ATOM     60  C   UNL     1       4.256  20.744  20.697  0.00  0.00    +0.002 C 
ATOM     61  H   UNL     1       4.981  21.535  20.944  0.00  0.00    +0.037 HD
BRANCH  60  62
ATOM     62  C   UNL     1       3.190  20.873  21.788  0.00  0.00    -0.057 C 
ATOM     63  H   UNL     1       3.651  20.837  22.781  0.00  0.00    +0.024 HD
ATOM     64  H   UNL     1       2.469  20.051  21.744  0.00  0.00    +0.024 HD
ATOM     65  H   UNL     1       2.641  21.814  21.727  0.00  0.00    +0.024 HD
ENDBRANCH  60  62
BRANCH  60  66
ATOM     66  C   UNL     1       3.808  21.105  19.290  0.00  0.00    -0.065 C 
ATOM     67  C   UNL     1       4.182  20.521  18.141  0.00  0.00    -0.005 C 
ATOM     68  H   UNL     1       3.083  21.914  19.261  0.00  0.00    +0.059 HD
ATOM     69  H   UNL     1       4.885  19.690  18.162  0.00  0.00    +0.078 HD
BRANCH  67  70
ATOM     70  N   UNL     1       3.765  20.899  16.872  0.00  0.00    -0.284 N 
ATOM     71  C   UNL     1       4.693  21.139  15.863  0.00  0.00    +0.206 C 
ATOM     72  O   UNL     1       4.452  21.487  14.714  0.00  0.00    -0.279 OA
ATOM     73  H   UNL     1       5.735  20.984  16.193  0.00  0.00    +0.126 HD
BRANCH  70  74
ATOM     74  C   UNL     1       2.355  21.078  16.554  0.00  0.00    +0.007 C 
ATOM     75  H   UNL     1       1.711  20.480  17.206  0.00  0.00    +0.043 HD
ATOM     76  H   UNL     1       2.175  20.767  15.521  0.00  0.00    +0.043 HD
ATOM     77  H   UNL     1       2.085  22.132  16.685  0.00  0.00    +0.043 HD
ENDBRANCH  70  74
ENDBRANCH  67  70
ENDBRANCH  60  66
ENDBRANCH  58  60
BRANCH  58  78
ATOM     78  O   UNL     1       5.979  19.588  21.896  0.00  0.00    -0.379 OA
BRANCH  78  79
ATOM     79  C   UNL     1       6.982  20.579  21.698  0.00  0.00    +0.037 C 
ATOM     80  H   UNL     1       6.790  21.163  20.795  0.00  0.00    +0.052 HD
ATOM     81  H   UNL     1       7.942  20.069  21.573  0.00  0.00    +0.052 HD
ATOM     82  H   UNL     1       7.056  21.240  22.568  0.00  0.00    +0.052 HD
ENDBRANCH  78  79
ENDBRANCH  58  78
ENDBRANCH  52  58
ENDBRANCH  50  52
BRANCH  50  83
ATOM     83  O   UNL     1       4.491  16.016  19.442  0.00  0.00    -0.459 OA
BRANCH  83  85
ATOM     84  O   UNL     1       6.011  14.322  19.143  0.00  0.00    -0.248 OA
ATOM     85  C   UNL     1       4.859  14.706  19.297  0.00  0.00    +0.337 C 
BRANCH  85  86
ATOM     86  C   UNL     1       3.617  13.808  19.352  0.00  0.00    +0.155 C 
ATOM     87  O   UNL     1       2.423  14.553  19.638  0.00  0.00    -0.365 OA
ATOM     88  C   UNL     1       1.988  14.248  20.968  0.00  0.00    +0.049 C 
ATOM     89  C   UNL     1       3.103  13.471  21.630  0.00  0.00    -0.027 C 
ATOM     90  C   UNL     1       3.741  12.771  20.455  0.00  0.00    -0.014 C 
ATOM     91  H   UNL     1       3.496  13.348  18.365  0.00  0.00    +0.071 HD
ATOM     92  H   UNL     1       1.744  15.172  21.499  0.00  0.00    +0.056 HD
ATOM     93  H   UNL     1       1.078  13.641  20.890  0.00  0.00    +0.056 HD
ATOM     94  H   UNL     1       2.747  12.789  22.407  0.00  0.00    +0.029 HD
ATOM     95  H   UNL     1       3.820  14.162  22.087  0.00  0.00    +0.029 HD
ATOM     96  H   UNL     1       3.151  11.884  20.196  0.00  0.00    +0.030 HD
ATOM     97  H   UNL     1       4.763  12.447  20.667  0.00  0.00    +0.030 HD
ENDBRANCH  85  86
ENDBRANCH  83  85
ENDBRANCH  50  83
ENDBRANCH   1  50
TORSDOF 31
ENDMDL
MODEL 9
REMARK VINA RESULT:      -4.9      2.925      5.073
REMARK  Name = 2u_conf1
REMARK  31 active torsions:
REMARK  status: ('A' for Active; 'I' for Inactive)
REMARK    1  A    between atoms: C_2  and  C_3
REMARK    2  A    between atoms: C_2  and  O_8
REMARK    3  A    between atoms: O_8  and  C_9
REMARK    4  A    between atoms: C_9  and  C_10
REMARK    5  A    between atoms: C_9  and  C_29
REMARK    6  A    between atoms: C_10  and  C_11
REMARK    7  A    between atoms: C_11  and  C_12
REMARK    8  A    between atoms: C_12  and  C_13
REMARK    9  A    between atoms: C_12  and  C_14
REMARK   10  A    between atoms: C_14  and  O_15
REMARK   11  A    between atoms: C_14  and  C_17
REMARK   12  A    between atoms: O_15  and  C_16
REMARK   13  A    between atoms: C_17  and  C_18
REMARK   14  A    between atoms: C_18  and  O_19
REMARK   15  A    between atoms: C_18  and  C_26
REMARK   16  A    between atoms: O_19  and  C_20
REMARK   17  A    between atoms: C_20  and  C_21
REMARK   18  A    between atoms: C_21  and  C_22
REMARK   19  A    between atoms: C_22  and  C_23
REMARK   20  A    between atoms: C_23  and  N_24
REMARK   21  A    between atoms: C_26  and  C_27
REMARK   22  A    between atoms: C_26  and  C_28
REMARK   23  A    between atoms: C_29  and  C_30
REMARK   24  A    between atoms: C_29  and  C_31
REMARK   25  A    between atoms: C_31  and  O_32
REMARK   26  A    between atoms: C_31  and  C_34
REMARK   27  A    between atoms: O_32  and  C_33
REMARK   28  A    between atoms: C_34  and  C_35
REMARK   29  A    between atoms: C_34  and  C_36
REMARK   30  A    between atoms: C_37  and  N_38
REMARK   31  A    between atoms: N_38  and  C_39
REMARK                            x       y       z     vdW  Elec       q    Type
REMARK                         _______ _______ _______ _____ _____    ______ ____
ROOT
ATOM      1  C   UNL     1       4.879  16.732  21.724  0.00  0.00    -0.015 C 
ATOM      2  H   UNL     1       4.362  15.775  21.754  0.00  0.00    +0.030 HD
ATOM      3  H   UNL     1       4.363  17.362  22.458  0.00  0.00    +0.030 HD
ENDROOT
BRANCH   1   4
ATOM      4  C   UNL     1       6.324  16.474  22.187  0.00  0.00    -0.045 C 
ATOM      5  H   UNL     1       6.856  17.434  22.202  0.00  0.00    +0.027 HD
ATOM      6  H   UNL     1       6.830  15.871  21.423  0.00  0.00    +0.027 HD
BRANCH   4   7
ATOM      7  C   UNL     1       6.471  15.792  23.566  0.00  0.00    -0.017 C 
ATOM      8  H   UNL     1       6.805  14.760  23.402  0.00  0.00    +0.032 HD
BRANCH   7   9
ATOM      9  C   UNL     1       5.081  15.712  24.218  0.00  0.00    -0.060 C 
ATOM     10  H   UNL     1       4.397  15.128  23.590  0.00  0.00    +0.023 HD
ATOM     11  H   UNL     1       5.122  15.215  25.191  0.00  0.00    +0.023 HD
ATOM     12  H   UNL     1       4.641  16.705  24.355  0.00  0.00    +0.023 HD
ENDBRANCH   7   9
BRANCH   7  13
ATOM     13  C   UNL     1       7.515  16.500  24.474  0.00  0.00    +0.064 C 
ATOM     14  H   UNL     1       8.290  16.943  23.841  0.00  0.00    +0.060 HD
BRANCH  13  15
ATOM     15  C   UNL     1       8.187  15.505  25.440  0.00  0.00    +0.011 C 
ATOM     16  H   UNL     1       7.766  14.510  25.258  0.00  0.00    +0.033 HD
ATOM     17  H   UNL     1       7.975  15.790  26.476  0.00  0.00    +0.033 HD
BRANCH  15  18
ATOM     18  C   UNL     1       9.718  15.451  25.254  0.00  0.00    +0.108 C 
ATOM     19  H   UNL     1      10.188  15.799  26.182  0.00  0.00    +0.074 HD
BRANCH  18  20
ATOM     20  C   UNL     1      10.201  14.010  24.955  0.00  0.00    -0.009 C 
ATOM     21  H   UNL     1      11.178  13.872  25.438  0.00  0.00    +0.033 HD
BRANCH  20  22
ATOM     22  C   UNL     1       9.254  12.929  25.486  0.00  0.00    -0.059 C 
ATOM     23  H   UNL     1       9.060  12.155  24.734  0.00  0.00    +0.023 HD
ATOM     24  H   UNL     1       9.689  12.436  26.363  0.00  0.00    +0.023 HD
ATOM     25  H   UNL     1       8.295  13.354  25.794  0.00  0.00    +0.023 HD
ENDBRANCH  20  22
BRANCH  20  26
ATOM     26  C   UNL     1      10.422  13.796  23.455  0.00  0.00    -0.059 C 
ATOM     27  H   UNL     1       9.506  13.475  22.952  0.00  0.00    +0.023 HD
ATOM     28  H   UNL     1      10.771  14.719  22.978  0.00  0.00    +0.023 HD
ATOM     29  H   UNL     1      11.182  13.028  23.283  0.00  0.00    +0.023 HD
ENDBRANCH  20  26
ENDBRANCH  18  20
BRANCH  18  30
ATOM     30  O   UNL     1      10.031  16.332  24.150  0.00  0.00    -0.461 OA
BRANCH  30  31
ATOM     31  C   UNL     1      10.987  17.281  24.342  0.00  0.00    +0.307 C 
ATOM     32  O   UNL     1      11.773  17.321  25.278  0.00  0.00    -0.251 OA
BRANCH  31  33
ATOM     33  C   UNL     1      10.846  18.358  23.290  0.00  0.00    +0.046 C 
ATOM     34  H   UNL     1      10.415  19.262  23.733  0.00  0.00    +0.038 HD
ATOM     35  H   UNL     1      11.864  18.601  22.962  0.00  0.00    +0.038 HD
BRANCH  33  36
ATOM     36  C   UNL     1      10.015  17.914  22.085  0.00  0.00    -0.031 C 
ATOM     37  H   UNL     1       9.476  16.984  22.304  0.00  0.00    +0.028 HD
ATOM     38  H   UNL     1      10.699  17.692  21.257  0.00  0.00    +0.028 HD
BRANCH  36  39
ATOM     39  C   UNL     1       9.032  18.980  21.599  0.00  0.00    -0.006 C 
ATOM     40  H   UNL     1       9.119  19.870  22.234  0.00  0.00    +0.042 HD
ATOM     41  H   UNL     1       8.005  18.608  21.701  0.00  0.00    +0.042 HD
BRANCH  39  42
ATOM     42  N   UNL     1       9.263  19.353  20.213  0.00  0.00    -0.330 NA
ATOM     43  H   UNL     1       8.768  20.222  19.996  0.00  0.00    +0.118 HD
ATOM     44  H   UNL     1       8.875  18.640  19.596  0.00  0.00    +0.118 HD
ENDBRANCH  39  42
ENDBRANCH  36  39
ENDBRANCH  33  36
ENDBRANCH  31  33
ENDBRANCH  30  31
ENDBRANCH  18  30
ENDBRANCH  15  18
ENDBRANCH  13  15
BRANCH  13  45
ATOM     45  O   UNL     1       6.858  17.506  25.254  0.00  0.00    -0.379 OA
BRANCH  45  46
ATOM     46  C   UNL     1       7.419  18.802  25.104  0.00  0.00    +0.037 C 
ATOM     47  H   UNL     1       8.185  18.805  24.326  0.00  0.00    +0.052 HD
ATOM     48  H   UNL     1       6.643  19.536  24.871  0.00  0.00    +0.052 HD
ATOM     49  H   UNL     1       7.887  19.083  26.052  0.00  0.00    +0.052 HD
ENDBRANCH  45  46
ENDBRANCH  13  45
ENDBRANCH   7  13
ENDBRANCH   4   7
ENDBRANCH   1   4
BRANCH   1  50
ATOM     50  C   UNL     1       4.751  17.355  20.323  0.00  0.00    +0.108 C 
ATOM     51  H   UNL     1       5.775  17.365  19.922  0.00  0.00    +0.074 HD
BRANCH  50  52
ATOM     52  C   UNL     1       4.243  18.823  20.284  0.00  0.00    +0.020 C 
ATOM     53  H   UNL     1       3.397  18.770  19.582  0.00  0.00    +0.036 HD
BRANCH  52  54
ATOM     54  C   UNL     1       5.224  19.765  19.574  0.00  0.00    -0.057 C 
ATOM     55  H   UNL     1       5.699  19.277  18.718  0.00  0.00    +0.023 HD
ATOM     56  H   UNL     1       6.025  20.061  20.261  0.00  0.00    +0.023 HD
ATOM     57  H   UNL     1       4.748  20.681  19.218  0.00  0.00    +0.023 HD
ENDBRANCH  52  54
BRANCH  52  58
ATOM     58  C   UNL     1       3.592  19.406  21.579  0.00  0.00    +0.070 C 
ATOM     59  H   UNL     1       2.788  18.721  21.879  0.00  0.00    +0.061 HD
BRANCH  58  60
ATOM     60  C   UNL     1       4.437  19.668  22.868  0.00  0.00    +0.002 C 
ATOM     61  H   UNL     1       5.320  19.020  22.757  0.00  0.00    +0.037 HD
BRANCH  60  62
ATOM     62  C   UNL     1       3.779  19.168  24.157  0.00  0.00    -0.057 C 
ATOM     63  H   UNL     1       4.537  18.806  24.860  0.00  0.00    +0.024 HD
ATOM     64  H   UNL     1       3.103  18.329  23.962  0.00  0.00    +0.024 HD
ATOM     65  H   UNL     1       3.216  19.949  24.670  0.00  0.00    +0.024 HD
ENDBRANCH  60  62
BRANCH  60  66
ATOM     66  C   UNL     1       5.033  21.064  22.931  0.00  0.00    -0.065 C 
ATOM     67  C   UNL     1       6.296  21.425  22.655  0.00  0.00    -0.005 C 
ATOM     68  H   UNL     1       4.313  21.830  23.209  0.00  0.00    +0.059 HD
ATOM     69  H   UNL     1       7.016  20.670  22.346  0.00  0.00    +0.078 HD
BRANCH  67  70
ATOM     70  N   UNL     1       6.805  22.713  22.747  0.00  0.00    -0.284 N 
ATOM     71  C   UNL     1       8.144  22.925  23.062  0.00  0.00    +0.206 C 
ATOM     72  O   UNL     1       8.705  24.006  23.184  0.00  0.00    -0.279 OA
ATOM     73  H   UNL     1       8.705  21.985  23.206  0.00  0.00    +0.126 HD
BRANCH  70  74
ATOM     74  C   UNL     1       5.963  23.883  22.540  0.00  0.00    +0.007 C 
ATOM     75  H   UNL     1       5.902  24.505  23.439  0.00  0.00    +0.043 HD
ATOM     76  H   UNL     1       4.950  23.559  22.283  0.00  0.00    +0.043 HD
ATOM     77  H   UNL     1       6.383  24.493  21.733  0.00  0.00    +0.043 HD
ENDBRANCH  70  74
ENDBRANCH  67  70
ENDBRANCH  60  66
ENDBRANCH  58  60
BRANCH  58  78
ATOM     78  O   UNL     1       2.962  20.676  21.272  0.00  0.00    -0.379 OA
BRANCH  78  79
ATOM     79  C   UNL     1       1.539  20.642  21.298  0.00  0.00    +0.037 C 
ATOM     80  H   UNL     1       1.149  21.033  22.240  0.00  0.00    +0.052 HD
ATOM     81  H   UNL     1       1.223  19.598  21.209  0.00  0.00    +0.052 HD
ATOM     82  H   UNL     1       1.119  21.199  20.453  0.00  0.00    +0.052 HD
ENDBRANCH  78  79
ENDBRANCH  58  78
ENDBRANCH  52  58
ENDBRANCH  50  52
BRANCH  50  83
ATOM     83  O   UNL     1       3.934  16.507  19.492  0.00  0.00    -0.459 OA
BRANCH  83  85
ATOM     84  O   UNL     1       5.573  15.004  18.925  0.00  0.00    -0.248 OA
ATOM     85  C   UNL     1       4.419  15.251  19.245  0.00  0.00    +0.337 C 
BRANCH  85  86
ATOM     86  C   UNL     1       3.299  14.218  19.423  0.00  0.00    +0.155 C 
ATOM     87  O   UNL     1       2.198  14.739  20.182  0.00  0.00    -0.365 OA
ATOM     88  C   UNL     1       2.183  14.119  21.474  0.00  0.00    +0.049 C 
ATOM     89  C   UNL     1       3.485  13.363  21.615  0.00  0.00    -0.027 C 
ATOM     90  C   UNL     1       3.797  13.001  20.184  0.00  0.00    -0.014 C 
ATOM     91  H   UNL     1       2.926  13.957  18.427  0.00  0.00    +0.071 HD
ATOM     92  H   UNL     1       2.050  14.879  22.248  0.00  0.00    +0.056 HD
ATOM     93  H   UNL     1       1.327  13.435  21.506  0.00  0.00    +0.056 HD
ATOM     94  H   UNL     1       3.410  12.500  22.281  0.00  0.00    +0.029 HD
ATOM     95  H   UNL     1       4.263  14.028  22.009  0.00  0.00    +0.029 HD
ATOM     96  H   UNL     1       3.209  12.120  19.896  0.00  0.00    +0.030 HD
ATOM     97  H   UNL     1       4.854  12.766  20.033  0.00  0.00    +0.030 HD
ENDBRANCH  85  86
ENDBRANCH  83  85
ENDBRANCH  50  83
ENDBRANCH   1  50
TORSDOF 31
ENDMDL
MODEL 10
REMARK VINA RESULT:      -4.9      4.124      9.773
REMARK  Name = 2u_conf1
REMARK  31 active torsions:
REMARK  status: ('A' for Active; 'I' for Inactive)
REMARK    1  A    between atoms: C_2  and  C_3
REMARK    2  A    between atoms: C_2  and  O_8
REMARK    3  A    between atoms: O_8  and  C_9
REMARK    4  A    between atoms: C_9  and  C_10
REMARK    5  A    between atoms: C_9  and  C_29
REMARK    6  A    between atoms: C_10  and  C_11
REMARK    7  A    between atoms: C_11  and  C_12
REMARK    8  A    between atoms: C_12  and  C_13
REMARK    9  A    between atoms: C_12  and  C_14
REMARK   10  A    between atoms: C_14  and  O_15
REMARK   11  A    between atoms: C_14  and  C_17
REMARK   12  A    between atoms: O_15  and  C_16
REMARK   13  A    between atoms: C_17  and  C_18
REMARK   14  A    between atoms: C_18  and  O_19
REMARK   15  A    between atoms: C_18  and  C_26
REMARK   16  A    between atoms: O_19  and  C_20
REMARK   17  A    between atoms: C_20  and  C_21
REMARK   18  A    between atoms: C_21  and  C_22
REMARK   19  A    between atoms: C_22  and  C_23
REMARK   20  A    between atoms: C_23  and  N_24
REMARK   21  A    between atoms: C_26  and  C_27
REMARK   22  A    between atoms: C_26  and  C_28
REMARK   23  A    between atoms: C_29  and  C_30
REMARK   24  A    between atoms: C_29  and  C_31
REMARK   25  A    between atoms: C_31  and  O_32
REMARK   26  A    between atoms: C_31  and  C_34
REMARK   27  A    between atoms: O_32  and  C_33
REMARK   28  A    between atoms: C_34  and  C_35
REMARK   29  A    between atoms: C_34  and  C_36
REMARK   30  A    between atoms: C_37  and  N_38
REMARK   31  A    between atoms: N_38  and  C_39
REMARK                            x       y       z     vdW  Elec       q    Type
REMARK                         _______ _______ _______ _____ _____    ______ ____
ROOT
ATOM      1  C   UNL     1       5.306  16.572  23.375  0.00  0.00    -0.015 C 
ATOM      2  H   UNL     1       4.537  17.320  23.197  0.00  0.00    +0.030 HD
ATOM      3  H   UNL     1       5.180  16.271  24.422  0.00  0.00    +0.030 HD
ENDROOT
BRANCH   1   4
ATOM      4  C   UNL     1       4.992  15.381  22.452  0.00  0.00    -0.045 C 
ATOM      5  H   UNL     1       5.477  14.488  22.866  0.00  0.00    +0.027 HD
ATOM      6  H   UNL     1       5.477  15.555  21.484  0.00  0.00    +0.027 HD
BRANCH   4   7
ATOM      7  C   UNL     1       3.491  15.085  22.232  0.00  0.00    -0.017 C 
ATOM      8  H   UNL     1       2.918  15.669  22.962  0.00  0.00    +0.032 HD
BRANCH   7   9
ATOM      9  C   UNL     1       3.238  13.603  22.550  0.00  0.00    -0.060 C 
ATOM     10  H   UNL     1       2.227  13.464  22.951  0.00  0.00    +0.023 HD
ATOM     11  H   UNL     1       3.312  12.981  21.654  0.00  0.00    +0.023 HD
ATOM     12  H   UNL     1       3.946  13.221  23.294  0.00  0.00    +0.023 HD
ENDBRANCH   7   9
BRANCH   7  13
ATOM     13  C   UNL     1       3.006  15.480  20.810  0.00  0.00    +0.064 C 
ATOM     14  H   UNL     1       2.399  16.389  20.884  0.00  0.00    +0.060 HD
BRANCH  13  15
ATOM     15  C   UNL     1       2.143  14.369  20.181  0.00  0.00    +0.011 C 
ATOM     16  H   UNL     1       1.841  13.676  20.973  0.00  0.00    +0.033 HD
ATOM     17  H   UNL     1       2.729  13.818  19.438  0.00  0.00    +0.033 HD
BRANCH  15  18
ATOM     18  C   UNL     1       0.883  14.929  19.488  0.00  0.00    +0.108 C 
ATOM     19  H   UNL     1       1.111  15.938  19.124  0.00  0.00    +0.074 HD
BRANCH  18  20
ATOM     20  C   UNL     1       0.459  14.046  18.287  0.00  0.00    -0.009 C 
ATOM     21  H   UNL     1      -0.492  13.559  18.543  0.00  0.00    +0.033 HD
BRANCH  20  22
ATOM     22  C   UNL     1       0.253  14.838  16.993  0.00  0.00    -0.059 C 
ATOM     23  H   UNL     1      -0.128  14.203  16.185  0.00  0.00    +0.023 HD
ATOM     24  H   UNL     1      -0.473  15.645  17.149  0.00  0.00    +0.023 HD
ATOM     25  H   UNL     1       1.184  15.300  16.654  0.00  0.00    +0.023 HD
ENDBRANCH  20  22
BRANCH  20  26
ATOM     26  C   UNL     1       1.470  12.923  18.037  0.00  0.00    -0.059 C 
ATOM     27  H   UNL     1       2.284  13.248  17.385  0.00  0.00    +0.023 HD
ATOM     28  H   UNL     1       1.904  12.573  18.981  0.00  0.00    +0.023 HD
ATOM     29  H   UNL     1       0.984  12.066  17.560  0.00  0.00    +0.023 HD
ENDBRANCH  20  26
ENDBRANCH  18  20
BRANCH  18  30
ATOM     30  O   UNL     1      -0.160  14.960  20.489  0.00  0.00    -0.461 OA
BRANCH  30  31
ATOM     31  C   UNL     1      -1.273  15.699  20.230  0.00  0.00    +0.307 C 
ATOM     32  O   UNL     1      -1.296  16.761  19.624  0.00  0.00    -0.251 OA
BRANCH  31  33
ATOM     33  C   UNL     1      -2.465  15.074  20.919  0.00  0.00    +0.046 C 
ATOM     34  H   UNL     1      -2.670  14.086  20.494  0.00  0.00    +0.038 HD
ATOM     35  H   UNL     1      -2.174  14.932  21.967  0.00  0.00    +0.038 HD
BRANCH  33  36
ATOM     36  C   UNL     1      -3.720  15.946  20.854  0.00  0.00    -0.031 C 
ATOM     37  H   UNL     1      -3.950  16.223  19.817  0.00  0.00    +0.028 HD
ATOM     38  H   UNL     1      -3.520  16.882  21.390  0.00  0.00    +0.028 HD
BRANCH  36  39
ATOM     39  C   UNL     1      -4.946  15.296  21.499  0.00  0.00    -0.006 C 
ATOM     40  H   UNL     1      -5.013  14.250  21.176  0.00  0.00    +0.042 HD
ATOM     41  H   UNL     1      -5.855  15.802  21.153  0.00  0.00    +0.042 HD
BRANCH  39  42
ATOM     42  N   UNL     1      -4.898  15.350  22.950  0.00  0.00    -0.330 NA
ATOM     43  H   UNL     1      -5.776  15.726  23.317  0.00  0.00    +0.118 HD
ATOM     44  H   UNL     1      -4.164  15.994  23.247  0.00  0.00    +0.118 HD
ENDBRANCH  39  42
ENDBRANCH  36  39
ENDBRANCH  33  36
ENDBRANCH  31  33
ENDBRANCH  30  31
ENDBRANCH  18  30
ENDBRANCH  15  18
ENDBRANCH  13  15
BRANCH  13  45
ATOM     45  O   UNL     1       4.143  15.696  19.966  0.00  0.00    -0.379 OA
BRANCH  45  46
ATOM     46  C   UNL     1       4.410  14.620  19.079  0.00  0.00    +0.037 C 
ATOM     47  H   UNL     1       5.462  14.330  19.125  0.00  0.00    +0.052 HD
ATOM     48  H   UNL     1       3.773  13.761  19.309  0.00  0.00    +0.052 HD
ATOM     49  H   UNL     1       4.187  14.952  18.061  0.00  0.00    +0.052 HD
ENDBRANCH  45  46
ENDBRANCH  13  45
ENDBRANCH   7  13
ENDBRANCH   4   7
ENDBRANCH   1   4
BRANCH   1  50
ATOM     50  C   UNL     1       6.700  17.191  23.177  0.00  0.00    +0.108 C 
ATOM     51  H   UNL     1       7.125  17.266  24.188  0.00  0.00    +0.074 HD
BRANCH  50  52
ATOM     52  C   UNL     1       6.720  18.625  22.579  0.00  0.00    +0.020 C 
ATOM     53  H   UNL     1       7.795  18.851  22.520  0.00  0.00    +0.036 HD
BRANCH  52  54
ATOM     54  C   UNL     1       6.198  19.679  23.562  0.00  0.00    -0.057 C 
ATOM     55  H   UNL     1       7.012  20.127  24.139  0.00  0.00    +0.023 HD
ATOM     56  H   UNL     1       5.511  19.216  24.280  0.00  0.00    +0.023 HD
ATOM     57  H   UNL     1       5.653  20.486  23.067  0.00  0.00    +0.023 HD
ENDBRANCH  52  54
BRANCH  52  58
ATOM     58  C   UNL     1       6.241  18.808  21.103  0.00  0.00    +0.070 C 
ATOM     59  H   UNL     1       6.080  17.806  20.683  0.00  0.00    +0.061 HD
BRANCH  58  60
ATOM     60  C   UNL     1       4.955  19.629  20.760  0.00  0.00    +0.002 C 
ATOM     61  H   UNL     1       5.064  20.565  21.331  0.00  0.00    +0.037 HD
BRANCH  60  62
ATOM     62  C   UNL     1       3.662  19.018  21.306  0.00  0.00    -0.057 C 
ATOM     63  H   UNL     1       3.766  17.932  21.413  0.00  0.00    +0.024 HD
ATOM     64  H   UNL     1       2.820  19.189  20.628  0.00  0.00    +0.024 HD
ATOM     65  H   UNL     1       3.396  19.410  22.289  0.00  0.00    +0.024 HD
ENDBRANCH  60  62
BRANCH  60  66
ATOM     66  C   UNL     1       4.904  20.103  19.317  0.00  0.00    -0.065 C 
ATOM     67  C   UNL     1       3.982  20.899  18.753  0.00  0.00    -0.005 C 
ATOM     68  H   UNL     1       5.741  19.756  18.718  0.00  0.00    +0.059 HD
ATOM     69  H   UNL     1       3.155  21.275  19.353  0.00  0.00    +0.078 HD
BRANCH  67  70
ATOM     70  N   UNL     1       3.961  21.289  17.421  0.00  0.00    -0.284 N 
ATOM     71  C   UNL     1       5.067  21.911  16.848  0.00  0.00    +0.206 C 
ATOM     72  O   UNL     1       5.165  22.310  15.695  0.00  0.00    -0.279 OA
ATOM     73  H   UNL     1       5.907  22.028  17.554  0.00  0.00    +0.126 HD
BRANCH  70  74
ATOM     74  C   UNL     1       2.787  21.086  16.585  0.00  0.00    +0.007 C 
ATOM     75  H   UNL     1       1.911  21.611  16.977  0.00  0.00    +0.043 HD
ATOM     76  H   UNL     1       2.552  20.018  16.543  0.00  0.00    +0.043 HD
ATOM     77  H   UNL     1       2.989  21.469  15.578  0.00  0.00    +0.043 HD
ENDBRANCH  70  74
ENDBRANCH  67  70
ENDBRANCH  60  66
ENDBRANCH  58  60
BRANCH  58  78
ATOM     78  O   UNL     1       7.301  19.418  20.323  0.00  0.00    -0.379 OA
BRANCH  78  79
ATOM     79  C   UNL     1       8.563  19.453  20.982  0.00  0.00    +0.037 C 
ATOM     80  H   UNL     1       9.338  19.869  20.335  0.00  0.00    +0.052 HD
ATOM     81  H   UNL     1       8.845  18.426  21.231  0.00  0.00    +0.052 HD
ATOM     82  H   UNL     1       8.501  20.026  21.914  0.00  0.00    +0.052 HD
ENDBRANCH  78  79
ENDBRANCH  58  78
ENDBRANCH  52  58
ENDBRANCH  50  52
BRANCH  50  83
ATOM     83  O   UNL     1       7.517  16.297  22.394  0.00  0.00    -0.459 OA
BRANCH  83  85
ATOM     84  O   UNL     1       9.770  16.120  21.997  0.00  0.00    -0.248 OA
ATOM     85  C   UNL     1       8.827  16.184  22.773  0.00  0.00    +0.337 C 
BRANCH  85  86
ATOM     86  C   UNL     1       8.923  16.144  24.303  0.00  0.00    +0.155 C 
ATOM     87  O   UNL     1      10.246  16.453  24.770  0.00  0.00    -0.365 OA
ATOM     88  C   UNL     1      10.852  15.260  25.281  0.00  0.00    +0.049 C 
ATOM     89  C   UNL     1       9.962  14.106  24.881  0.00  0.00    -0.027 C 
ATOM     90  C   UNL     1       8.602  14.757  24.834  0.00  0.00    -0.014 C 
ATOM     91  H   UNL     1       8.242  16.905  24.699  0.00  0.00    +0.071 HD
ATOM     92  H   UNL     1      11.869  15.164  24.888  0.00  0.00    +0.056 HD
ATOM     93  H   UNL     1      10.908  15.354  26.372  0.00  0.00    +0.056 HD
ATOM     94  H   UNL     1      10.020  13.260  25.572  0.00  0.00    +0.029 HD
ATOM     95  H   UNL     1      10.238  13.748  23.883  0.00  0.00    +0.029 HD
ATOM     96  H   UNL     1       8.201  14.836  25.853  0.00  0.00    +0.030 HD
ATOM     97  H   UNL     1       7.887  14.190  24.233  0.00  0.00    +0.030 HD
ENDBRANCH  85  86
ENDBRANCH  83  85
ENDBRANCH  50  83
ENDBRANCH   1  50
TORSDOF 31
ENDMDL
