MODEL 1
REMARK VINA RESULT:      -4.9      0.000      0.000
REMARK  Name = Aplyronine A_conf3
REMARK  45 active torsions:
REMARK  status: ('A' for Active; 'I' for Inactive)
REMARK    1  A    between atoms: C_1  and  C_2
REMARK    2  A    between atoms: C_5  and  O_75
REMARK    3  A    between atoms: C_6  and  C_74
REMARK    4  A    between atoms: C_9  and  C_73
REMARK    5  A    between atoms: C_11  and  O_71
REMARK    6  A    between atoms: C_15  and  C_39
REMARK    7  A    between atoms: C_24  and  O_29
REMARK    8  A    between atoms: C_25  and  C_28
REMARK    9  A    between atoms: C_26  and  O_27
REMARK   10  A    between atoms: O_29  and  C_30
REMARK   11  A    between atoms: C_30  and  C_32
REMARK   12  A    between atoms: C_32  and  C_33
REMARK   13  A    between atoms: C_32  and  N_36
REMARK   14  A    between atoms: C_33  and  O_34
REMARK   15  A    between atoms: O_34  and  C_35
REMARK   16  A    between atoms: N_36  and  C_37
REMARK   17  A    between atoms: N_36  and  C_38
REMARK   18  A    between atoms: C_39  and  C_40
REMARK   19  A    between atoms: C_39  and  C_41
REMARK   20  A    between atoms: C_41  and  C_42
REMARK   21  A    between atoms: C_41  and  O_70
REMARK   22  A    between atoms: C_42  and  C_43
REMARK   23  A    between atoms: C_42  and  C_44
REMARK   24  A    between atoms: C_44  and  C_45
REMARK   25  A    between atoms: C_45  and  C_46
REMARK   26  A    between atoms: C_46  and  C_47
REMARK   27  A    between atoms: C_46  and  O_62
REMARK   28  A    between atoms: C_47  and  C_48
REMARK   29  A    between atoms: C_47  and  C_49
REMARK   30  A    between atoms: C_49  and  C_50
REMARK   31  A    between atoms: C_49  and  O_58
REMARK   32  A    between atoms: C_50  and  C_51
REMARK   33  A    between atoms: C_50  and  C_52
REMARK   34  A    between atoms: C_53  and  N_54
REMARK   35  A    between atoms: N_54  and  C_55
REMARK   36  A    between atoms: O_58  and  C_59
REMARK   37  A    between atoms: C_59  and  C_61
REMARK   38  A    between atoms: O_62  and  C_63
REMARK   39  A    between atoms: C_63  and  C_65
REMARK   40  A    between atoms: C_65  and  C_66
REMARK   41  A    between atoms: C_65  and  N_67
REMARK   42  A    between atoms: N_67  and  C_68
REMARK   43  A    between atoms: N_67  and  C_69
REMARK   44  A    between atoms: O_71  and  C_72
REMARK   45  A    between atoms: O_75  and  C_76
REMARK                            x       y       z     vdW  Elec       q    Type
REMARK                         _______ _______ _______ _____ _____    ______ ____
ROOT
ATOM      1  C   UNL     1      -9.281  12.660  25.787  0.00  0.00    -0.017 C 
ATOM      2  C   UNL     1     -10.080  13.283  24.620  0.00  0.00    -0.045 C 
ATOM      3  C   UNL     1      -9.722  12.725  23.231  0.00  0.00    -0.022 C 
ATOM      4  C   UNL     1      -9.286  13.782  22.183  0.00  0.00    +0.079 C 
ATOM      5  C   UNL     1     -10.412  14.608  21.553  0.00  0.00    -0.048 C 
ATOM      6  C   UNL     1     -10.501  14.689  20.206  0.00  0.00    -0.082 C 
ATOM      7  C   UNL     1     -11.468  15.488  19.378  0.00  0.00    -0.032 C 
ATOM      8  C   UNL     1     -12.759  14.747  18.969  0.00  0.00    -0.038 C 
ATOM      9  C   UNL     1     -12.494  13.447  18.167  0.00  0.00    -0.020 C 
ATOM     10  C   UNL     1     -12.274  12.212  19.057  0.00  0.00    +0.077 C 
ATOM     11  C   UNL     1     -11.967  11.000  18.218  0.00  0.00    -0.059 C 
ATOM     12  C   UNL     1     -10.735  10.512  17.993  0.00  0.00    -0.082 C 
ATOM     13  C   UNL     1     -10.501   9.210  17.267  0.00  0.00    +0.003 C 
ATOM     14  C   UNL     1      -9.526   8.239  17.975  0.00  0.00    +0.112 C 
ATOM     15  O   UNL     1      -9.739   8.285  19.409  0.00  0.00    -0.458 OA
ATOM     16  C   UNL     1     -10.871   7.762  19.930  0.00  0.00    +0.332 C 
ATOM     17  O   UNL     1     -11.765   7.186  19.338  0.00  0.00    -0.246 OA
ATOM     18  C   UNL     1     -10.811   8.055  21.372  0.00  0.00    +0.022 C 
ATOM     19  C   UNL     1     -11.875   7.983  22.182  0.00  0.00    -0.055 C 
ATOM     20  C   UNL     1     -11.723   8.331  23.573  0.00  0.00    -0.065 C 
ATOM     21  C   UNL     1     -12.659   8.208  24.526  0.00  0.00    -0.081 C 
ATOM     22  C   UNL     1     -12.462   8.467  26.008  0.00  0.00    +0.003 C 
ATOM     23  C   UNL     1     -11.148   9.139  26.506  0.00  0.00    +0.111 C 
ATOM     24  C   UNL     1     -11.054  10.660  26.133  0.00  0.00    +0.020 C 
ATOM     25  C   UNL     1      -9.578  11.158  26.080  0.00  0.00    +0.064 C 
ATOM     26  H   UNL     1      -8.218  12.699  25.502  0.00  0.00    +0.032 HD
ATOM     27  H   UNL     1      -9.913  14.364  24.641  0.00  0.00    +0.027 HD
ATOM     28  H   UNL     1     -11.153  13.154  24.789  0.00  0.00    +0.027 HD
ATOM     29  H   UNL     1      -8.888  12.021  23.337  0.00  0.00    +0.029 HD
ATOM     30  H   UNL     1     -10.564  12.142  22.839  0.00  0.00    +0.029 HD
ATOM     31  H   UNL     1      -8.780  13.210  21.392  0.00  0.00    +0.064 HD
ATOM     32  H   UNL     1      -9.769  14.145  19.606  0.00  0.00    +0.057 HD
ATOM     33  H   UNL     1     -10.935  15.815  18.475  0.00  0.00    +0.031 HD
ATOM     34  H   UNL     1     -11.729  16.420  19.896  0.00  0.00    +0.031 HD
ATOM     35  H   UNL     1     -13.329  14.508  19.876  0.00  0.00    +0.030 HD
ATOM     36  H   UNL     1     -11.638  13.595  17.496  0.00  0.00    +0.030 HD
ATOM     37  H   UNL     1     -13.366  13.248  17.528  0.00  0.00    +0.030 HD
ATOM     38  H   UNL     1     -11.465  12.381  19.770  0.00  0.00    +0.064 HD
ATOM     39  H   UNL     1     -12.835  10.472  17.827  0.00  0.00    +0.059 HD
ATOM     40  H   UNL     1      -9.858  11.033  18.370  0.00  0.00    +0.057 HD
ATOM     41  H   UNL     1     -10.197   9.407  16.236  0.00  0.00    +0.034 HD
ATOM     42  H   UNL     1     -11.466   8.690  17.180  0.00  0.00    +0.034 HD
ATOM     43  H   UNL     1      -9.748   7.221  17.626  0.00  0.00    +0.074 HD
ATOM     44  H   UNL     1      -9.838   8.359  21.748  0.00  0.00    +0.069 HD
ATOM     45  H   UNL     1     -12.844   7.668  21.810  0.00  0.00    +0.062 HD
ATOM     46  H   UNL     1     -10.728   8.679  23.835  0.00  0.00    +0.061 HD
ATOM     47  H   UNL     1     -13.644   7.835  24.252  0.00  0.00    +0.057 HD
ATOM     48  H   UNL     1     -13.323   9.043  26.363  0.00  0.00    +0.034 HD
ATOM     49  H   UNL     1     -12.539   7.485  26.492  0.00  0.00    +0.034 HD
ATOM     50  H   UNL     1     -11.115   9.066  27.602  0.00  0.00    +0.074 HD
ATOM     51  H   UNL     1     -11.468  10.796  25.127  0.00  0.00    +0.036 HD
ATOM     52  H   UNL     1      -9.101  10.606  25.261  0.00  0.00    +0.060 HD
ENDROOT
BRANCH   1  53
ATOM     53  C   UNL     1      -9.361  13.575  27.021  0.00  0.00    -0.060 C 
ATOM     54  H   UNL     1      -9.532  14.612  26.710  0.00  0.00    +0.023 HD
ATOM     55  H   UNL     1      -8.424  13.573  27.584  0.00  0.00    +0.023 HD
ATOM     56  H   UNL     1     -10.171  13.303  27.698  0.00  0.00    +0.023 HD
ENDBRANCH   1  53
BRANCH   5  57
ATOM     57  C   UNL     1     -11.347  15.333  22.481  0.00  0.00    -0.041 C 
ATOM     58  H   UNL     1     -10.812  16.108  23.037  0.00  0.00    +0.028 HD
ATOM     59  H   UNL     1     -12.164  15.797  21.916  0.00  0.00    +0.028 HD
ATOM     60  H   UNL     1     -11.809  14.683  23.228  0.00  0.00    +0.028 HD
ENDBRANCH   5  57
BRANCH  24  61
ATOM     61  C   UNL     1     -11.936  11.460  27.101  0.00  0.00    -0.057 C 
ATOM     62  H   UNL     1     -12.157  12.460  26.718  0.00  0.00    +0.023 HD
ATOM     63  H   UNL     1     -12.891  10.958  27.278  0.00  0.00    +0.023 HD
ATOM     64  H   UNL     1     -11.439  11.609  28.062  0.00  0.00    +0.023 HD
ENDBRANCH  24  61
BRANCH   8  65
ATOM     65  C   UNL     1     -13.623  15.696  18.128  0.00  0.00    -0.062 C 
ATOM     66  H   UNL     1     -13.353  15.644  17.068  0.00  0.00    +0.023 HD
ATOM     67  H   UNL     1     -13.504  16.733  18.460  0.00  0.00    +0.023 HD
ATOM     68  H   UNL     1     -14.684  15.439  18.221  0.00  0.00    +0.023 HD
ENDBRANCH   8  65
BRANCH  14  69
ATOM     69  C   UNL     1      -7.990   8.479  17.776  0.00  0.00    +0.020 C 
ATOM     70  H   UNL     1      -7.511   7.499  17.644  0.00  0.00    +0.036 HD
BRANCH  69  71
ATOM     71  C   UNL     1      -7.813   9.254  16.452  0.00  0.00    -0.057 C 
ATOM     72  H   UNL     1      -7.069   8.789  15.799  0.00  0.00    +0.023 HD
ATOM     73  H   UNL     1      -7.507  10.289  16.642  0.00  0.00    +0.023 HD
ATOM     74  H   UNL     1      -8.740   9.285  15.868  0.00  0.00    +0.023 HD
ENDBRANCH  69  71
BRANCH  69  75
ATOM     75  C   UNL     1      -7.335   9.201  18.984  0.00  0.00    +0.064 C 
ATOM     76  H   UNL     1      -8.051   9.178  19.816  0.00  0.00    +0.060 HD
BRANCH  75  77
ATOM     77  C   UNL     1      -6.903  10.675  18.765  0.00  0.00    -0.017 C 
ATOM     78  H   UNL     1      -7.170  10.944  17.736  0.00  0.00    +0.032 HD
BRANCH  77  79
ATOM     79  C   UNL     1      -7.739  11.633  19.634  0.00  0.00    -0.060 C 
ATOM     80  H   UNL     1      -8.642  11.168  20.035  0.00  0.00    +0.023 HD
ATOM     81  H   UNL     1      -8.058  12.500  19.043  0.00  0.00    +0.023 HD
ATOM     82  H   UNL     1      -7.147  12.009  20.475  0.00  0.00    +0.023 HD
ENDBRANCH  77  79
BRANCH  77  83
ATOM     83  C   UNL     1      -5.386  10.963  18.906  0.00  0.00    -0.045 C 
ATOM     84  H   UNL     1      -4.880   9.989  18.863  0.00  0.00    +0.027 HD
ATOM     85  H   UNL     1      -5.180  11.363  19.905  0.00  0.00    +0.027 HD
BRANCH  83  86
ATOM     86  C   UNL     1      -4.756  11.902  17.871  0.00  0.00    -0.015 C 
ATOM     87  H   UNL     1      -5.096  11.632  16.866  0.00  0.00    +0.030 HD
ATOM     88  H   UNL     1      -3.673  11.754  17.836  0.00  0.00    +0.030 HD
BRANCH  86  89
ATOM     89  C   UNL     1      -5.023  13.396  18.160  0.00  0.00    +0.109 C 
ATOM     90  H   UNL     1      -5.581  13.481  19.103  0.00  0.00    +0.074 HD
BRANCH  89  91
ATOM     91  C   UNL     1      -5.821  14.204  17.089  0.00  0.00    +0.031 C 
ATOM     92  H   UNL     1      -6.233  13.432  16.424  0.00  0.00    +0.037 HD
BRANCH  91  93
ATOM     93  C   UNL     1      -4.872  15.062  16.245  0.00  0.00    -0.056 C 
ATOM     94  H   UNL     1      -5.372  15.454  15.352  0.00  0.00    +0.023 HD
ATOM     95  H   UNL     1      -3.992  14.498  15.923  0.00  0.00    +0.023 HD
ATOM     96  H   UNL     1      -4.533  15.936  16.806  0.00  0.00    +0.023 HD
ENDBRANCH  91  93
BRANCH  91  97
ATOM     97  C   UNL     1      -7.025  15.025  17.646  0.00  0.00    +0.115 C 
ATOM     98  H   UNL     1      -7.608  14.361  18.299  0.00  0.00    +0.074 HD
BRANCH  97  99
ATOM     99  C   UNL     1      -6.685  16.334  18.435  0.00  0.00    +0.013 C 
ATOM    100  H   UNL     1      -5.589  16.372  18.524  0.00  0.00    +0.038 HD
BRANCH  99 101
ATOM    101  C   UNL     1      -7.180  16.323  19.886  0.00  0.00    -0.056 C 
ATOM    102  H   UNL     1      -6.804  15.439  20.415  0.00  0.00    +0.024 HD
ATOM    103  H   UNL     1      -8.273  16.289  19.926  0.00  0.00    +0.024 HD
ATOM    104  H   UNL     1      -6.841  17.202  20.443  0.00  0.00    +0.024 HD
ENDBRANCH  99 101
BRANCH  99 105
ATOM    105  C   UNL     1      -7.116  17.606  17.732  0.00  0.00    -0.064 C 
ATOM    106  C   UNL     1      -6.232  18.516  17.296  0.00  0.00    -0.005 C 
ATOM    107  H   UNL     1      -8.183  17.765  17.633  0.00  0.00    +0.059 HD
ATOM    108  H   UNL     1      -5.170  18.316  17.440  0.00  0.00    +0.078 HD
BRANCH 106 109
ATOM    109  N   UNL     1      -6.499  19.716  16.654  0.00  0.00    -0.284 N 
ATOM    110  C   UNL     1      -7.764  20.212  16.372  0.00  0.00    +0.206 C 
ATOM    111  O   UNL     1      -8.019  21.258  15.784  0.00  0.00    -0.279 OA
ATOM    112  H   UNL     1      -8.580  19.566  16.719  0.00  0.00    +0.126 HD
BRANCH 109 113
ATOM    113  C   UNL     1      -5.347  20.499  16.215  0.00  0.00    +0.007 C 
ATOM    114  H   UNL     1      -5.647  21.419  15.704  0.00  0.00    +0.043 HD
ATOM    115  H   UNL     1      -4.738  20.767  17.085  0.00  0.00    +0.043 HD
ATOM    116  H   UNL     1      -4.753  19.895  15.521  0.00  0.00    +0.043 HD
ENDBRANCH 109 113
ENDBRANCH 106 109
ENDBRANCH  99 105
ENDBRANCH  97  99
BRANCH  97 117
ATOM    117  O   UNL     1      -7.859  15.412  16.521  0.00  0.00    -0.461 OA
BRANCH 117 118
ATOM    118  C   UNL     1      -9.120  14.905  16.487  0.00  0.00    +0.304 C 
ATOM    119  O   UNL     1     -10.128  15.520  16.165  0.00  0.00    -0.251 OA
BRANCH 118 120
ATOM    120  C   UNL     1      -9.101  13.466  16.897  0.00  0.00    +0.033 C 
ATOM    121  H   UNL     1     -10.117  13.146  17.146  0.00  0.00    +0.034 HD
ATOM    122  H   UNL     1      -8.737  12.849  16.071  0.00  0.00    +0.034 HD
ATOM    123  H   UNL     1      -8.467  13.341  17.779  0.00  0.00    +0.034 HD
ENDBRANCH 118 120
ENDBRANCH 117 118
ENDBRANCH  97 117
ENDBRANCH  91  97
ENDBRANCH  89  91
BRANCH  89 124
ATOM    124  O   UNL     1      -3.748  14.059  18.357  0.00  0.00    -0.460 OA
BRANCH 124 125
ATOM    125  C   UNL     1      -3.375  14.269  19.655  0.00  0.00    +0.324 C 
ATOM    126  O   UNL     1      -3.849  13.679  20.619  0.00  0.00    -0.249 OA
BRANCH 125 127
ATOM    127  C   UNL     1      -2.262  15.332  19.714  0.00  0.00    +0.105 C 
ATOM    128  H   UNL     1      -2.189  15.706  20.744  0.00  0.00    +0.058 HD
BRANCH 127 129
ATOM    129  C   UNL     1      -2.730  16.476  18.809  0.00  0.00    -0.039 C 
ATOM    130  H   UNL     1      -2.685  17.439  19.329  0.00  0.00    +0.025 HD
ATOM    131  H   UNL     1      -3.755  16.320  18.458  0.00  0.00    +0.025 HD
ATOM    132  H   UNL     1      -2.090  16.558  17.922  0.00  0.00    +0.025 HD
ENDBRANCH 127 129
BRANCH 127 133
ATOM    133  N   UNL     1      -0.951  14.748  19.307  0.00  0.00    -0.296 NA
BRANCH 133 134
ATOM    134  C   UNL     1      -0.632  15.021  17.904  0.00  0.00    -0.012 C 
ATOM    135  H   UNL     1      -1.286  14.444  17.240  0.00  0.00    +0.039 HD
ATOM    136  H   UNL     1       0.407  14.771  17.663  0.00  0.00    +0.039 HD
ATOM    137  H   UNL     1      -0.809  16.072  17.654  0.00  0.00    +0.039 HD
ENDBRANCH 133 134
BRANCH 133 138
ATOM    138  C   UNL     1       0.138  15.249  20.155  0.00  0.00    -0.012 C 
ATOM    139  H   UNL     1       0.624  14.422  20.685  0.00  0.00    +0.039 HD
ATOM    140  H   UNL     1       0.900  15.779  19.573  0.00  0.00    +0.039 HD
ATOM    141  H   UNL     1      -0.233  15.924  20.932  0.00  0.00    +0.039 HD
ENDBRANCH 133 138
ENDBRANCH 127 133
ENDBRANCH 125 127
ENDBRANCH 124 125
ENDBRANCH  89 124
ENDBRANCH  86  89
ENDBRANCH  83  86
ENDBRANCH  77  83
ENDBRANCH  75  77
BRANCH  75 142
ATOM    142  O   UNL     1      -6.199   8.431  19.384  0.00  0.00    -0.391 OA
ATOM    143  H   UNL     1      -6.460   7.877  20.139  0.00  0.00    +0.210 HD
ENDBRANCH  75 142
ENDBRANCH  69  75
ENDBRANCH  14  69
BRANCH  25 144
ATOM    144  O   UNL     1      -8.875  10.757  27.261  0.00  0.00    -0.391 OA
ATOM    145  H   UNL     1      -9.157  11.327  27.994  0.00  0.00    +0.210 HD
ENDBRANCH  25 144
BRANCH  23 146
ATOM    146  O   UNL     1     -10.023   8.426  25.957  0.00  0.00    -0.460 OA
BRANCH 146 147
ATOM    147  C   UNL     1      -9.159   7.827  26.815  0.00  0.00    +0.327 C 
ATOM    148  O   UNL     1      -7.941   7.779  26.664  0.00  0.00    -0.249 OA
BRANCH 147 149
ATOM    149  C   UNL     1      -9.882   7.274  28.052  0.00  0.00    +0.131 C 
ATOM    150  H   UNL     1     -10.797   7.877  28.146  0.00  0.00    +0.060 HD
BRANCH 149 151
ATOM    151  C   UNL     1      -9.026   7.596  29.304  0.00  0.00    +0.073 C 
ATOM    152  H   UNL     1      -9.422   7.065  30.180  0.00  0.00    +0.058 HD
ATOM    153  H   UNL     1      -7.999   7.249  29.134  0.00  0.00    +0.058 HD
BRANCH 151 154
ATOM    154  O   UNL     1      -8.976   9.001  29.590  0.00  0.00    -0.381 OA
BRANCH 154 155
ATOM    155  C   UNL     1      -8.584   9.238  30.936  0.00  0.00    +0.037 C 
ATOM    156  H   UNL     1      -7.605   9.724  30.967  0.00  0.00    +0.052 HD
ATOM    157  H   UNL     1      -9.330   9.852  31.449  0.00  0.00    +0.052 HD
ATOM    158  H   UNL     1      -8.511   8.274  31.446  0.00  0.00    +0.052 HD
ENDBRANCH 154 155
ENDBRANCH 151 154
ENDBRANCH 149 151
BRANCH 149 159
ATOM    159  N   UNL     1     -10.264   5.839  27.857  0.00  0.00    -0.294 NA
BRANCH 159 160
ATOM    160  C   UNL     1     -11.646   5.589  28.279  0.00  0.00    -0.012 C 
ATOM    161  H   UNL     1     -12.193   4.975  27.554  0.00  0.00    +0.039 HD
ATOM    162  H   UNL     1     -12.190   6.534  28.402  0.00  0.00    +0.039 HD
ATOM    163  H   UNL     1     -11.685   5.096  29.255  0.00  0.00    +0.039 HD
ENDBRANCH 159 160
BRANCH 159 164
ATOM    164  C   UNL     1      -9.364   4.930  28.569  0.00  0.00    -0.012 C 
ATOM    165  H   UNL     1      -8.324   5.094  28.257  0.00  0.00    +0.039 HD
ATOM    166  H   UNL     1      -9.379   5.110  29.649  0.00  0.00    +0.039 HD
ATOM    167  H   UNL     1      -9.612   3.878  28.387  0.00  0.00    +0.039 HD
ENDBRANCH 159 164
ENDBRANCH 149 159
ENDBRANCH 147 149
ENDBRANCH 146 147
ENDBRANCH  23 146
BRANCH   4 168
ATOM    168  O   UNL     1      -8.308  14.641  22.792  0.00  0.00    -0.376 OA
BRANCH 168 169
ATOM    169  C   UNL     1      -7.006  14.066  22.839  0.00  0.00    +0.037 C 
ATOM    170  H   UNL     1      -7.000  13.312  23.628  0.00  0.00    +0.052 HD
ATOM    171  H   UNL     1      -6.257  14.822  23.089  0.00  0.00    +0.052 HD
ATOM    172  H   UNL     1      -6.757  13.581  21.894  0.00  0.00    +0.052 HD
ENDBRANCH 168 169
ENDBRANCH   4 168
BRANCH  10 173
ATOM    173  O   UNL     1     -13.497  11.980  19.772  0.00  0.00    -0.376 OA
BRANCH 173 174
ATOM    174  C   UNL     1     -14.505  11.378  18.974  0.00  0.00    +0.037 C 
ATOM    175  H   UNL     1     -15.389  11.155  19.576  0.00  0.00    +0.052 HD
ATOM    176  H   UNL     1     -14.114  10.437  18.576  0.00  0.00    +0.052 HD
ATOM    177  H   UNL     1     -14.767  12.025  18.132  0.00  0.00    +0.052 HD
ENDBRANCH 173 174
ENDBRANCH  10 173
TORSDOF 45
ENDMDL
MODEL 2
REMARK VINA RESULT:      -4.9      2.086      4.728
REMARK  Name = Aplyronine A_conf3
REMARK  45 active torsions:
REMARK  status: ('A' for Active; 'I' for Inactive)
REMARK    1  A    between atoms: C_1  and  C_2
REMARK    2  A    between atoms: C_5  and  O_75
REMARK    3  A    between atoms: C_6  and  C_74
REMARK    4  A    between atoms: C_9  and  C_73
REMARK    5  A    between atoms: C_11  and  O_71
REMARK    6  A    between atoms: C_15  and  C_39
REMARK    7  A    between atoms: C_24  and  O_29
REMARK    8  A    between atoms: C_25  and  C_28
REMARK    9  A    between atoms: C_26  and  O_27
REMARK   10  A    between atoms: O_29  and  C_30
REMARK   11  A    between atoms: C_30  and  C_32
REMARK   12  A    between atoms: C_32  and  C_33
REMARK   13  A    between atoms: C_32  and  N_36
REMARK   14  A    between atoms: C_33  and  O_34
REMARK   15  A    between atoms: O_34  and  C_35
REMARK   16  A    between atoms: N_36  and  C_37
REMARK   17  A    between atoms: N_36  and  C_38
REMARK   18  A    between atoms: C_39  and  C_40
REMARK   19  A    between atoms: C_39  and  C_41
REMARK   20  A    between atoms: C_41  and  C_42
REMARK   21  A    between atoms: C_41  and  O_70
REMARK   22  A    between atoms: C_42  and  C_43
REMARK   23  A    between atoms: C_42  and  C_44
REMARK   24  A    between atoms: C_44  and  C_45
REMARK   25  A    between atoms: C_45  and  C_46
REMARK   26  A    between atoms: C_46  and  C_47
REMARK   27  A    between atoms: C_46  and  O_62
REMARK   28  A    between atoms: C_47  and  C_48
REMARK   29  A    between atoms: C_47  and  C_49
REMARK   30  A    between atoms: C_49  and  C_50
REMARK   31  A    between atoms: C_49  and  O_58
REMARK   32  A    between atoms: C_50  and  C_51
REMARK   33  A    between atoms: C_50  and  C_52
REMARK   34  A    between atoms: C_53  and  N_54
REMARK   35  A    between atoms: N_54  and  C_55
REMARK   36  A    between atoms: O_58  and  C_59
REMARK   37  A    between atoms: C_59  and  C_61
REMARK   38  A    between atoms: O_62  and  C_63
REMARK   39  A    between atoms: C_63  and  C_65
REMARK   40  A    between atoms: C_65  and  C_66
REMARK   41  A    between atoms: C_65  and  N_67
REMARK   42  A    between atoms: N_67  and  C_68
REMARK   43  A    between atoms: N_67  and  C_69
REMARK   44  A    between atoms: O_71  and  C_72
REMARK   45  A    between atoms: O_75  and  C_76
REMARK                            x       y       z     vdW  Elec       q    Type
REMARK                         _______ _______ _______ _____ _____    ______ ____
ROOT
ATOM      1  C   UNL     1      -9.380  11.761  27.719  0.00  0.00    -0.017 C 
ATOM      2  C   UNL     1     -10.264  12.464  26.664  0.00  0.00    -0.045 C 
ATOM      3  C   UNL     1      -9.773  12.310  25.213  0.00  0.00    -0.022 C 
ATOM      4  C   UNL     1      -9.538  13.637  24.447  0.00  0.00    +0.079 C 
ATOM      5  C   UNL     1     -10.794  14.352  23.938  0.00  0.00    -0.048 C 
ATOM      6  C   UNL     1     -10.870  14.712  22.637  0.00  0.00    -0.082 C 
ATOM      7  C   UNL     1     -11.961  15.475  21.939  0.00  0.00    -0.032 C 
ATOM      8  C   UNL     1     -13.068  14.611  21.299  0.00  0.00    -0.038 C 
ATOM      9  C   UNL     1     -12.530  13.598  20.255  0.00  0.00    -0.020 C 
ATOM     10  C   UNL     1     -12.085  12.261  20.871  0.00  0.00    +0.077 C 
ATOM     11  C   UNL     1     -11.523  11.349  19.814  0.00  0.00    -0.059 C 
ATOM     12  C   UNL     1     -10.214  11.169  19.568  0.00  0.00    -0.082 C 
ATOM     13  C   UNL     1      -9.708  10.132  18.597  0.00  0.00    +0.003 C 
ATOM     14  C   UNL     1      -8.572   9.232  19.141  0.00  0.00    +0.112 C 
ATOM     15  O   UNL     1      -8.819   8.915  20.535  0.00  0.00    -0.458 OA
ATOM     16  C   UNL     1      -9.833   8.083  20.857  0.00  0.00    +0.332 C 
ATOM     17  O   UNL     1     -10.581   7.493  20.099  0.00  0.00    -0.246 OA
ATOM     18  C   UNL     1      -9.862   8.053  22.330  0.00  0.00    +0.022 C 
ATOM     19  C   UNL     1     -10.906   7.599  23.036  0.00  0.00    -0.055 C 
ATOM     20  C   UNL     1     -10.856   7.650  24.475  0.00  0.00    -0.065 C 
ATOM     21  C   UNL     1     -11.767   7.141  25.317  0.00  0.00    -0.081 C 
ATOM     22  C   UNL     1     -11.656   7.095  26.830  0.00  0.00    +0.003 C 
ATOM     23  C   UNL     1     -10.515   7.878  27.544  0.00  0.00    +0.111 C 
ATOM     24  C   UNL     1     -10.721   9.433  27.513  0.00  0.00    +0.020 C 
ATOM     25  C   UNL     1      -9.375  10.204  27.663  0.00  0.00    +0.064 C 
ATOM     26  H   UNL     1      -8.342  12.067  27.518  0.00  0.00    +0.032 HD
ATOM     27  H   UNL     1     -10.319  13.525  26.927  0.00  0.00    +0.027 HD
ATOM     28  H   UNL     1     -11.293  12.097  26.732  0.00  0.00    +0.027 HD
ATOM     29  H   UNL     1      -8.817  11.773  25.220  0.00  0.00    +0.029 HD
ATOM     30  H   UNL     1     -10.473  11.678  24.652  0.00  0.00    +0.029 HD
ATOM     31  H   UNL     1      -8.912  13.364  23.586  0.00  0.00    +0.064 HD
ATOM     32  H   UNL     1     -10.031  14.466  21.982  0.00  0.00    +0.057 HD
ATOM     33  H   UNL     1     -11.486  16.091  21.164  0.00  0.00    +0.031 HD
ATOM     34  H   UNL     1     -12.414  16.200  22.627  0.00  0.00    +0.031 HD
ATOM     35  H   UNL     1     -13.597  14.071  22.095  0.00  0.00    +0.030 HD
ATOM     36  H   UNL     1     -11.708  14.053  19.688  0.00  0.00    +0.030 HD
ATOM     37  H   UNL     1     -13.331  13.383  19.534  0.00  0.00    +0.030 HD
ATOM     38  H   UNL     1     -11.340  12.418  21.655  0.00  0.00    +0.064 HD
ATOM     39  H   UNL     1     -12.259  10.765  19.263  0.00  0.00    +0.059 HD
ATOM     40  H   UNL     1      -9.468  11.751  20.105  0.00  0.00    +0.057 HD
ATOM     41  H   UNL     1      -9.429  10.608  17.653  0.00  0.00    +0.034 HD
ATOM     42  H   UNL     1     -10.547   9.469  18.339  0.00  0.00    +0.034 HD
ATOM     43  H   UNL     1      -8.578   8.295  18.568  0.00  0.00    +0.074 HD
ATOM     44  H   UNL     1      -8.978   8.446  22.824  0.00  0.00    +0.069 HD
ATOM     45  H   UNL     1     -11.785   7.194  22.543  0.00  0.00    +0.062 HD
ATOM     46  H   UNL     1      -9.957   8.115  24.869  0.00  0.00    +0.061 HD
ATOM     47  H   UNL     1     -12.651   6.657  24.908  0.00  0.00    +0.057 HD
ATOM     48  H   UNL     1     -12.622   7.402  27.245  0.00  0.00    +0.034 HD
ATOM     49  H   UNL     1     -11.544   6.034  27.086  0.00  0.00    +0.034 HD
ATOM     50  H   UNL     1     -10.491   7.570  28.599  0.00  0.00    +0.074 HD
ATOM     51  H   UNL     1     -11.134   9.709  26.535  0.00  0.00    +0.036 HD
ATOM     52  H   UNL     1      -8.780   9.951  26.777  0.00  0.00    +0.060 HD
ENDROOT
BRANCH   1  53
ATOM     53  C   UNL     1      -9.668  12.346  29.113  0.00  0.00    -0.060 C 
ATOM     54  H   UNL     1      -9.298  11.666  29.890  0.00  0.00    +0.023 HD
ATOM     55  H   UNL     1     -10.741  12.458  29.288  0.00  0.00    +0.023 HD
ATOM     56  H   UNL     1      -9.188  13.311  29.274  0.00  0.00    +0.023 HD
ENDBRANCH   1  53
BRANCH   5  57
ATOM     57  C   UNL     1     -11.875  14.658  24.938  0.00  0.00    -0.041 C 
ATOM     58  H   UNL     1     -11.478  15.264  25.757  0.00  0.00    +0.028 HD
ATOM     59  H   UNL     1     -12.698  15.199  24.458  0.00  0.00    +0.028 HD
ATOM     60  H   UNL     1     -12.307  13.766  25.397  0.00  0.00    +0.028 HD
ENDBRANCH   5  57
BRANCH  24  61
ATOM     61  C   UNL     1     -11.766   9.813  28.572  0.00  0.00    -0.057 C 
ATOM     62  H   UNL     1     -12.514   9.026  28.705  0.00  0.00    +0.023 HD
ATOM     63  H   UNL     1     -11.301   9.992  29.544  0.00  0.00    +0.023 HD
ATOM     64  H   UNL     1     -12.320  10.708  28.280  0.00  0.00    +0.023 HD
ENDBRANCH  24  61
BRANCH   8  65
ATOM     65  C   UNL     1     -14.088  15.539  20.627  0.00  0.00    -0.062 C 
ATOM     66  H   UNL     1     -15.108  15.158  20.741  0.00  0.00    +0.023 HD
ATOM     67  H   UNL     1     -13.879  15.640  19.556  0.00  0.00    +0.023 HD
ATOM     68  H   UNL     1     -14.048  16.542  21.066  0.00  0.00    +0.023 HD
ENDBRANCH   8  65
BRANCH  14  69
ATOM     69  C   UNL     1      -7.112   9.801  19.097  0.00  0.00    +0.020 C 
ATOM     70  H   UNL     1      -7.045  10.609  19.839  0.00  0.00    +0.036 HD
BRANCH  69  71
ATOM     71  C   UNL     1      -6.165   8.674  19.565  0.00  0.00    -0.057 C 
ATOM     72  H   UNL     1      -6.476   7.695  19.192  0.00  0.00    +0.023 HD
ATOM     73  H   UNL     1      -6.119   8.630  20.659  0.00  0.00    +0.023 HD
ATOM     74  H   UNL     1      -5.143   8.819  19.197  0.00  0.00    +0.023 HD
ENDBRANCH  69  71
BRANCH  69  75
ATOM     75  C   UNL     1      -6.730  10.364  17.701  0.00  0.00    +0.064 C 
ATOM     76  H   UNL     1      -7.174   9.707  16.942  0.00  0.00    +0.060 HD
BRANCH  75  77
ATOM     77  C   UNL     1      -5.215  10.496  17.394  0.00  0.00    -0.017 C 
ATOM     78  H   UNL     1      -4.679   9.867  18.115  0.00  0.00    +0.032 HD
BRANCH  77  79
ATOM     79  C   UNL     1      -4.871   9.877  16.026  0.00  0.00    -0.060 C 
ATOM     80  H   UNL     1      -3.853   9.486  15.978  0.00  0.00    +0.023 HD
ATOM     81  H   UNL     1      -4.966  10.631  15.235  0.00  0.00    +0.023 HD
ATOM     82  H   UNL     1      -5.561   9.061  15.786  0.00  0.00    +0.023 HD
ENDBRANCH  77  79
BRANCH  77  83
ATOM     83  C   UNL     1      -4.618  11.920  17.537  0.00  0.00    -0.045 C 
ATOM     84  H   UNL     1      -5.281  12.592  16.975  0.00  0.00    +0.027 HD
ATOM     85  H   UNL     1      -3.648  11.964  17.030  0.00  0.00    +0.027 HD
BRANCH  83  86
ATOM     86  C   UNL     1      -4.444  12.462  18.960  0.00  0.00    -0.015 C 
ATOM     87  H   UNL     1      -3.590  11.977  19.443  0.00  0.00    +0.030 HD
ATOM     88  H   UNL     1      -5.299  12.179  19.580  0.00  0.00    +0.030 HD
BRANCH  86  89
ATOM     89  C   UNL     1      -4.306  14.000  19.015  0.00  0.00    +0.109 C 
ATOM     90  H   UNL     1      -3.990  14.364  18.027  0.00  0.00    +0.074 HD
BRANCH  89  91
ATOM     91  C   UNL     1      -3.308  14.596  20.056  0.00  0.00    +0.031 C 
ATOM     92  H   UNL     1      -2.559  13.803  20.192  0.00  0.00    +0.037 HD
BRANCH  91  93
ATOM     93  C   UNL     1      -3.997  14.798  21.409  0.00  0.00    -0.056 C 
ATOM     94  H   UNL     1      -5.067  15.005  21.289  0.00  0.00    +0.023 HD
ATOM     95  H   UNL     1      -3.553  15.623  21.974  0.00  0.00    +0.023 HD
ATOM     96  H   UNL     1      -3.934  13.893  22.018  0.00  0.00    +0.023 HD
ENDBRANCH  91  93
BRANCH  91  97
ATOM     97  C   UNL     1      -2.546  15.873  19.582  0.00  0.00    +0.115 C 
ATOM     98  H   UNL     1      -2.369  16.503  20.465  0.00  0.00    +0.074 HD
BRANCH  97  99
ATOM     99  C   UNL     1      -1.185  15.651  18.842  0.00  0.00    +0.013 C 
ATOM    100  H   UNL     1      -0.835  16.643  18.522  0.00  0.00    +0.038 HD
BRANCH  99 101
ATOM    101  C   UNL     1      -1.318  14.859  17.536  0.00  0.00    -0.056 C 
ATOM    102  H   UNL     1      -1.245  15.528  16.671  0.00  0.00    +0.024 HD
ATOM    103  H   UNL     1      -2.288  14.355  17.481  0.00  0.00    +0.024 HD
ATOM    104  H   UNL     1      -0.531  14.106  17.429  0.00  0.00    +0.024 HD
ENDBRANCH  99 101
BRANCH  99 105
ATOM    105  C   UNL     1      -0.097  15.060  19.718  0.00  0.00    -0.064 C 
ATOM    106  C   UNL     1       0.981  14.451  19.203  0.00  0.00    -0.005 C 
ATOM    107  H   UNL     1      -0.254  15.118  20.788  0.00  0.00    +0.059 HD
ATOM    108  H   UNL     1       1.080  14.402  18.119  0.00  0.00    +0.078 HD
BRANCH 106 109
ATOM    109  N   UNL     1       2.032  13.865  19.893  0.00  0.00    -0.284 N 
ATOM    110  C   UNL     1       3.038  13.098  19.322  0.00  0.00    +0.206 C 
ATOM    111  O   UNL     1       3.961  12.552  19.918  0.00  0.00    -0.279 OA
ATOM    112  H   UNL     1       2.950  12.991  18.234  0.00  0.00    +0.126 HD
BRANCH 109 113
ATOM    113  C   UNL     1       2.056  14.051  21.341  0.00  0.00    +0.007 C 
ATOM    114  H   UNL     1       3.036  13.817  21.769  0.00  0.00    +0.043 HD
ATOM    115  H   UNL     1       1.814  15.094  21.576  0.00  0.00    +0.043 HD
ATOM    116  H   UNL     1       1.313  13.389  21.794  0.00  0.00    +0.043 HD
ENDBRANCH 109 113
ENDBRANCH 106 109
ENDBRANCH  99 105
ENDBRANCH  97  99
BRANCH  97 117
ATOM    117  O   UNL     1      -3.413  16.596  18.668  0.00  0.00    -0.461 OA
BRANCH 117 118
ATOM    118  C   UNL     1      -3.628  17.912  18.934  0.00  0.00    +0.304 C 
ATOM    119  O   UNL     1      -2.867  18.650  19.545  0.00  0.00    -0.251 OA
BRANCH 118 120
ATOM    120  C   UNL     1      -4.942  18.339  18.358  0.00  0.00    +0.033 C 
ATOM    121  H   UNL     1      -4.776  19.141  17.633  0.00  0.00    +0.034 HD
ATOM    122  H   UNL     1      -5.412  17.498  17.842  0.00  0.00    +0.034 HD
ATOM    123  H   UNL     1      -5.590  18.714  19.155  0.00  0.00    +0.034 HD
ENDBRANCH 118 120
ENDBRANCH 117 118
ENDBRANCH  97 117
ENDBRANCH  91  97
ENDBRANCH  89  91
BRANCH  89 124
ATOM    124  O   UNL     1      -5.615  14.568  19.280  0.00  0.00    -0.460 OA
BRANCH 124 125
ATOM    125  C   UNL     1      -6.289  15.053  18.195  0.00  0.00    +0.324 C 
ATOM    126  O   UNL     1      -5.878  15.004  17.041  0.00  0.00    -0.249 OA
BRANCH 125 127
ATOM    127  C   UNL     1      -7.640  15.643  18.640  0.00  0.00    +0.105 C 
ATOM    128  H   UNL     1      -7.451  16.437  19.374  0.00  0.00    +0.058 HD
BRANCH 127 129
ATOM    129  C   UNL     1      -8.386  14.499  19.335  0.00  0.00    -0.039 C 
ATOM    130  H   UNL     1      -9.471  14.651  19.297  0.00  0.00    +0.025 HD
ATOM    131  H   UNL     1      -8.088  14.402  20.384  0.00  0.00    +0.025 HD
ATOM    132  H   UNL     1      -8.177  13.541  18.845  0.00  0.00    +0.025 HD
ENDBRANCH 127 129
BRANCH 127 133
ATOM    133  N   UNL     1      -8.377  16.214  17.475  0.00  0.00    -0.296 NA
BRANCH 133 134
ATOM    134  C   UNL     1      -9.592  15.459  17.161  0.00  0.00    -0.012 C 
ATOM    135  H   UNL     1      -9.680  15.302  16.080  0.00  0.00    +0.039 HD
ATOM    136  H   UNL     1     -10.495  15.972  17.508  0.00  0.00    +0.039 HD
ATOM    137  H   UNL     1      -9.563  14.459  17.604  0.00  0.00    +0.039 HD
ENDBRANCH 133 134
BRANCH 133 138
ATOM    138  C   UNL     1      -8.732  17.620  17.711  0.00  0.00    -0.012 C 
ATOM    139  H   UNL     1      -9.587  17.691  18.392  0.00  0.00    +0.039 HD
ATOM    140  H   UNL     1      -7.899  18.184  18.145  0.00  0.00    +0.039 HD
ATOM    141  H   UNL     1      -9.042  18.119  16.788  0.00  0.00    +0.039 HD
ENDBRANCH 133 138
ENDBRANCH 127 133
ENDBRANCH 125 127
ENDBRANCH 124 125
ENDBRANCH  89 124
ENDBRANCH  86  89
ENDBRANCH  83  86
ENDBRANCH  77  83
ENDBRANCH  75  77
BRANCH  75 142
ATOM    142  O   UNL     1      -7.353  11.644  17.567  0.00  0.00    -0.391 OA
ATOM    143  H   UNL     1      -7.112  12.008  16.700  0.00  0.00    +0.210 HD
ENDBRANCH  75 142
ENDBRANCH  69  75
ENDBRANCH  14  69
BRANCH  25 144
ATOM    144  O   UNL     1      -8.630   9.692  28.773  0.00  0.00    -0.391 OA
ATOM    145  H   UNL     1      -8.216  10.439  29.235  0.00  0.00    +0.210 HD
ENDBRANCH  25 144
BRANCH  23 146
ATOM    146  O   UNL     1      -9.259   7.535  26.929  0.00  0.00    -0.460 OA
BRANCH 146 147
ATOM    147  C   UNL     1      -8.553   6.495  27.440  0.00  0.00    +0.327 C 
ATOM    148  O   UNL     1      -7.519   6.043  26.955  0.00  0.00    -0.249 OA
BRANCH 147 149
ATOM    149  C   UNL     1      -9.162   5.991  28.757  0.00  0.00    +0.131 C 
ATOM    150  H   UNL     1     -10.109   6.540  28.867  0.00  0.00    +0.060 HD
BRANCH 149 151
ATOM    151  C   UNL     1      -8.257   6.459  29.925  0.00  0.00    +0.073 C 
ATOM    152  H   UNL     1      -8.175   5.667  30.681  0.00  0.00    +0.058 HD
ATOM    153  H   UNL     1      -7.250   6.663  29.539  0.00  0.00    +0.058 HD
BRANCH 151 154
ATOM    154  O   UNL     1      -8.741   7.657  30.551  0.00  0.00    -0.381 OA
BRANCH 154 155
ATOM    155  C   UNL     1      -9.970   7.423  31.227  0.00  0.00    +0.037 C 
ATOM    156  H   UNL     1     -10.198   8.254  31.900  0.00  0.00    +0.052 HD
ATOM    157  H   UNL     1     -10.782   7.283  30.507  0.00  0.00    +0.052 HD
ATOM    158  H   UNL     1      -9.867   6.511  31.821  0.00  0.00    +0.052 HD
ENDBRANCH 154 155
ENDBRANCH 151 154
ENDBRANCH 149 151
BRANCH 149 159
ATOM    159  N   UNL     1      -9.456   4.524  28.688  0.00  0.00    -0.294 NA
BRANCH 159 160
ATOM    160  C   UNL     1      -9.922   4.132  27.354  0.00  0.00    -0.012 C 
ATOM    161  H   UNL     1     -10.665   3.326  27.398  0.00  0.00    +0.039 HD
ATOM    162  H   UNL     1      -9.084   3.789  26.737  0.00  0.00    +0.039 HD
ATOM    163  H   UNL     1     -10.358   4.980  26.817  0.00  0.00    +0.039 HD
ENDBRANCH 159 160
BRANCH 159 164
ATOM    164  C   UNL     1     -10.441   4.114  29.691  0.00  0.00    -0.012 C 
ATOM    165  H   UNL     1     -11.357   3.754  29.206  0.00  0.00    +0.039 HD
ATOM    166  H   UNL     1     -10.079   3.275  30.294  0.00  0.00    +0.039 HD
ATOM    167  H   UNL     1     -10.711   4.936  30.363  0.00  0.00    +0.039 HD
ENDBRANCH 159 164
ENDBRANCH 149 159
ENDBRANCH 147 149
ENDBRANCH 146 147
ENDBRANCH  23 146
BRANCH   4 168
ATOM    168  O   UNL     1      -8.765  14.510  25.288  0.00  0.00    -0.376 OA
BRANCH 168 169
ATOM    169  C   UNL     1      -7.485  14.823  24.749  0.00  0.00    +0.037 C 
ATOM    170  H   UNL     1      -6.728  14.401  25.413  0.00  0.00    +0.052 HD
ATOM    171  H   UNL     1      -7.335  15.904  24.709  0.00  0.00    +0.052 HD
ATOM    172  H   UNL     1      -7.359  14.384  23.757  0.00  0.00    +0.052 HD
ENDBRANCH 168 169
ENDBRANCH   4 168
BRANCH  10 173
ATOM    173  O   UNL     1     -13.250  11.645  21.440  0.00  0.00    -0.376 OA
BRANCH 173 174
ATOM    174  C   UNL     1     -13.021  11.100  22.731  0.00  0.00    +0.037 C 
ATOM    175  H   UNL     1     -13.068  11.883  23.491  0.00  0.00    +0.052 HD
ATOM    176  H   UNL     1     -12.017  10.665  22.748  0.00  0.00    +0.052 HD
ATOM    177  H   UNL     1     -13.743  10.308  22.948  0.00  0.00    +0.052 HD
ENDBRANCH 173 174
ENDBRANCH  10 173
TORSDOF 45
ENDMDL
MODEL 3
REMARK VINA RESULT:      -4.8      4.379      7.293
REMARK  Name = Aplyronine A_conf3
REMARK  45 active torsions:
REMARK  status: ('A' for Active; 'I' for Inactive)
REMARK    1  A    between atoms: C_1  and  C_2
REMARK    2  A    between atoms: C_5  and  O_75
REMARK    3  A    between atoms: C_6  and  C_74
REMARK    4  A    between atoms: C_9  and  C_73
REMARK    5  A    between atoms: C_11  and  O_71
REMARK    6  A    between atoms: C_15  and  C_39
REMARK    7  A    between atoms: C_24  and  O_29
REMARK    8  A    between atoms: C_25  and  C_28
REMARK    9  A    between atoms: C_26  and  O_27
REMARK   10  A    between atoms: O_29  and  C_30
REMARK   11  A    between atoms: C_30  and  C_32
REMARK   12  A    between atoms: C_32  and  C_33
REMARK   13  A    between atoms: C_32  and  N_36
REMARK   14  A    between atoms: C_33  and  O_34
REMARK   15  A    between atoms: O_34  and  C_35
REMARK   16  A    between atoms: N_36  and  C_37
REMARK   17  A    between atoms: N_36  and  C_38
REMARK   18  A    between atoms: C_39  and  C_40
REMARK   19  A    between atoms: C_39  and  C_41
REMARK   20  A    between atoms: C_41  and  C_42
REMARK   21  A    between atoms: C_41  and  O_70
REMARK   22  A    between atoms: C_42  and  C_43
REMARK   23  A    between atoms: C_42  and  C_44
REMARK   24  A    between atoms: C_44  and  C_45
REMARK   25  A    between atoms: C_45  and  C_46
REMARK   26  A    between atoms: C_46  and  C_47
REMARK   27  A    between atoms: C_46  and  O_62
REMARK   28  A    between atoms: C_47  and  C_48
REMARK   29  A    between atoms: C_47  and  C_49
REMARK   30  A    between atoms: C_49  and  C_50
REMARK   31  A    between atoms: C_49  and  O_58
REMARK   32  A    between atoms: C_50  and  C_51
REMARK   33  A    between atoms: C_50  and  C_52
REMARK   34  A    between atoms: C_53  and  N_54
REMARK   35  A    between atoms: N_54  and  C_55
REMARK   36  A    between atoms: O_58  and  C_59
REMARK   37  A    between atoms: C_59  and  C_61
REMARK   38  A    between atoms: O_62  and  C_63
REMARK   39  A    between atoms: C_63  and  C_65
REMARK   40  A    between atoms: C_65  and  C_66
REMARK   41  A    between atoms: C_65  and  N_67
REMARK   42  A    between atoms: N_67  and  C_68
REMARK   43  A    between atoms: N_67  and  C_69
REMARK   44  A    between atoms: O_71  and  C_72
REMARK   45  A    between atoms: O_75  and  C_76
REMARK                            x       y       z     vdW  Elec       q    Type
REMARK                         _______ _______ _______ _____ _____    ______ ____
ROOT
ATOM      1  C   UNL     1     -10.198   2.964  25.238  0.00  0.00    -0.017 C 
ATOM      2  C   UNL     1     -10.836   4.368  25.340  0.00  0.00    -0.045 C 
ATOM      3  C   UNL     1     -10.230   5.415  24.387  0.00  0.00    -0.022 C 
ATOM      4  C   UNL     1      -9.695   6.701  25.068  0.00  0.00    +0.079 C 
ATOM      5  C   UNL     1     -10.751   7.721  25.505  0.00  0.00    -0.048 C 
ATOM      6  C   UNL     1     -10.629   9.010  25.115  0.00  0.00    -0.082 C 
ATOM      7  C   UNL     1     -11.497  10.183  25.477  0.00  0.00    -0.032 C 
ATOM      8  C   UNL     1     -12.662  10.469  24.507  0.00  0.00    -0.038 C 
ATOM      9  C   UNL     1     -12.199  10.723  23.049  0.00  0.00    -0.020 C 
ATOM     10  C   UNL     1     -12.054   9.437  22.219  0.00  0.00    +0.077 C 
ATOM     11  C   UNL     1     -11.549   9.750  20.836  0.00  0.00    -0.059 C 
ATOM     12  C   UNL     1     -10.271   9.629  20.437  0.00  0.00    -0.082 C 
ATOM     13  C   UNL     1      -9.851   9.815  19.000  0.00  0.00    +0.003 C 
ATOM     14  C   UNL     1      -8.947   8.691  18.437  0.00  0.00    +0.112 C 
ATOM     15  O   UNL     1      -9.388   7.405  18.942  0.00  0.00    -0.458 OA
ATOM     16  C   UNL     1     -10.557   6.885  18.507  0.00  0.00    +0.332 C 
ATOM     17  O   UNL     1     -11.311   7.348  17.671  0.00  0.00    -0.246 OA
ATOM     18  C   UNL     1     -10.743   5.643  19.275  0.00  0.00    +0.022 C 
ATOM     19  C   UNL     1     -11.916   5.003  19.366  0.00  0.00    -0.055 C 
ATOM     20  C   UNL     1     -12.008   3.816  20.178  0.00  0.00    -0.065 C 
ATOM     21  C   UNL     1     -13.075   3.010  20.284  0.00  0.00    -0.081 C 
ATOM     22  C   UNL     1     -13.130   1.700  21.049  0.00  0.00    +0.003 C 
ATOM     23  C   UNL     1     -11.953   1.304  21.988  0.00  0.00    +0.111 C 
ATOM     24  C   UNL     1     -11.887   2.171  23.294  0.00  0.00    +0.020 C 
ATOM     25  C   UNL     1     -10.452   2.204  23.902  0.00  0.00    +0.064 C 
ATOM     26  H   UNL     1      -9.108   3.105  25.294  0.00  0.00    +0.032 HD
ATOM     27  H   UNL     1     -10.736   4.706  26.375  0.00  0.00    +0.027 HD
ATOM     28  H   UNL     1     -11.914   4.305  25.160  0.00  0.00    +0.027 HD
ATOM     29  H   UNL     1      -9.385   4.961  23.856  0.00  0.00    +0.029 HD
ATOM     30  H   UNL     1     -10.965   5.683  23.618  0.00  0.00    +0.029 HD
ATOM     31  H   UNL     1      -9.038   7.168  24.321  0.00  0.00    +0.064 HD
ATOM     32  H   UNL     1      -9.781   9.281  24.483  0.00  0.00    +0.057 HD
ATOM     33  H   UNL     1     -10.846  11.066  25.535  0.00  0.00    +0.031 HD
ATOM     34  H   UNL     1     -11.889  10.063  26.496  0.00  0.00    +0.031 HD
ATOM     35  H   UNL     1     -13.355   9.618  24.528  0.00  0.00    +0.030 HD
ATOM     36  H   UNL     1     -11.257  11.287  23.053  0.00  0.00    +0.030 HD
ATOM     37  H   UNL     1     -12.946  11.359  22.552  0.00  0.00    +0.030 HD
ATOM     38  H   UNL     1     -11.379   8.729  22.706  0.00  0.00    +0.064 HD
ATOM     39  H   UNL     1     -12.312  10.040  20.116  0.00  0.00    +0.059 HD
ATOM     40  H   UNL     1      -9.496   9.347  21.147  0.00  0.00    +0.057 HD
ATOM     41  H   UNL     1      -9.399  10.801  18.868  0.00  0.00    +0.034 HD
ATOM     42  H   UNL     1     -10.759   9.838  18.380  0.00  0.00    +0.034 HD
ATOM     43  H   UNL     1      -9.053   8.687  17.344  0.00  0.00    +0.074 HD
ATOM     44  H   UNL     1      -9.861   5.275  19.792  0.00  0.00    +0.069 HD
ATOM     45  H   UNL     1     -12.795   5.363  18.840  0.00  0.00    +0.062 HD
ATOM     46  H   UNL     1     -11.088   3.566  20.701  0.00  0.00    +0.061 HD
ATOM     47  H   UNL     1     -13.981   3.260  19.737  0.00  0.00    +0.057 HD
ATOM     48  H   UNL     1     -14.068   1.684  21.615  0.00  0.00    +0.034 HD
ATOM     49  H   UNL     1     -13.228   0.917  20.286  0.00  0.00    +0.034 HD
ATOM     50  H   UNL     1     -12.091   0.258  22.294  0.00  0.00    +0.074 HD
ATOM     51  H   UNL     1     -12.144   3.206  23.036  0.00  0.00    +0.036 HD
ATOM     52  H   UNL     1      -9.821   2.709  23.160  0.00  0.00    +0.060 HD
ENDROOT
BRANCH   1  53
ATOM     53  C   UNL     1     -10.525   2.151  26.502  0.00  0.00    -0.060 C 
ATOM     54  H   UNL     1     -11.375   2.600  27.030  0.00  0.00    +0.023 HD
ATOM     55  H   UNL     1      -9.690   2.151  27.208  0.00  0.00    +0.023 HD
ATOM     56  H   UNL     1     -10.792   1.117  26.284  0.00  0.00    +0.023 HD
ENDBRANCH   1  53
BRANCH   5  57
ATOM     57  C   UNL     1     -11.862   7.235  26.395  0.00  0.00    -0.041 C 
ATOM     58  H   UNL     1     -11.454   6.759  27.291  0.00  0.00    +0.028 HD
ATOM     59  H   UNL     1     -12.505   8.070  26.694  0.00  0.00    +0.028 HD
ATOM     60  H   UNL     1     -12.507   6.493  25.920  0.00  0.00    +0.028 HD
ENDBRANCH   5  57
BRANCH  24  61
ATOM     61  C   UNL     1     -12.956   1.668  24.274  0.00  0.00    -0.057 C 
ATOM     62  H   UNL     1     -13.921   2.157  24.110  0.00  0.00    +0.023 HD
ATOM     63  H   UNL     1     -13.113   0.591  24.173  0.00  0.00    +0.023 HD
ATOM     64  H   UNL     1     -12.681   1.884  25.308  0.00  0.00    +0.023 HD
ENDBRANCH  24  61
BRANCH   8  65
ATOM     65  C   UNL     1     -13.434  11.694  25.015  0.00  0.00    -0.062 C 
ATOM     66  H   UNL     1     -14.251  11.400  25.682  0.00  0.00    +0.023 HD
ATOM     67  H   UNL     1     -13.862  12.261  24.180  0.00  0.00    +0.023 HD
ATOM     68  H   UNL     1     -12.770  12.369  25.567  0.00  0.00    +0.023 HD
ENDBRANCH   8  65
BRANCH  14  69
ATOM     69  C   UNL     1      -7.415   8.762  18.761  0.00  0.00    +0.020 C 
ATOM     70  H   UNL     1      -7.215   9.738  19.225  0.00  0.00    +0.036 HD
BRANCH  69  71
ATOM     71  C   UNL     1      -7.120   7.683  19.825  0.00  0.00    -0.057 C 
ATOM     72  H   UNL     1      -6.973   8.115  20.819  0.00  0.00    +0.023 HD
ATOM     73  H   UNL     1      -6.224   7.109  19.562  0.00  0.00    +0.023 HD
ATOM     74  H   UNL     1      -7.948   6.974  19.931  0.00  0.00    +0.023 HD
ENDBRANCH  69  71
BRANCH  69  75
ATOM     75  C   UNL     1      -6.528   8.614  17.495  0.00  0.00    +0.064 C 
ATOM     76  H   UNL     1      -6.088   7.608  17.510  0.00  0.00    +0.060 HD
BRANCH  75  77
ATOM     77  C   UNL     1      -5.374   9.638  17.330  0.00  0.00    -0.017 C 
ATOM     78  H   UNL     1      -4.556   9.319  17.988  0.00  0.00    +0.032 HD
BRANCH  77  79
ATOM     79  C   UNL     1      -4.769   9.569  15.916  0.00  0.00    -0.060 C 
ATOM     80  H   UNL     1      -3.724   9.885  15.882  0.00  0.00    +0.023 HD
ATOM     81  H   UNL     1      -5.327  10.220  15.232  0.00  0.00    +0.023 HD
ATOM     82  H   UNL     1      -4.829   8.549  15.519  0.00  0.00    +0.023 HD
ENDBRANCH  77  79
BRANCH  77  83
ATOM     83  C   UNL     1      -5.705  11.099  17.732  0.00  0.00    -0.045 C 
ATOM     84  H   UNL     1      -6.800  11.171  17.768  0.00  0.00    +0.027 HD
ATOM     85  H   UNL     1      -5.386  11.780  16.935  0.00  0.00    +0.027 HD
BRANCH  83  86
ATOM     86  C   UNL     1      -5.126  11.605  19.059  0.00  0.00    -0.015 C 
ATOM     87  H   UNL     1      -4.050  11.405  19.097  0.00  0.00    +0.030 HD
ATOM     88  H   UNL     1      -5.535  11.029  19.893  0.00  0.00    +0.030 HD
BRANCH  86  89
ATOM     89  C   UNL     1      -5.418  13.098  19.323  0.00  0.00    +0.109 C 
ATOM     90  H   UNL     1      -5.916  13.524  18.440  0.00  0.00    +0.074 HD
BRANCH  89  91
ATOM     91  C   UNL     1      -4.203  14.023  19.645  0.00  0.00    +0.031 C 
ATOM     92  H   UNL     1      -3.342  13.491  19.218  0.00  0.00    +0.037 HD
BRANCH  91  93
ATOM     93  C   UNL     1      -3.973  14.102  21.159  0.00  0.00    -0.056 C 
ATOM     94  H   UNL     1      -4.918  14.055  21.712  0.00  0.00    +0.023 HD
ATOM     95  H   UNL     1      -3.458  15.024  21.444  0.00  0.00    +0.023 HD
ATOM     96  H   UNL     1      -3.379  13.255  21.508  0.00  0.00    +0.023 HD
ENDBRANCH  91  93
BRANCH  91  97
ATOM     97  C   UNL     1      -4.252  15.433  18.978  0.00  0.00    +0.115 C 
ATOM     98  H   UNL     1      -5.245  15.860  19.176  0.00  0.00    +0.074 HD
BRANCH  97  99
ATOM     99  C   UNL     1      -3.163  16.464  19.424  0.00  0.00    +0.013 C 
ATOM    100  H   UNL     1      -3.113  16.415  20.522  0.00  0.00    +0.038 HD
BRANCH  99 101
ATOM    101  C   UNL     1      -3.538  17.921  19.129  0.00  0.00    -0.056 C 
ATOM    102  H   UNL     1      -2.638  18.542  19.049  0.00  0.00    +0.024 HD
ATOM    103  H   UNL     1      -4.152  18.338  19.934  0.00  0.00    +0.024 HD
ATOM    104  H   UNL     1      -4.086  18.024  18.188  0.00  0.00    +0.024 HD
ENDBRANCH  99 101
BRANCH  99 105
ATOM    105  C   UNL     1      -1.772  16.155  18.904  0.00  0.00    -0.064 C 
ATOM    106  C   UNL     1      -0.820  15.624  19.685  0.00  0.00    -0.005 C 
ATOM    107  H   UNL     1      -1.572  16.422  17.873  0.00  0.00    +0.059 HD
ATOM    108  H   UNL     1      -1.068  15.394  20.721  0.00  0.00    +0.078 HD
BRANCH 106 109
ATOM    109  N   UNL     1       0.484  15.307  19.333  0.00  0.00    -0.284 N 
ATOM    110  C   UNL     1       1.623  15.909  19.849  0.00  0.00    +0.206 C 
ATOM    111  O   UNL     1       2.782  15.660  19.533  0.00  0.00    -0.279 OA
ATOM    112  H   UNL     1       1.415  16.682  20.599  0.00  0.00    +0.126 HD
BRANCH 109 113
ATOM    113  C   UNL     1       0.660  14.276  18.314  0.00  0.00    +0.007 C 
ATOM    114  H   UNL     1      -0.297  13.924  17.917  0.00  0.00    +0.043 HD
ATOM    115  H   UNL     1       1.252  14.683  17.486  0.00  0.00    +0.043 HD
ATOM    116  H   UNL     1       1.186  13.426  18.759  0.00  0.00    +0.043 HD
ENDBRANCH 109 113
ENDBRANCH 106 109
ENDBRANCH  99 105
ENDBRANCH  97  99
BRANCH  97 117
ATOM    117  O   UNL     1      -4.105  15.253  17.545  0.00  0.00    -0.461 OA
BRANCH 117 118
ATOM    118  C   UNL     1      -5.161  15.615  16.768  0.00  0.00    +0.304 C 
ATOM    119  O   UNL     1      -6.292  15.858  17.167  0.00  0.00    -0.251 OA
BRANCH 118 120
ATOM    120  C   UNL     1      -4.737  15.682  15.334  0.00  0.00    +0.033 C 
ATOM    121  H   UNL     1      -5.463  15.145  14.716  0.00  0.00    +0.034 HD
ATOM    122  H   UNL     1      -4.707  16.724  15.004  0.00  0.00    +0.034 HD
ATOM    123  H   UNL     1      -3.758  15.212  15.215  0.00  0.00    +0.034 HD
ENDBRANCH 118 120
ENDBRANCH 117 118
ENDBRANCH  97 117
ENDBRANCH  91  97
ENDBRANCH  89  91
BRANCH  89 124
ATOM    124  O   UNL     1      -6.353  13.193  20.428  0.00  0.00    -0.460 OA
BRANCH 124 125
ATOM    125  C   UNL     1      -7.510  13.877  20.178  0.00  0.00    +0.324 C 
ATOM    126  O   UNL     1      -8.156  13.795  19.139  0.00  0.00    -0.249 OA
BRANCH 125 127
ATOM    127  C   UNL     1      -7.884  14.736  21.400  0.00  0.00    +0.105 C 
ATOM    128  H   UNL     1      -8.973  14.875  21.411  0.00  0.00    +0.058 HD
BRANCH 127 129
ATOM    129  C   UNL     1      -7.218  16.098  21.172  0.00  0.00    -0.039 C 
ATOM    130  H   UNL     1      -6.188  15.983  20.819  0.00  0.00    +0.025 HD
ATOM    131  H   UNL     1      -7.205  16.698  22.088  0.00  0.00    +0.025 HD
ATOM    132  H   UNL     1      -7.759  16.675  20.412  0.00  0.00    +0.025 HD
ENDBRANCH 127 129
BRANCH 127 133
ATOM    133  N   UNL     1      -7.458  14.069  22.665  0.00  0.00    -0.296 NA
BRANCH 133 134
ATOM    134  C   UNL     1      -7.021  15.030  23.681  0.00  0.00    -0.012 C 
ATOM    135  H   UNL     1      -6.000  14.807  24.007  0.00  0.00    +0.039 HD
ATOM    136  H   UNL     1      -7.673  15.021  24.561  0.00  0.00    +0.039 HD
ATOM    137  H   UNL     1      -6.988  16.046  23.277  0.00  0.00    +0.039 HD
ENDBRANCH 133 134
BRANCH 133 138
ATOM    138  C   UNL     1      -8.540  13.243  23.217  0.00  0.00    -0.012 C 
ATOM    139  H   UNL     1      -9.514  13.706  23.024  0.00  0.00    +0.039 HD
ATOM    140  H   UNL     1      -8.547  12.236  22.785  0.00  0.00    +0.039 HD
ATOM    141  H   UNL     1      -8.464  13.151  24.305  0.00  0.00    +0.039 HD
ENDBRANCH 133 138
ENDBRANCH 127 133
ENDBRANCH 125 127
ENDBRANCH 124 125
ENDBRANCH  89 124
ENDBRANCH  86  89
ENDBRANCH  83  86
ENDBRANCH  77  83
ENDBRANCH  75  77
BRANCH  75 142
ATOM    142  O   UNL     1      -7.387   8.682  16.355  0.00  0.00    -0.391 OA
ATOM    143  H   UNL     1      -6.870   8.432  15.571  0.00  0.00    +0.210 HD
ENDBRANCH  75 142
ENDBRANCH  69  75
ENDBRANCH  14  69
BRANCH  25 144
ATOM    144  O   UNL     1      -9.924   0.877  24.003  0.00  0.00    -0.391 OA
ATOM    145  H   UNL     1      -9.458   0.669  23.178  0.00  0.00    +0.210 HD
ENDBRANCH  25 144
BRANCH  23 146
ATOM    146  O   UNL     1     -10.716   1.418  21.258  0.00  0.00    -0.460 OA
BRANCH 146 147
ATOM    147  C   UNL     1     -10.357   0.400  20.436  0.00  0.00    +0.327 C 
ATOM    148  O   UNL     1      -9.879   0.541  19.313  0.00  0.00    -0.249 OA
BRANCH 147 149
ATOM    149  C   UNL     1     -10.548  -0.967  21.111  0.00  0.00    +0.131 C 
ATOM    150  H   UNL     1     -11.087  -0.756  22.046  0.00  0.00    +0.060 HD
BRANCH 149 151
ATOM    151  C   UNL     1      -9.156  -1.504  21.530  0.00  0.00    +0.073 C 
ATOM    152  H   UNL     1      -8.936  -2.440  20.999  0.00  0.00    +0.058 HD
ATOM    153  H   UNL     1      -8.390  -0.770  21.251  0.00  0.00    +0.058 HD
BRANCH 151 154
ATOM    154  O   UNL     1      -9.057  -1.732  22.943  0.00  0.00    -0.381 OA
BRANCH 154 155
ATOM    155  C   UNL     1      -8.733  -3.088  23.224  0.00  0.00    +0.037 C 
ATOM    156  H   UNL     1      -9.622  -3.630  23.558  0.00  0.00    +0.052 HD
ATOM    157  H   UNL     1      -8.303  -3.569  22.341  0.00  0.00    +0.052 HD
ATOM    158  H   UNL     1      -7.993  -3.104  24.028  0.00  0.00    +0.052 HD
ENDBRANCH 154 155
ENDBRANCH 151 154
ENDBRANCH 149 151
BRANCH 149 159
ATOM    159  N   UNL     1     -11.385  -1.875  20.262  0.00  0.00    -0.294 NA
BRANCH 159 160
ATOM    160  C   UNL     1     -12.530  -2.404  21.010  0.00  0.00    -0.012 C 
ATOM    161  H   UNL     1     -13.340  -1.670  21.097  0.00  0.00    +0.039 HD
ATOM    162  H   UNL     1     -12.228  -2.697  22.023  0.00  0.00    +0.039 HD
ATOM    163  H   UNL     1     -12.929  -3.311  20.546  0.00  0.00    +0.039 HD
ENDBRANCH 159 160
BRANCH 159 164
ATOM    164  C   UNL     1     -10.606  -2.985  19.711  0.00  0.00    -0.012 C 
ATOM    165  H   UNL     1     -10.907  -3.934  20.173  0.00  0.00    +0.039 HD
ATOM    166  H   UNL     1     -10.784  -3.110  18.639  0.00  0.00    +0.039 HD
ATOM    167  H   UNL     1      -9.530  -2.853  19.873  0.00  0.00    +0.039 HD
ENDBRANCH 159 164
ENDBRANCH 149 159
ENDBRANCH 147 149
ENDBRANCH 146 147
ENDBRANCH  23 146
BRANCH   4 168
ATOM    168  O   UNL     1      -8.876   6.311  26.183  0.00  0.00    -0.376 OA
BRANCH 168 169
ATOM    169  C   UNL     1      -8.351   7.416  26.910  0.00  0.00    +0.037 C 
ATOM    170  H   UNL     1      -8.548   8.322  26.333  0.00  0.00    +0.052 HD
ATOM    171  H   UNL     1      -7.269   7.322  27.031  0.00  0.00    +0.052 HD
ATOM    172  H   UNL     1      -8.836   7.512  27.883  0.00  0.00    +0.052 HD
ENDBRANCH 168 169
ENDBRANCH   4 168
BRANCH  10 173
ATOM    173  O   UNL     1     -13.359   8.850  22.111  0.00  0.00    -0.376 OA
BRANCH 173 174
ATOM    174  C   UNL     1     -13.344   7.432  22.196  0.00  0.00    +0.037 C 
ATOM    175  H   UNL     1     -12.819   7.003  21.340  0.00  0.00    +0.052 HD
ATOM    176  H   UNL     1     -14.378   7.076  22.180  0.00  0.00    +0.052 HD
ATOM    177  H   UNL     1     -12.883   7.108  23.133  0.00  0.00    +0.052 HD
ENDBRANCH 173 174
ENDBRANCH  10 173
TORSDOF 45
ENDMDL
MODEL 4
REMARK VINA RESULT:      -4.8      1.950      2.922
REMARK  Name = Aplyronine A_conf3
REMARK  45 active torsions:
REMARK  status: ('A' for Active; 'I' for Inactive)
REMARK    1  A    between atoms: C_1  and  C_2
REMARK    2  A    between atoms: C_5  and  O_75
REMARK    3  A    between atoms: C_6  and  C_74
REMARK    4  A    between atoms: C_9  and  C_73
REMARK    5  A    between atoms: C_11  and  O_71
REMARK    6  A    between atoms: C_15  and  C_39
REMARK    7  A    between atoms: C_24  and  O_29
REMARK    8  A    between atoms: C_25  and  C_28
REMARK    9  A    between atoms: C_26  and  O_27
REMARK   10  A    between atoms: O_29  and  C_30
REMARK   11  A    between atoms: C_30  and  C_32
REMARK   12  A    between atoms: C_32  and  C_33
REMARK   13  A    between atoms: C_32  and  N_36
REMARK   14  A    between atoms: C_33  and  O_34
REMARK   15  A    between atoms: O_34  and  C_35
REMARK   16  A    between atoms: N_36  and  C_37
REMARK   17  A    between atoms: N_36  and  C_38
REMARK   18  A    between atoms: C_39  and  C_40
REMARK   19  A    between atoms: C_39  and  C_41
REMARK   20  A    between atoms: C_41  and  C_42
REMARK   21  A    between atoms: C_41  and  O_70
REMARK   22  A    between atoms: C_42  and  C_43
REMARK   23  A    between atoms: C_42  and  C_44
REMARK   24  A    between atoms: C_44  and  C_45
REMARK   25  A    between atoms: C_45  and  C_46
REMARK   26  A    between atoms: C_46  and  C_47
REMARK   27  A    between atoms: C_46  and  O_62
REMARK   28  A    between atoms: C_47  and  C_48
REMARK   29  A    between atoms: C_47  and  C_49
REMARK   30  A    between atoms: C_49  and  C_50
REMARK   31  A    between atoms: C_49  and  O_58
REMARK   32  A    between atoms: C_50  and  C_51
REMARK   33  A    between atoms: C_50  and  C_52
REMARK   34  A    between atoms: C_53  and  N_54
REMARK   35  A    between atoms: N_54  and  C_55
REMARK   36  A    between atoms: O_58  and  C_59
REMARK   37  A    between atoms: C_59  and  C_61
REMARK   38  A    between atoms: O_62  and  C_63
REMARK   39  A    between atoms: C_63  and  C_65
REMARK   40  A    between atoms: C_65  and  C_66
REMARK   41  A    between atoms: C_65  and  N_67
REMARK   42  A    between atoms: N_67  and  C_68
REMARK   43  A    between atoms: N_67  and  C_69
REMARK   44  A    between atoms: O_71  and  C_72
REMARK   45  A    between atoms: O_75  and  C_76
REMARK                            x       y       z     vdW  Elec       q    Type
REMARK                         _______ _______ _______ _____ _____    ______ ____
ROOT
ATOM      1  C   UNL     1     -10.998  13.062  23.810  0.00  0.00    -0.017 C 
ATOM      2  C   UNL     1     -11.526  13.270  22.373  0.00  0.00    -0.045 C 
ATOM      3  C   UNL     1     -10.548  12.843  21.264  0.00  0.00    -0.022 C 
ATOM      4  C   UNL     1     -10.198  13.942  20.227  0.00  0.00    +0.079 C 
ATOM      5  C   UNL     1     -11.264  14.230  19.166  0.00  0.00    -0.048 C 
ATOM      6  C   UNL     1     -10.919  14.214  17.858  0.00  0.00    -0.082 C 
ATOM      7  C   UNL     1     -11.771  14.531  16.661  0.00  0.00    -0.032 C 
ATOM      8  C   UNL     1     -12.492  13.324  16.023  0.00  0.00    -0.038 C 
ATOM      9  C   UNL     1     -11.524  12.203  15.564  0.00  0.00    -0.020 C 
ATOM     10  C   UNL     1     -11.187  11.193  16.674  0.00  0.00    +0.077 C 
ATOM     11  C   UNL     1     -10.202  10.167  16.178  0.00  0.00    -0.059 C 
ATOM     12  C   UNL     1      -8.879  10.197  16.409  0.00  0.00    -0.082 C 
ATOM     13  C   UNL     1      -7.963   9.064  16.013  0.00  0.00    +0.003 C 
ATOM     14  C   UNL     1      -7.002   8.587  17.128  0.00  0.00    +0.112 C 
ATOM     15  O   UNL     1      -7.685   8.604  18.408  0.00  0.00    -0.458 OA
ATOM     16  C   UNL     1      -8.658   7.698  18.654  0.00  0.00    +0.332 C 
ATOM     17  O   UNL     1      -9.031   6.793  17.932  0.00  0.00    -0.246 OA
ATOM     18  C   UNL     1      -9.194   8.051  19.980  0.00  0.00    +0.022 C 
ATOM     19  C   UNL     1     -10.366   7.597  20.443  0.00  0.00    -0.055 C 
ATOM     20  C   UNL     1     -10.826   8.033  21.738  0.00  0.00    -0.065 C 
ATOM     21  C   UNL     1     -11.916   7.590  22.382  0.00  0.00    -0.081 C 
ATOM     22  C   UNL     1     -12.334   7.967  23.791  0.00  0.00    +0.003 C 
ATOM     23  C   UNL     1     -11.598   9.123  24.531  0.00  0.00    +0.111 C 
ATOM     24  C   UNL     1     -11.938  10.540  23.952  0.00  0.00    +0.020 C 
ATOM     25  C   UNL     1     -10.814  11.578  24.251  0.00  0.00    +0.064 C 
ATOM     26  H   UNL     1      -9.991  13.506  23.846  0.00  0.00    +0.032 HD
ATOM     27  H   UNL     1     -11.777  14.329  22.260  0.00  0.00    +0.027 HD
ATOM     28  H   UNL     1     -12.471  12.735  22.239  0.00  0.00    +0.027 HD
ATOM     29  H   UNL     1      -9.604  12.530  21.727  0.00  0.00    +0.029 HD
ATOM     30  H   UNL     1     -10.941  11.959  20.746  0.00  0.00    +0.029 HD
ATOM     31  H   UNL     1      -9.287  13.584  19.728  0.00  0.00    +0.064 HD
ATOM     32  H   UNL     1      -9.884  13.978  17.599  0.00  0.00    +0.057 HD
ATOM     33  H   UNL     1     -11.121  15.004  15.913  0.00  0.00    +0.031 HD
ATOM     34  H   UNL     1     -12.507  15.305  16.916  0.00  0.00    +0.031 HD
ATOM     35  H   UNL     1     -13.206  12.917  16.750  0.00  0.00    +0.030 HD
ATOM     36  H   UNL     1     -10.607  12.650  15.158  0.00  0.00    +0.030 HD
ATOM     37  H   UNL     1     -11.998  11.650  14.741  0.00  0.00    +0.030 HD
ATOM     38  H   UNL     1     -10.782  11.697  17.554  0.00  0.00    +0.064 HD
ATOM     39  H   UNL     1     -10.637   9.324  15.644  0.00  0.00    +0.059 HD
ATOM     40  H   UNL     1      -8.429  11.036  16.933  0.00  0.00    +0.057 HD
ATOM     41  H   UNL     1      -7.424   9.322  15.098  0.00  0.00    +0.034 HD
ATOM     42  H   UNL     1      -8.588   8.203  15.736  0.00  0.00    +0.034 HD
ATOM     43  H   UNL     1      -6.713   7.551  16.906  0.00  0.00    +0.074 HD
ATOM     44  H   UNL     1      -8.582   8.729  20.568  0.00  0.00    +0.069 HD
ATOM     45  H   UNL     1     -10.972   6.910  19.862  0.00  0.00    +0.062 HD
ATOM     46  H   UNL     1     -10.172   8.757  22.218  0.00  0.00    +0.061 HD
ATOM     47  H   UNL     1     -12.548   6.848  21.898  0.00  0.00    +0.057 HD
ATOM     48  H   UNL     1     -13.410   8.170  23.777  0.00  0.00    +0.034 HD
ATOM     49  H   UNL     1     -12.210   7.054  24.389  0.00  0.00    +0.034 HD
ATOM     50  H   UNL     1     -11.911   9.113  25.585  0.00  0.00    +0.074 HD
ATOM     51  H   UNL     1     -12.011  10.461  22.861  0.00  0.00    +0.036 HD
ATOM     52  H   UNL     1      -9.926  11.226  23.712  0.00  0.00    +0.060 HD
ENDROOT
BRANCH   1  53
ATOM     53  C   UNL     1     -11.810  13.921  24.794  0.00  0.00    -0.060 C 
ATOM     54  H   UNL     1     -11.863  13.426  25.771  0.00  0.00    +0.023 HD
ATOM     55  H   UNL     1     -12.843  14.050  24.458  0.00  0.00    +0.023 HD
ATOM     56  H   UNL     1     -11.374  14.907  24.955  0.00  0.00    +0.023 HD
ENDBRANCH   1  53
BRANCH   5  57
ATOM     57  C   UNL     1     -12.650  14.564  19.643  0.00  0.00    -0.041 C 
ATOM     58  H   UNL     1     -13.391  14.301  18.883  0.00  0.00    +0.028 HD
ATOM     59  H   UNL     1     -12.878  14.022  20.568  0.00  0.00    +0.028 HD
ATOM     60  H   UNL     1     -12.792  15.626  19.856  0.00  0.00    +0.028 HD
ENDBRANCH   5  57
BRANCH  24  61
ATOM     61  C   UNL     1     -13.319  10.966  24.471  0.00  0.00    -0.057 C 
ATOM     62  H   UNL     1     -13.994  11.237  23.654  0.00  0.00    +0.023 HD
ATOM     63  H   UNL     1     -13.797  10.163  25.038  0.00  0.00    +0.023 HD
ATOM     64  H   UNL     1     -13.249  11.849  25.109  0.00  0.00    +0.023 HD
ENDBRANCH  24  61
BRANCH   8  65
ATOM     65  C   UNL     1     -13.303  13.819  14.818  0.00  0.00    -0.062 C 
ATOM     66  H   UNL     1     -12.671  13.927  13.931  0.00  0.00    +0.023 HD
ATOM     67  H   UNL     1     -13.764  14.791  15.029  0.00  0.00    +0.023 HD
ATOM     68  H   UNL     1     -14.109  13.117  14.579  0.00  0.00    +0.023 HD
ENDBRANCH   8  65
BRANCH  14  69
ATOM     69  C   UNL     1      -5.684   9.406  17.350  0.00  0.00    +0.020 C 
ATOM     70  H   UNL     1      -4.954   8.742  17.833  0.00  0.00    +0.036 HD
BRANCH  69  71
ATOM     71  C   UNL     1      -5.124   9.762  15.956  0.00  0.00    -0.057 C 
ATOM     72  H   UNL     1      -4.203  10.348  16.021  0.00  0.00    +0.023 HD
ATOM     73  H   UNL     1      -5.856  10.333  15.374  0.00  0.00    +0.023 HD
ATOM     74  H   UNL     1      -4.865   8.869  15.377  0.00  0.00    +0.023 HD
ENDBRANCH  69  71
BRANCH  69  75
ATOM     75  C   UNL     1      -5.899  10.655  18.247  0.00  0.00    +0.064 C 
ATOM     76  H   UNL     1      -6.973  10.730  18.465  0.00  0.00    +0.060 HD
BRANCH  75  77
ATOM     77  C   UNL     1      -5.432  12.017  17.668  0.00  0.00    -0.017 C 
ATOM     78  H   UNL     1      -5.171  11.852  16.616  0.00  0.00    +0.032 HD
BRANCH  77  79
ATOM     79  C   UNL     1      -6.596  13.025  17.614  0.00  0.00    -0.060 C 
ATOM     80  H   UNL     1      -7.277  12.938  18.463  0.00  0.00    +0.023 HD
ATOM     81  H   UNL     1      -7.190  12.869  16.706  0.00  0.00    +0.023 HD
ATOM     82  H   UNL     1      -6.217  14.052  17.586  0.00  0.00    +0.023 HD
ENDBRANCH  77  79
BRANCH  77  83
ATOM     83  C   UNL     1      -4.176  12.638  18.333  0.00  0.00    -0.045 C 
ATOM     84  H   UNL     1      -3.561  13.041  17.518  0.00  0.00    +0.027 HD
ATOM     85  H   UNL     1      -3.578  11.846  18.796  0.00  0.00    +0.027 HD
BRANCH  83  86
ATOM     86  C   UNL     1      -4.412  13.737  19.375  0.00  0.00    -0.015 C 
ATOM     87  H   UNL     1      -3.973  13.444  20.334  0.00  0.00    +0.030 HD
ATOM     88  H   UNL     1      -5.480  13.834  19.587  0.00  0.00    +0.030 HD
BRANCH  86  89
ATOM     89  C   UNL     1      -3.888  15.121  18.931  0.00  0.00    +0.109 C 
ATOM     90  H   UNL     1      -3.866  15.790  19.804  0.00  0.00    +0.074 HD
BRANCH  89  91
ATOM     91  C   UNL     1      -4.680  15.866  17.812  0.00  0.00    +0.031 C 
ATOM     92  H   UNL     1      -5.629  15.315  17.745  0.00  0.00    +0.037 HD
BRANCH  91  93
ATOM     93  C   UNL     1      -3.976  15.711  16.459  0.00  0.00    -0.056 C 
ATOM     94  H   UNL     1      -3.442  14.756  16.392  0.00  0.00    +0.023 HD
ATOM     95  H   UNL     1      -3.258  16.516  16.280  0.00  0.00    +0.023 HD
ATOM     96  H   UNL     1      -4.700  15.708  15.641  0.00  0.00    +0.023 HD
ENDBRANCH  91  93
BRANCH  91  97
ATOM     97  C   UNL     1      -5.032  17.352  18.131  0.00  0.00    +0.115 C 
ATOM     98  H   UNL     1      -4.376  17.988  17.519  0.00  0.00    +0.074 HD
BRANCH  97  99
ATOM     99  C   UNL     1      -6.516  17.793  17.901  0.00  0.00    +0.013 C 
ATOM    100  H   UNL     1      -6.940  18.000  18.894  0.00  0.00    +0.038 HD
BRANCH  99 101
ATOM    101  C   UNL     1      -7.407  16.680  17.337  0.00  0.00    -0.056 C 
ATOM    102  H   UNL     1      -8.442  17.028  17.236  0.00  0.00    +0.024 HD
ATOM    103  H   UNL     1      -7.417  15.811  18.003  0.00  0.00    +0.024 HD
ATOM    104  H   UNL     1      -7.079  16.351  16.345  0.00  0.00    +0.024 HD
ENDBRANCH  99 101
BRANCH  99 105
ATOM    105  C   UNL     1      -6.663  19.061  17.083  0.00  0.00    -0.064 C 
ATOM    106  C   UNL     1      -6.734  20.273  17.651  0.00  0.00    -0.005 C 
ATOM    107  H   UNL     1      -6.748  18.936  16.010  0.00  0.00    +0.059 HD
ATOM    108  H   UNL     1      -6.664  20.341  18.737  0.00  0.00    +0.078 HD
BRANCH 106 109
ATOM    109  N   UNL     1      -6.878  21.499  17.018  0.00  0.00    -0.284 N 
ATOM    110  C   UNL     1      -8.067  22.007  16.515  0.00  0.00    +0.206 C 
ATOM    111  O   UNL     1      -8.210  23.077  15.931  0.00  0.00    -0.279 OA
ATOM    112  H   UNL     1      -8.931  21.349  16.671  0.00  0.00    +0.126 HD
BRANCH 109 113
ATOM    113  C   UNL     1      -5.668  22.298  16.844  0.00  0.00    +0.007 C 
ATOM    114  H   UNL     1      -4.760  21.692  16.930  0.00  0.00    +0.043 HD
ATOM    115  H   UNL     1      -5.682  22.764  15.853  0.00  0.00    +0.043 HD
ATOM    116  H   UNL     1      -5.643  23.073  17.615  0.00  0.00    +0.043 HD
ENDBRANCH 109 113
ENDBRANCH 106 109
ENDBRANCH  99 105
ENDBRANCH  97  99
BRANCH  97 117
ATOM    117  O   UNL     1      -4.730  17.591  19.531  0.00  0.00    -0.461 OA
BRANCH 117 118
ATOM    118  C   UNL     1      -4.079  18.747  19.832  0.00  0.00    +0.304 C 
ATOM    119  O   UNL     1      -3.009  19.108  19.360  0.00  0.00    -0.251 OA
BRANCH 118 120
ATOM    120  C   UNL     1      -4.872  19.532  20.830  0.00  0.00    +0.033 C 
ATOM    121  H   UNL     1      -4.492  20.557  20.869  0.00  0.00    +0.034 HD
ATOM    122  H   UNL     1      -5.923  19.564  20.527  0.00  0.00    +0.034 HD
ATOM    123  H   UNL     1      -4.770  19.081  21.820  0.00  0.00    +0.034 HD
ENDBRANCH 118 120
ENDBRANCH 117 118
ENDBRANCH  97 117
ENDBRANCH  91  97
ENDBRANCH  89  91
BRANCH  89 124
ATOM    124  O   UNL     1      -2.518  14.968  18.478  0.00  0.00    -0.460 OA
BRANCH 124 125
ATOM    125  C   UNL     1      -1.557  15.534  19.268  0.00  0.00    +0.324 C 
ATOM    126  O   UNL     1      -1.783  16.150  20.304  0.00  0.00    -0.249 OA
BRANCH 125 127
ATOM    127  C   UNL     1      -0.163  15.260  18.674  0.00  0.00    +0.105 C 
ATOM    128  H   UNL     1       0.457  16.155  18.809  0.00  0.00    +0.058 HD
BRANCH 127 129
ATOM    129  C   UNL     1      -0.385  15.036  17.175  0.00  0.00    -0.039 C 
ATOM    130  H   UNL     1       0.418  14.431  16.740  0.00  0.00    +0.025 HD
ATOM    131  H   UNL     1      -0.438  15.984  16.629  0.00  0.00    +0.025 HD
ATOM    132  H   UNL     1      -1.326  14.503  16.994  0.00  0.00    +0.025 HD
ENDBRANCH 127 129
BRANCH 127 133
ATOM    133  N   UNL     1       0.485  14.104  19.359  0.00  0.00    -0.296 NA
BRANCH 133 134
ATOM    134  C   UNL     1       1.299  13.299  18.444  0.00  0.00    -0.012 C 
ATOM    135  H   UNL     1       1.854  12.533  18.996  0.00  0.00    +0.039 HD
ATOM    136  H   UNL     1       2.018  13.912  17.890  0.00  0.00    +0.039 HD
ATOM    137  H   UNL     1       0.673  12.757  17.730  0.00  0.00    +0.039 HD
ENDBRANCH 133 134
BRANCH 133 138
ATOM    138  C   UNL     1       1.322  14.554  20.479  0.00  0.00    -0.012 C 
ATOM    139  H   UNL     1       2.025  15.326  20.147  0.00  0.00    +0.039 HD
ATOM    140  H   UNL     1       0.722  14.964  21.299  0.00  0.00    +0.039 HD
ATOM    141  H   UNL     1       1.938  13.741  20.876  0.00  0.00    +0.039 HD
ENDBRANCH 133 138
ENDBRANCH 127 133
ENDBRANCH 125 127
ENDBRANCH 124 125
ENDBRANCH  89 124
ENDBRANCH  86  89
ENDBRANCH  83  86
ENDBRANCH  77  83
ENDBRANCH  75  77
BRANCH  75 142
ATOM    142  O   UNL     1      -5.233  10.416  19.488  0.00  0.00    -0.391 OA
ATOM    143  H   UNL     1      -4.290  10.619  19.370  0.00  0.00    +0.210 HD
ENDBRANCH  75 142
ENDBRANCH  69  75
ENDBRANCH  14  69
BRANCH  25 144
ATOM    144  O   UNL     1     -10.454  11.536  25.636  0.00  0.00    -0.391 OA
ATOM    145  H   UNL     1     -10.256  12.440  25.929  0.00  0.00    +0.210 HD
ENDBRANCH  25 144
BRANCH  23 146
ATOM    146  O   UNL     1     -10.179   8.890  24.465  0.00  0.00    -0.460 OA
BRANCH 146 147
ATOM    147  C   UNL     1      -9.642   7.938  25.269  0.00  0.00    +0.327 C 
ATOM    148  O   UNL     1      -8.939   7.008  24.882  0.00  0.00    -0.249 OA
BRANCH 147 149
ATOM    149  C   UNL     1      -9.958   8.204  26.748  0.00  0.00    +0.131 C 
ATOM    150  H   UNL     1     -10.580   9.110  26.754  0.00  0.00    +0.060 HD
BRANCH 149 151
ATOM    151  C   UNL     1      -8.640   8.584  27.469  0.00  0.00    +0.073 C 
ATOM    152  H   UNL     1      -8.680   8.273  28.522  0.00  0.00    +0.058 HD
ATOM    153  H   UNL     1      -7.805   8.054  26.992  0.00  0.00    +0.058 HD
BRANCH 151 154
ATOM    154  O   UNL     1      -8.364   9.991  27.406  0.00  0.00    -0.381 OA
BRANCH 154 155
ATOM    155  C   UNL     1      -8.805  10.655  28.584  0.00  0.00    +0.037 C 
ATOM    156  H   UNL     1      -8.701   9.999  29.452  0.00  0.00    +0.052 HD
ATOM    157  H   UNL     1      -8.240  11.579  28.735  0.00  0.00    +0.052 HD
ATOM    158  H   UNL     1      -9.862  10.905  28.460  0.00  0.00    +0.052 HD
ENDBRANCH 154 155
ENDBRANCH 151 154
ENDBRANCH 149 151
BRANCH 149 159
ATOM    159  N   UNL     1     -10.741   7.074  27.344  0.00  0.00    -0.294 NA
BRANCH 159 160
ATOM    160  C   UNL     1     -12.016   7.539  27.899  0.00  0.00    -0.012 C 
ATOM    161  H   UNL     1     -12.358   6.909  28.730  0.00  0.00    +0.039 HD
ATOM    162  H   UNL     1     -12.797   7.539  27.129  0.00  0.00    +0.039 HD
ATOM    163  H   UNL     1     -11.947   8.573  28.251  0.00  0.00    +0.039 HD
ENDBRANCH 159 160
BRANCH 159 164
ATOM    164  C   UNL     1      -9.985   6.368  28.380  0.00  0.00    -0.012 C 
ATOM    165  H   UNL     1      -9.291   5.648  27.928  0.00  0.00    +0.039 HD
ATOM    166  H   UNL     1      -9.360   7.053  28.961  0.00  0.00    +0.039 HD
ATOM    167  H   UNL     1     -10.640   5.823  29.069  0.00  0.00    +0.039 HD
ENDBRANCH 159 164
ENDBRANCH 149 159
ENDBRANCH 147 149
ENDBRANCH 146 147
ENDBRANCH  23 146
BRANCH   4 168
ATOM    168  O   UNL     1      -9.859  15.141  20.943  0.00  0.00    -0.376 OA
BRANCH 168 169
ATOM    169  C   UNL     1      -8.469  15.445  20.906  0.00  0.00    +0.037 C 
ATOM    170  H   UNL     1      -7.940  14.667  21.461  0.00  0.00    +0.052 HD
ATOM    171  H   UNL     1      -8.267  16.402  21.394  0.00  0.00    +0.052 HD
ATOM    172  H   UNL     1      -8.096  15.454  19.880  0.00  0.00    +0.052 HD
ENDBRANCH 168 169
ENDBRANCH   4 168
BRANCH  10 173
ATOM    173  O   UNL     1     -12.408  10.526  17.028  0.00  0.00    -0.376 OA
BRANCH 173 174
ATOM    174  C   UNL     1     -12.197   9.268  17.652  0.00  0.00    +0.037 C 
ATOM    175  H   UNL     1     -11.170   9.188  18.016  0.00  0.00    +0.052 HD
ATOM    176  H   UNL     1     -12.361   8.483  16.909  0.00  0.00    +0.052 HD
ATOM    177  H   UNL     1     -12.907   9.121  18.470  0.00  0.00    +0.052 HD
ENDBRANCH 173 174
ENDBRANCH  10 173
TORSDOF 45
ENDMDL
MODEL 5
REMARK VINA RESULT:      -4.8      2.774      6.058
REMARK  Name = Aplyronine A_conf3
REMARK  45 active torsions:
REMARK  status: ('A' for Active; 'I' for Inactive)
REMARK    1  A    between atoms: C_1  and  C_2
REMARK    2  A    between atoms: C_5  and  O_75
REMARK    3  A    between atoms: C_6  and  C_74
REMARK    4  A    between atoms: C_9  and  C_73
REMARK    5  A    between atoms: C_11  and  O_71
REMARK    6  A    between atoms: C_15  and  C_39
REMARK    7  A    between atoms: C_24  and  O_29
REMARK    8  A    between atoms: C_25  and  C_28
REMARK    9  A    between atoms: C_26  and  O_27
REMARK   10  A    between atoms: O_29  and  C_30
REMARK   11  A    between atoms: C_30  and  C_32
REMARK   12  A    between atoms: C_32  and  C_33
REMARK   13  A    between atoms: C_32  and  N_36
REMARK   14  A    between atoms: C_33  and  O_34
REMARK   15  A    between atoms: O_34  and  C_35
REMARK   16  A    between atoms: N_36  and  C_37
REMARK   17  A    between atoms: N_36  and  C_38
REMARK   18  A    between atoms: C_39  and  C_40
REMARK   19  A    between atoms: C_39  and  C_41
REMARK   20  A    between atoms: C_41  and  C_42
REMARK   21  A    between atoms: C_41  and  O_70
REMARK   22  A    between atoms: C_42  and  C_43
REMARK   23  A    between atoms: C_42  and  C_44
REMARK   24  A    between atoms: C_44  and  C_45
REMARK   25  A    between atoms: C_45  and  C_46
REMARK   26  A    between atoms: C_46  and  C_47
REMARK   27  A    between atoms: C_46  and  O_62
REMARK   28  A    between atoms: C_47  and  C_48
REMARK   29  A    between atoms: C_47  and  C_49
REMARK   30  A    between atoms: C_49  and  C_50
REMARK   31  A    between atoms: C_49  and  O_58
REMARK   32  A    between atoms: C_50  and  C_51
REMARK   33  A    between atoms: C_50  and  C_52
REMARK   34  A    between atoms: C_53  and  N_54
REMARK   35  A    between atoms: N_54  and  C_55
REMARK   36  A    between atoms: O_58  and  C_59
REMARK   37  A    between atoms: C_59  and  C_61
REMARK   38  A    between atoms: O_62  and  C_63
REMARK   39  A    between atoms: C_63  and  C_65
REMARK   40  A    between atoms: C_65  and  C_66
REMARK   41  A    between atoms: C_65  and  N_67
REMARK   42  A    between atoms: N_67  and  C_68
REMARK   43  A    between atoms: N_67  and  C_69
REMARK   44  A    between atoms: O_71  and  C_72
REMARK   45  A    between atoms: O_75  and  C_76
REMARK                            x       y       z     vdW  Elec       q    Type
REMARK                         _______ _______ _______ _____ _____    ______ ____
ROOT
ATOM      1  C   UNL     1     -12.819  15.032  20.759  0.00  0.00    -0.017 C 
ATOM      2  C   UNL     1     -12.890  14.508  19.308  0.00  0.00    -0.045 C 
ATOM      3  C   UNL     1     -11.593  13.853  18.800  0.00  0.00    -0.022 C 
ATOM      4  C   UNL     1     -11.009  14.458  17.497  0.00  0.00    +0.079 C 
ATOM      5  C   UNL     1     -11.711  14.058  16.196  0.00  0.00    -0.048 C 
ATOM      6  C   UNL     1     -10.979  13.560  15.174  0.00  0.00    -0.082 C 
ATOM      7  C   UNL     1     -11.438  13.170  13.796  0.00  0.00    -0.032 C 
ATOM      8  C   UNL     1     -11.850  11.693  13.629  0.00  0.00    -0.038 C 
ATOM      9  C   UNL     1     -10.720  10.695  13.992  0.00  0.00    -0.020 C 
ATOM     10  C   UNL     1     -10.680  10.333  15.487  0.00  0.00    +0.077 C 
ATOM     11  C   UNL     1      -9.529   9.408  15.779  0.00  0.00    -0.059 C 
ATOM     12  C   UNL     1      -8.345   9.789  16.289  0.00  0.00    -0.082 C 
ATOM     13  C   UNL     1      -7.284   8.798  16.699  0.00  0.00    +0.003 C 
ATOM     14  C   UNL     1      -6.686   9.033  18.108  0.00  0.00    +0.112 C 
ATOM     15  O   UNL     1      -7.730   9.454  19.023  0.00  0.00    -0.458 OA
ATOM     16  C   UNL     1      -8.673   8.566  19.408  0.00  0.00    +0.332 C 
ATOM     17  O   UNL     1      -8.748   7.387  19.117  0.00  0.00    -0.246 OA
ATOM     18  C   UNL     1      -9.613   9.332  20.245  0.00  0.00    +0.022 C 
ATOM     19  C   UNL     1     -10.840   8.897  20.559  0.00  0.00    -0.055 C 
ATOM     20  C   UNL     1     -11.704   9.739  21.349  0.00  0.00    -0.065 C 
ATOM     21  C   UNL     1     -12.909   9.405  21.832  0.00  0.00    -0.081 C 
ATOM     22  C   UNL     1     -13.764  10.251  22.757  0.00  0.00    +0.003 C 
ATOM     23  C   UNL     1     -13.367  11.730  23.038  0.00  0.00    +0.111 C 
ATOM     24  C   UNL     1     -13.599  12.675  21.808  0.00  0.00    +0.020 C 
ATOM     25  C   UNL     1     -12.689  13.940  21.863  0.00  0.00    +0.064 C 
ATOM     26  H   UNL     1     -11.902  15.637  20.835  0.00  0.00    +0.032 HD
ATOM     27  H   UNL     1     -13.159  15.349  18.662  0.00  0.00    +0.027 HD
ATOM     28  H   UNL     1     -13.713  13.793  19.206  0.00  0.00    +0.027 HD
ATOM     29  H   UNL     1     -10.821  13.955  19.572  0.00  0.00    +0.029 HD
ATOM     30  H   UNL     1     -11.751  12.775  18.668  0.00  0.00    +0.029 HD
ATOM     31  H   UNL     1      -9.968  14.108  17.461  0.00  0.00    +0.064 HD
ATOM     32  H   UNL     1      -9.903  13.445  15.317  0.00  0.00    +0.057 HD
ATOM     33  H   UNL     1     -10.620  13.402  13.101  0.00  0.00    +0.031 HD
ATOM     34  H   UNL     1     -12.263  13.820  13.476  0.00  0.00    +0.031 HD
ATOM     35  H   UNL     1     -12.727  11.499  14.259  0.00  0.00    +0.030 HD
ATOM     36  H   UNL     1      -9.753  11.098  13.668  0.00  0.00    +0.030 HD
ATOM     37  H   UNL     1     -10.881   9.765  13.428  0.00  0.00    +0.030 HD
ATOM     38  H   UNL     1     -10.599  11.229  16.106  0.00  0.00    +0.064 HD
ATOM     39  H   UNL     1      -9.724   8.352  15.604  0.00  0.00    +0.059 HD
ATOM     40  H   UNL     1      -8.133  10.842  16.462  0.00  0.00    +0.057 HD
ATOM     41  H   UNL     1      -6.506   8.747  15.934  0.00  0.00    +0.034 HD
ATOM     42  H   UNL     1      -7.737   7.797  16.705  0.00  0.00    +0.034 HD
ATOM     43  H   UNL     1      -6.278   8.078  18.466  0.00  0.00    +0.074 HD
ATOM     44  H   UNL     1      -9.256  10.300  20.585  0.00  0.00    +0.069 HD
ATOM     45  H   UNL     1     -11.194   7.925  20.229  0.00  0.00    +0.062 HD
ATOM     46  H   UNL     1     -11.276  10.709  21.586  0.00  0.00    +0.061 HD
ATOM     47  H   UNL     1     -13.314   8.421  21.605  0.00  0.00    +0.057 HD
ATOM     48  H   UNL     1     -14.794  10.215  22.385  0.00  0.00    +0.034 HD
ATOM     49  H   UNL     1     -13.775   9.718  23.717  0.00  0.00    +0.034 HD
ATOM     50  H   UNL     1     -13.988  12.104  23.864  0.00  0.00    +0.074 HD
ATOM     51  H   UNL     1     -13.326  12.131  20.896  0.00  0.00    +0.036 HD
ATOM     52  H   UNL     1     -11.658  13.574  21.786  0.00  0.00    +0.060 HD
ENDROOT
BRANCH   1  53
ATOM     53  C   UNL     1     -13.947  16.049  21.003  0.00  0.00    -0.060 C 
ATOM     54  H   UNL     1     -13.552  17.070  20.947  0.00  0.00    +0.023 HD
ATOM     55  H   UNL     1     -14.379  15.939  22.001  0.00  0.00    +0.023 HD
ATOM     56  H   UNL     1     -14.750  15.974  20.269  0.00  0.00    +0.023 HD
ENDBRANCH   1  53
BRANCH   5  57
ATOM     57  C   UNL     1     -13.195  14.285  16.107  0.00  0.00    -0.041 C 
ATOM     58  H   UNL     1     -13.549  14.111  15.087  0.00  0.00    +0.028 HD
ATOM     59  H   UNL     1     -13.727  13.613  16.789  0.00  0.00    +0.028 HD
ATOM     60  H   UNL     1     -13.495  15.302  16.366  0.00  0.00    +0.028 HD
ENDBRANCH   5  57
BRANCH  24  61
ATOM     61  C   UNL     1     -15.096  13.001  21.713  0.00  0.00    -0.057 C 
ATOM     62  H   UNL     1     -15.445  13.565  22.583  0.00  0.00    +0.023 HD
ATOM     63  H   UNL     1     -15.318  13.597  20.824  0.00  0.00    +0.023 HD
ATOM     64  H   UNL     1     -15.700  12.092  21.682  0.00  0.00    +0.023 HD
ENDBRANCH  24  61
BRANCH   8  65
ATOM     65  C   UNL     1     -12.279  11.465  12.173  0.00  0.00    -0.062 C 
ATOM     66  H   UNL     1     -11.855  10.538  11.774  0.00  0.00    +0.023 HD
ATOM     67  H   UNL     1     -11.952  12.293  11.534  0.00  0.00    +0.023 HD
ATOM     68  H   UNL     1     -13.370  11.401  12.096  0.00  0.00    +0.023 HD
ENDBRANCH   8  65
BRANCH  14  69
ATOM     69  C   UNL     1      -5.555  10.109  18.246  0.00  0.00    +0.020 C 
ATOM     70  H   UNL     1      -4.812   9.725  18.960  0.00  0.00    +0.036 HD
BRANCH  69  71
ATOM     71  C   UNL     1      -4.854  10.218  16.874  0.00  0.00    -0.057 C 
ATOM     72  H   UNL     1      -3.765  10.234  16.969  0.00  0.00    +0.023 HD
ATOM     73  H   UNL     1      -5.168  11.125  16.346  0.00  0.00    +0.023 HD
ATOM     74  H   UNL     1      -5.081   9.363  16.228  0.00  0.00    +0.023 HD
ENDBRANCH  69  71
BRANCH  69  75
ATOM     75  C   UNL     1      -6.087  11.475  18.758  0.00  0.00    +0.064 C 
ATOM     76  H   UNL     1      -7.080  11.305  19.194  0.00  0.00    +0.060 HD
BRANCH  75  77
ATOM     77  C   UNL     1      -6.213  12.611  17.708  0.00  0.00    -0.017 C 
ATOM     78  H   UNL     1      -6.136  12.149  16.716  0.00  0.00    +0.032 HD
BRANCH  77  79
ATOM     79  C   UNL     1      -7.622  13.230  17.728  0.00  0.00    -0.060 C 
ATOM     80  H   UNL     1      -7.611  14.321  17.679  0.00  0.00    +0.023 HD
ATOM     81  H   UNL     1      -8.145  12.953  18.651  0.00  0.00    +0.023 HD
ATOM     82  H   UNL     1      -8.220  12.858  16.888  0.00  0.00    +0.023 HD
ENDBRANCH  77  79
BRANCH  77  83
ATOM     83  C   UNL     1      -5.114  13.704  17.761  0.00  0.00    -0.045 C 
ATOM     84  H   UNL     1      -4.683  13.760  16.753  0.00  0.00    +0.027 HD
ATOM     85  H   UNL     1      -4.300  13.374  18.416  0.00  0.00    +0.027 HD
BRANCH  83  86
ATOM     86  C   UNL     1      -5.548  15.107  18.201  0.00  0.00    -0.015 C 
ATOM     87  H   UNL     1      -6.638  15.195  18.147  0.00  0.00    +0.030 HD
ATOM     88  H   UNL     1      -5.183  15.855  17.492  0.00  0.00    +0.030 HD
BRANCH  86  89
ATOM     89  C   UNL     1      -5.034  15.492  19.606  0.00  0.00    +0.109 C 
ATOM     90  H   UNL     1      -5.171  16.574  19.751  0.00  0.00    +0.074 HD
BRANCH  89  91
ATOM     91  C   UNL     1      -3.542  15.177  19.939  0.00  0.00    +0.031 C 
ATOM     92  H   UNL     1      -3.311  14.299  19.320  0.00  0.00    +0.037 HD
BRANCH  91  93
ATOM     93  C   UNL     1      -3.397  14.743  21.402  0.00  0.00    -0.056 C 
ATOM     94  H   UNL     1      -4.372  14.657  21.894  0.00  0.00    +0.023 HD
ATOM     95  H   UNL     1      -2.787  15.447  21.976  0.00  0.00    +0.023 HD
ATOM     96  H   UNL     1      -2.937  13.754  21.471  0.00  0.00    +0.023 HD
ENDBRANCH  91  93
BRANCH  91  97
ATOM     97  C   UNL     1      -2.529  16.297  19.549  0.00  0.00    +0.115 C 
ATOM     98  H   UNL     1      -2.219  16.803  20.473  0.00  0.00    +0.074 HD
BRANCH  97  99
ATOM     99  C   UNL     1      -1.249  15.851  18.766  0.00  0.00    +0.013 C 
ATOM    100  H   UNL     1      -0.772  16.769  18.394  0.00  0.00    +0.038 HD
BRANCH  99 101
ATOM    101  C   UNL     1      -1.554  15.045  17.498  0.00  0.00    -0.056 C 
ATOM    102  H   UNL     1      -0.673  14.473  17.184  0.00  0.00    +0.024 HD
ATOM    103  H   UNL     1      -1.827  15.707  16.669  0.00  0.00    +0.024 HD
ATOM    104  H   UNL     1      -2.367  14.329  17.650  0.00  0.00    +0.024 HD
ENDBRANCH  99 101
BRANCH  99 105
ATOM    105  C   UNL     1      -0.223  15.134  19.621  0.00  0.00    -0.064 C 
ATOM    106  C   UNL     1       0.955  14.724  19.129  0.00  0.00    -0.005 C 
ATOM    107  H   UNL     1      -0.505  14.932  20.647  0.00  0.00    +0.059 HD
ATOM    108  H   UNL     1       1.181  14.934  18.083  0.00  0.00    +0.078 HD
BRANCH 106 109
ATOM    109  N   UNL     1       1.966  14.053  19.801  0.00  0.00    -0.284 N 
ATOM    110  C   UNL     1       2.923  13.242  19.208  0.00  0.00    +0.206 C 
ATOM    111  O   UNL     1       3.809  12.622  19.787  0.00  0.00    -0.279 OA
ATOM    112  H   UNL     1       2.830  13.172  18.117  0.00  0.00    +0.126 HD
BRANCH 109 113
ATOM    113  C   UNL     1       1.999  14.194  21.254  0.00  0.00    +0.007 C 
ATOM    114  H   UNL     1       1.795  15.222  21.571  0.00  0.00    +0.043 HD
ATOM    115  H   UNL     1       1.244  13.537  21.699  0.00  0.00    +0.043 HD
ATOM    116  H   UNL     1       2.993  13.911  21.614  0.00  0.00    +0.043 HD
ENDBRANCH 109 113
ENDBRANCH 106 109
ENDBRANCH  99 105
ENDBRANCH  97  99
BRANCH  97 117
ATOM    117  O   UNL     1      -3.227  17.257  18.711  0.00  0.00    -0.461 OA
BRANCH 117 118
ATOM    118  C   UNL     1      -3.242  18.549  19.136  0.00  0.00    +0.304 C 
ATOM    119  O   UNL     1      -2.268  19.190  19.507  0.00  0.00    -0.251 OA
BRANCH 118 120
ATOM    120  C   UNL     1      -4.638  19.086  19.077  0.00  0.00    +0.033 C 
ATOM    121  H   UNL     1      -5.252  18.582  19.828  0.00  0.00    +0.034 HD
ATOM    122  H   UNL     1      -4.633  20.158  19.296  0.00  0.00    +0.034 HD
ATOM    123  H   UNL     1      -5.065  18.898  18.088  0.00  0.00    +0.034 HD
ENDBRANCH 118 120
ENDBRANCH 117 118
ENDBRANCH  97 117
ENDBRANCH  91  97
ENDBRANCH  89  91
BRANCH  89 124
ATOM    124  O   UNL     1      -5.860  14.823  20.595  0.00  0.00    -0.460 OA
BRANCH 124 125
ATOM    125  C   UNL     1      -6.906  15.549  21.093  0.00  0.00    +0.324 C 
ATOM    126  O   UNL     1      -6.813  16.686  21.540  0.00  0.00    -0.249 OA
BRANCH 125 127
ATOM    127  C   UNL     1      -8.207  14.732  20.984  0.00  0.00    +0.105 C 
ATOM    128  H   UNL     1      -8.381  14.489  19.927  0.00  0.00    +0.058 HD
BRANCH 127 129
ATOM    129  C   UNL     1      -9.326  15.663  21.464  0.00  0.00    -0.039 C 
ATOM    130  H   UNL     1     -10.292  15.148  21.481  0.00  0.00    +0.025 HD
ATOM    131  H   UNL     1      -9.417  16.547  20.824  0.00  0.00    +0.025 HD
ATOM    132  H   UNL     1      -9.130  16.016  22.483  0.00  0.00    +0.025 HD
ENDBRANCH 127 129
BRANCH 127 133
ATOM    133  N   UNL     1      -8.106  13.469  21.771  0.00  0.00    -0.296 NA
BRANCH 133 134
ATOM    134  C   UNL     1      -8.023  13.716  23.212  0.00  0.00    -0.012 C 
ATOM    135  H   UNL     1      -7.979  12.769  23.763  0.00  0.00    +0.039 HD
ATOM    136  H   UNL     1      -8.881  14.287  23.580  0.00  0.00    +0.039 HD
ATOM    137  H   UNL     1      -7.105  14.251  23.470  0.00  0.00    +0.039 HD
ENDBRANCH 133 134
BRANCH 133 138
ATOM    138  C   UNL     1      -9.245  12.583  21.498  0.00  0.00    -0.012 C 
ATOM    139  H   UNL     1      -8.976  11.831  20.748  0.00  0.00    +0.039 HD
ATOM    140  H   UNL     1      -9.584  12.062  22.401  0.00  0.00    +0.039 HD
ATOM    141  H   UNL     1     -10.093  13.133  21.079  0.00  0.00    +0.039 HD
ENDBRANCH 133 138
ENDBRANCH 127 133
ENDBRANCH 125 127
ENDBRANCH 124 125
ENDBRANCH  89 124
ENDBRANCH  86  89
ENDBRANCH  83  86
ENDBRANCH  77  83
ENDBRANCH  75  77
BRANCH  75 142
ATOM    142  O   UNL     1      -5.229  11.903  19.817  0.00  0.00    -0.391 OA
ATOM    143  H   UNL     1      -5.447  11.388  20.611  0.00  0.00    +0.210 HD
ENDBRANCH  75 142
ENDBRANCH  69  75
ENDBRANCH  14  69
BRANCH  25 144
ATOM    144  O   UNL     1     -12.772  14.556  23.153  0.00  0.00    -0.391 OA
ATOM    145  H   UNL     1     -12.549  15.496  23.058  0.00  0.00    +0.210 HD
ENDBRANCH  25 144
BRANCH  23 146
ATOM    146  O   UNL     1     -11.984  11.773  23.439  0.00  0.00    -0.460 OA
BRANCH 146 147
ATOM    147  C   UNL     1     -11.699  11.962  24.753  0.00  0.00    +0.327 C 
ATOM    148  O   UNL     1     -12.373  12.636  25.526  0.00  0.00    -0.249 OA
BRANCH 147 149
ATOM    149  C   UNL     1     -10.461  11.162  25.183  0.00  0.00    +0.131 C 
ATOM    150  H   UNL     1      -9.655  11.490  24.510  0.00  0.00    +0.060 HD
BRANCH 149 151
ATOM    151  C   UNL     1     -10.707   9.667  24.860  0.00  0.00    +0.073 C 
ATOM    152  H   UNL     1     -10.749   9.081  25.788  0.00  0.00    +0.058 HD
ATOM    153  H   UNL     1     -11.675   9.565  24.354  0.00  0.00    +0.058 HD
BRANCH 151 154
ATOM    154  O   UNL     1      -9.698   9.115  24.002  0.00  0.00    -0.381 OA
BRANCH 154 155
ATOM    155  C   UNL     1      -9.779   7.696  23.959  0.00  0.00    +0.037 C 
ATOM    156  H   UNL     1      -9.100   7.299  23.200  0.00  0.00    +0.052 HD
ATOM    157  H   UNL     1      -9.544   7.271  24.939  0.00  0.00    +0.052 HD
ATOM    158  H   UNL     1     -10.802   7.419  23.692  0.00  0.00    +0.052 HD
ENDBRANCH 154 155
ENDBRANCH 151 154
ENDBRANCH 149 151
BRANCH 149 159
ATOM    159  N   UNL     1     -10.075  11.484  26.595  0.00  0.00    -0.294 NA
BRANCH 159 160
ATOM    160  C   UNL     1      -8.984  12.464  26.643  0.00  0.00    -0.012 C 
ATOM    161  H   UNL     1      -9.358  13.492  26.721  0.00  0.00    +0.039 HD
ATOM    162  H   UNL     1      -8.364  12.396  25.741  0.00  0.00    +0.039 HD
ATOM    163  H   UNL     1      -8.309  12.272  27.482  0.00  0.00    +0.039 HD
ENDBRANCH 159 160
BRANCH 159 164
ATOM    164  C   UNL     1      -9.691  10.288  27.346  0.00  0.00    -0.012 C 
ATOM    165  H   UNL     1     -10.097   9.387  26.869  0.00  0.00    +0.039 HD
ATOM    166  H   UNL     1      -8.605  10.150  27.358  0.00  0.00    +0.039 HD
ATOM    167  H   UNL     1     -10.050  10.318  28.380  0.00  0.00    +0.039 HD
ENDBRANCH 159 164
ENDBRANCH 149 159
ENDBRANCH 147 149
ENDBRANCH 146 147
ENDBRANCH  23 146
BRANCH   4 168
ATOM    168  O   UNL     1     -10.983  15.888  17.639  0.00  0.00    -0.376 OA
BRANCH 168 169
ATOM    169  C   UNL     1      -9.667  16.432  17.617  0.00  0.00    +0.037 C 
ATOM    170  H   UNL     1      -9.718  17.415  17.144  0.00  0.00    +0.052 HD
ATOM    171  H   UNL     1      -8.999  15.806  17.021  0.00  0.00    +0.052 HD
ATOM    172  H   UNL     1      -9.276  16.554  18.628  0.00  0.00    +0.052 HD
ENDBRANCH 168 169
ENDBRANCH   4 168
BRANCH  10 173
ATOM    173  O   UNL     1     -11.906   9.654  15.794  0.00  0.00    -0.376 OA
BRANCH 173 174
ATOM    174  C   UNL     1     -12.245   9.706  17.172  0.00  0.00    +0.037 C 
ATOM    175  H   UNL     1     -12.523  10.722  17.460  0.00  0.00    +0.052 HD
ATOM    176  H   UNL     1     -11.366   9.412  17.753  0.00  0.00    +0.052 HD
ATOM    177  H   UNL     1     -13.055   9.007  17.396  0.00  0.00    +0.052 HD
ENDBRANCH 173 174
ENDBRANCH  10 173
TORSDOF 45
ENDMDL
MODEL 6
REMARK VINA RESULT:      -4.7      2.160      3.170
REMARK  Name = Aplyronine A_conf3
REMARK  45 active torsions:
REMARK  status: ('A' for Active; 'I' for Inactive)
REMARK    1  A    between atoms: C_1  and  C_2
REMARK    2  A    between atoms: C_5  and  O_75
REMARK    3  A    between atoms: C_6  and  C_74
REMARK    4  A    between atoms: C_9  and  C_73
REMARK    5  A    between atoms: C_11  and  O_71
REMARK    6  A    between atoms: C_15  and  C_39
REMARK    7  A    between atoms: C_24  and  O_29
REMARK    8  A    between atoms: C_25  and  C_28
REMARK    9  A    between atoms: C_26  and  O_27
REMARK   10  A    between atoms: O_29  and  C_30
REMARK   11  A    between atoms: C_30  and  C_32
REMARK   12  A    between atoms: C_32  and  C_33
REMARK   13  A    between atoms: C_32  and  N_36
REMARK   14  A    between atoms: C_33  and  O_34
REMARK   15  A    between atoms: O_34  and  C_35
REMARK   16  A    between atoms: N_36  and  C_37
REMARK   17  A    between atoms: N_36  and  C_38
REMARK   18  A    between atoms: C_39  and  C_40
REMARK   19  A    between atoms: C_39  and  C_41
REMARK   20  A    between atoms: C_41  and  C_42
REMARK   21  A    between atoms: C_41  and  O_70
REMARK   22  A    between atoms: C_42  and  C_43
REMARK   23  A    between atoms: C_42  and  C_44
REMARK   24  A    between atoms: C_44  and  C_45
REMARK   25  A    between atoms: C_45  and  C_46
REMARK   26  A    between atoms: C_46  and  C_47
REMARK   27  A    between atoms: C_46  and  O_62
REMARK   28  A    between atoms: C_47  and  C_48
REMARK   29  A    between atoms: C_47  and  C_49
REMARK   30  A    between atoms: C_49  and  C_50
REMARK   31  A    between atoms: C_49  and  O_58
REMARK   32  A    between atoms: C_50  and  C_51
REMARK   33  A    between atoms: C_50  and  C_52
REMARK   34  A    between atoms: C_53  and  N_54
REMARK   35  A    between atoms: N_54  and  C_55
REMARK   36  A    between atoms: O_58  and  C_59
REMARK   37  A    between atoms: C_59  and  C_61
REMARK   38  A    between atoms: O_62  and  C_63
REMARK   39  A    between atoms: C_63  and  C_65
REMARK   40  A    between atoms: C_65  and  C_66
REMARK   41  A    between atoms: C_65  and  N_67
REMARK   42  A    between atoms: N_67  and  C_68
REMARK   43  A    between atoms: N_67  and  C_69
REMARK   44  A    between atoms: O_71  and  C_72
REMARK   45  A    between atoms: O_75  and  C_76
REMARK                            x       y       z     vdW  Elec       q    Type
REMARK                         _______ _______ _______ _____ _____    ______ ____
ROOT
ATOM      1  C   UNL     1      -9.408  11.752  27.692  0.00  0.00    -0.017 C 
ATOM      2  C   UNL     1     -10.317  12.424  26.638  0.00  0.00    -0.045 C 
ATOM      3  C   UNL     1      -9.854  12.236  25.182  0.00  0.00    -0.022 C 
ATOM      4  C   UNL     1      -9.641  13.545  24.378  0.00  0.00    +0.079 C 
ATOM      5  C   UNL     1     -10.911  14.241  23.877  0.00  0.00    -0.048 C 
ATOM      6  C   UNL     1     -11.015  14.569  22.570  0.00  0.00    -0.082 C 
ATOM      7  C   UNL     1     -12.124  15.309  21.875  0.00  0.00    -0.032 C 
ATOM      8  C   UNL     1     -13.239  14.424  21.279  0.00  0.00    -0.038 C 
ATOM      9  C   UNL     1     -12.717  13.389  20.250  0.00  0.00    -0.020 C 
ATOM     10  C   UNL     1     -12.252  12.069  20.890  0.00  0.00    +0.077 C 
ATOM     11  C   UNL     1     -11.707  11.134  19.844  0.00  0.00    -0.059 C 
ATOM     12  C   UNL     1     -10.403  10.954  19.577  0.00  0.00    -0.082 C 
ATOM     13  C   UNL     1      -9.911   9.895  18.621  0.00  0.00    +0.003 C 
ATOM     14  C   UNL     1      -8.759   9.014  19.164  0.00  0.00    +0.112 C 
ATOM     15  O   UNL     1      -8.977   8.731  20.570  0.00  0.00    -0.458 OA
ATOM     16  C   UNL     1      -9.980   7.902  20.933  0.00  0.00    +0.332 C 
ATOM     17  O   UNL     1     -10.740   7.290  20.206  0.00  0.00    -0.246 OA
ATOM     18  C   UNL     1      -9.979   7.908  22.406  0.00  0.00    +0.022 C 
ATOM     19  C   UNL     1     -11.006   7.467  23.144  0.00  0.00    -0.055 C 
ATOM     20  C   UNL     1     -10.928   7.554  24.581  0.00  0.00    -0.065 C 
ATOM     21  C   UNL     1     -11.819   7.062  25.454  0.00  0.00    -0.081 C 
ATOM     22  C   UNL     1     -11.677   7.055  26.965  0.00  0.00    +0.003 C 
ATOM     23  C   UNL     1     -10.526   7.860  27.636  0.00  0.00    +0.111 C 
ATOM     24  C   UNL     1     -10.741   9.413  27.570  0.00  0.00    +0.020 C 
ATOM     25  C   UNL     1      -9.396  10.194  27.674  0.00  0.00    +0.064 C 
ATOM     26  H   UNL     1      -8.376  12.057  27.462  0.00  0.00    +0.032 HD
ATOM     27  H   UNL     1     -10.372  13.491  26.876  0.00  0.00    +0.027 HD
ATOM     28  H   UNL     1     -11.342  12.054  26.736  0.00  0.00    +0.027 HD
ATOM     29  H   UNL     1      -8.895  11.704  25.182  0.00  0.00    +0.029 HD
ATOM     30  H   UNL     1     -10.562  11.588  24.651  0.00  0.00    +0.029 HD
ATOM     31  H   UNL     1      -9.031  13.254  23.512  0.00  0.00    +0.064 HD
ATOM     32  H   UNL     1     -10.188  14.311  21.904  0.00  0.00    +0.057 HD
ATOM     33  H   UNL     1     -11.668  15.908  21.076  0.00  0.00    +0.031 HD
ATOM     34  H   UNL     1     -12.567  16.049  22.555  0.00  0.00    +0.031 HD
ATOM     35  H   UNL     1     -13.749  13.901  22.099  0.00  0.00    +0.030 HD
ATOM     36  H   UNL     1     -11.909  13.833  19.655  0.00  0.00    +0.030 HD
ATOM     37  H   UNL     1     -13.531  13.151  19.551  0.00  0.00    +0.030 HD
ATOM     38  H   UNL     1     -11.493  12.249  21.654  0.00  0.00    +0.064 HD
ATOM     39  H   UNL     1     -12.451  10.533  19.323  0.00  0.00    +0.059 HD
ATOM     40  H   UNL     1      -9.649  11.552  20.083  0.00  0.00    +0.057 HD
ATOM     41  H   UNL     1      -9.654  10.349  17.661  0.00  0.00    +0.034 HD
ATOM     42  H   UNL     1     -10.751   9.222  18.396  0.00  0.00    +0.034 HD
ATOM     43  H   UNL     1      -8.772   8.063  18.615  0.00  0.00    +0.074 HD
ATOM     44  H   UNL     1      -9.087   8.318  22.873  0.00  0.00    +0.069 HD
ATOM     45  H   UNL     1     -11.892   7.047  22.680  0.00  0.00    +0.062 HD
ATOM     46  H   UNL     1     -10.023   8.034  24.945  0.00  0.00    +0.061 HD
ATOM     47  H   UNL     1     -12.708   6.564  25.074  0.00  0.00    +0.057 HD
ATOM     48  H   UNL     1     -12.637   7.367  27.391  0.00  0.00    +0.034 HD
ATOM     49  H   UNL     1     -11.555   6.000  27.244  0.00  0.00    +0.034 HD
ATOM     50  H   UNL     1     -10.479   7.578  28.697  0.00  0.00    +0.074 HD
ATOM     51  H   UNL     1     -11.175   9.662  26.595  0.00  0.00    +0.036 HD
ATOM     52  H   UNL     1      -8.818   9.921  26.783  0.00  0.00    +0.060 HD
ENDROOT
BRANCH   1  53
ATOM     53  C   UNL     1      -9.671  12.369  29.076  0.00  0.00    -0.060 C 
ATOM     54  H   UNL     1     -10.718  12.685  29.155  0.00  0.00    +0.023 HD
ATOM     55  H   UNL     1      -9.066  13.266  29.238  0.00  0.00    +0.023 HD
ATOM     56  H   UNL     1      -9.481  11.672  29.893  0.00  0.00    +0.023 HD
ENDBRANCH   1  53
BRANCH   5  57
ATOM     57  C   UNL     1     -11.973  14.567  24.891  0.00  0.00    -0.041 C 
ATOM     58  H   UNL     1     -12.751  15.193  24.444  0.00  0.00    +0.028 HD
ATOM     59  H   UNL     1     -12.430  13.649  25.276  0.00  0.00    +0.028 HD
ATOM     60  H   UNL     1     -11.595  15.119  25.755  0.00  0.00    +0.028 HD
ENDBRANCH   5  57
BRANCH  24  61
ATOM     61  C   UNL     1     -11.766   9.814  28.640  0.00  0.00    -0.057 C 
ATOM     62  H   UNL     1     -12.507   9.027  28.808  0.00  0.00    +0.023 HD
ATOM     63  H   UNL     1     -11.282  10.019  29.599  0.00  0.00    +0.023 HD
ATOM     64  H   UNL     1     -12.330  10.699  28.338  0.00  0.00    +0.023 HD
ENDBRANCH  24  61
BRANCH   8  65
ATOM     65  C   UNL     1     -14.277  15.331  20.605  0.00  0.00    -0.062 C 
ATOM     66  H   UNL     1     -15.292  14.948  20.749  0.00  0.00    +0.023 HD
ATOM     67  H   UNL     1     -14.091  15.406  19.528  0.00  0.00    +0.023 HD
ATOM     68  H   UNL     1     -14.234  16.344  21.019  0.00  0.00    +0.023 HD
ENDBRANCH   8  65
BRANCH  14  69
ATOM     69  C   UNL     1      -7.304   9.589  19.077  0.00  0.00    +0.020 C 
ATOM     70  H   UNL     1      -7.232  10.430  19.781  0.00  0.00    +0.036 HD
BRANCH  69  71
ATOM     71  C   UNL     1      -6.344   8.490  19.582  0.00  0.00    -0.057 C 
ATOM     72  H   UNL     1      -6.654   7.493  19.258  0.00  0.00    +0.023 HD
ATOM     73  H   UNL     1      -6.285   8.494  20.676  0.00  0.00    +0.023 HD
ATOM     74  H   UNL     1      -5.327   8.623  19.195  0.00  0.00    +0.023 HD
ENDBRANCH  69  71
BRANCH  69  75
ATOM     75  C   UNL     1      -6.943  10.092  17.653  0.00  0.00    +0.064 C 
ATOM     76  H   UNL     1      -7.344   9.369  16.931  0.00  0.00    +0.060 HD
BRANCH  75  77
ATOM     77  C   UNL     1      -5.435  10.289  17.345  0.00  0.00    -0.017 C 
ATOM     78  H   UNL     1      -4.870   9.788  18.142  0.00  0.00    +0.032 HD
BRANCH  77  79
ATOM     79  C   UNL     1      -5.027   9.536  16.065  0.00  0.00    -0.060 C 
ATOM     80  H   UNL     1      -3.984   9.213  16.073  0.00  0.00    +0.023 HD
ATOM     81  H   UNL     1      -5.158  10.182  15.188  0.00  0.00    +0.023 HD
ATOM     82  H   UNL     1      -5.657   8.652  15.918  0.00  0.00    +0.023 HD
ENDBRANCH  77  79
BRANCH  77  83
ATOM     83  C   UNL     1      -4.937  11.757  17.321  0.00  0.00    -0.045 C 
ATOM     84  H   UNL     1      -5.747  12.353  16.879  0.00  0.00    +0.027 HD
ATOM     85  H   UNL     1      -4.090  11.846  16.632  0.00  0.00    +0.027 HD
BRANCH  83  86
ATOM     86  C   UNL     1      -4.533  12.378  18.664  0.00  0.00    -0.015 C 
ATOM     87  H   UNL     1      -3.482  12.156  18.877  0.00  0.00    +0.030 HD
ATOM     88  H   UNL     1      -5.079  11.898  19.481  0.00  0.00    +0.030 HD
BRANCH  86  89
ATOM     89  C   UNL     1      -4.801  13.897  18.740  0.00  0.00    +0.109 C 
ATOM     90  H   UNL     1      -4.618  14.240  19.768  0.00  0.00    +0.074 HD
BRANCH  89  91
ATOM     91  C   UNL     1      -6.224  14.398  18.343  0.00  0.00    +0.031 C 
ATOM     92  H   UNL     1      -6.816  13.476  18.255  0.00  0.00    +0.037 HD
BRANCH  91  93
ATOM     93  C   UNL     1      -6.199  15.048  16.955  0.00  0.00    -0.056 C 
ATOM     94  H   UNL     1      -5.228  15.508  16.744  0.00  0.00    +0.023 HD
ATOM     95  H   UNL     1      -6.970  15.817  16.852  0.00  0.00    +0.023 HD
ATOM     96  H   UNL     1      -6.354  14.301  16.172  0.00  0.00    +0.023 HD
ENDBRANCH  91  93
BRANCH  91  97
ATOM     97  C   UNL     1      -6.927  15.298  19.406  0.00  0.00    +0.115 C 
ATOM     98  H   UNL     1      -7.169  16.255  18.925  0.00  0.00    +0.074 HD
BRANCH  97  99
ATOM     99  C   UNL     1      -8.223  14.726  20.071  0.00  0.00    +0.013 C 
ATOM    100  H   UNL     1      -8.386  15.303  20.993  0.00  0.00    +0.038 HD
BRANCH  99 101
ATOM    101  C   UNL     1      -8.079  13.278  20.554  0.00  0.00    -0.056 C 
ATOM    102  H   UNL     1      -7.961  13.245  21.644  0.00  0.00    +0.024 HD
ATOM    103  H   UNL     1      -7.194  12.805  20.115  0.00  0.00    +0.024 HD
ATOM    104  H   UNL     1      -8.955  12.671  20.305  0.00  0.00    +0.024 HD
ENDBRANCH  99 101
BRANCH  99 105
ATOM    105  C   UNL     1      -9.471  14.885  19.224  0.00  0.00    -0.064 C 
ATOM    106  C   UNL     1      -9.694  14.136  18.134  0.00  0.00    -0.005 C 
ATOM    107  H   UNL     1     -10.160  15.665  19.522  0.00  0.00    +0.059 HD
ATOM    108  H   UNL     1      -8.957  13.378  17.867  0.00  0.00    +0.078 HD
BRANCH 106 109
ATOM    109  N   UNL     1     -10.783  14.192  17.277  0.00  0.00    -0.284 N 
ATOM    110  C   UNL     1     -11.349  13.105  16.626  0.00  0.00    +0.206 C 
ATOM    111  O   UNL     1     -12.295  13.138  15.846  0.00  0.00    -0.279 OA
ATOM    112  H   UNL     1     -10.862  12.149  16.855  0.00  0.00    +0.126 HD
BRANCH 109 113
ATOM    113  C   UNL     1     -11.354  15.511  17.021  0.00  0.00    +0.007 C 
ATOM    114  H   UNL     1     -12.355  15.447  16.582  0.00  0.00    +0.043 HD
ATOM    115  H   UNL     1     -11.422  16.065  17.964  0.00  0.00    +0.043 HD
ATOM    116  H   UNL     1     -10.703  16.048  16.324  0.00  0.00    +0.043 HD
ENDBRANCH 109 113
ENDBRANCH 106 109
ENDBRANCH  99 105
ENDBRANCH  97  99
BRANCH  97 117
ATOM    117  O   UNL     1      -5.976  15.548  20.476  0.00  0.00    -0.461 OA
BRANCH 117 118
ATOM    118  C   UNL     1      -6.001  16.783  21.045  0.00  0.00    +0.304 C 
ATOM    119  O   UNL     1      -5.788  17.030  22.224  0.00  0.00    -0.251 OA
BRANCH 118 120
ATOM    120  C   UNL     1      -6.324  17.814  20.008  0.00  0.00    +0.033 C 
ATOM    121  H   UNL     1      -5.500  18.531  19.942  0.00  0.00    +0.034 HD
ATOM    122  H   UNL     1      -6.445  17.334  19.033  0.00  0.00    +0.034 HD
ATOM    123  H   UNL     1      -7.234  18.349  20.290  0.00  0.00    +0.034 HD
ENDBRANCH 118 120
ENDBRANCH 117 118
ENDBRANCH  97 117
ENDBRANCH  91  97
ENDBRANCH  89  91
BRANCH  89 124
ATOM    124  O   UNL     1      -3.839  14.574  17.888  0.00  0.00    -0.460 OA
BRANCH 124 125
ATOM    125  C   UNL     1      -3.130  15.586  18.472  0.00  0.00    +0.324 C 
ATOM    126  O   UNL     1      -3.407  16.776  18.374  0.00  0.00    -0.249 OA
BRANCH 125 127
ATOM    127  C   UNL     1      -1.956  15.004  19.281  0.00  0.00    +0.105 C 
ATOM    128  H   UNL     1      -1.935  13.916  19.133  0.00  0.00    +0.058 HD
BRANCH 127 129
ATOM    129  C   UNL     1      -2.278  15.293  20.751  0.00  0.00    -0.039 C 
ATOM    130  H   UNL     1      -1.367  15.332  21.357  0.00  0.00    +0.025 HD
ATOM    131  H   UNL     1      -2.943  14.533  21.175  0.00  0.00    +0.025 HD
ATOM    132  H   UNL     1      -2.780  16.262  20.858  0.00  0.00    +0.025 HD
ENDBRANCH 127 129
BRANCH 127 133
ATOM    133  N   UNL     1      -0.661  15.589  18.829  0.00  0.00    -0.296 NA
BRANCH 133 134
ATOM    134  C   UNL     1       0.373  15.519  19.865  0.00  0.00    -0.012 C 
ATOM    135  H   UNL     1      -0.026  15.854  20.829  0.00  0.00    +0.039 HD
ATOM    136  H   UNL     1       1.242  16.139  19.619  0.00  0.00    +0.039 HD
ATOM    137  H   UNL     1       0.707  14.490  20.023  0.00  0.00    +0.039 HD
ENDBRANCH 133 134
BRANCH 133 138
ATOM    138  C   UNL     1      -0.172  14.919  17.616  0.00  0.00    -0.012 C 
ATOM    139  H   UNL     1       0.599  15.525  17.127  0.00  0.00    +0.039 HD
ATOM    140  H   UNL     1       0.253  13.934  17.836  0.00  0.00    +0.039 HD
ATOM    141  H   UNL     1      -0.968  14.795  16.875  0.00  0.00    +0.039 HD
ENDBRANCH 133 138
ENDBRANCH 127 133
ENDBRANCH 125 127
ENDBRANCH 124 125
ENDBRANCH  89 124
ENDBRANCH  86  89
ENDBRANCH  83  86
ENDBRANCH  77  83
ENDBRANCH  75  77
BRANCH  75 142
ATOM    142  O   UNL     1      -7.633  11.325  17.442  0.00  0.00    -0.391 OA
ATOM    143  H   UNL     1      -6.984  11.991  17.161  0.00  0.00    +0.210 HD
ENDBRANCH  75 142
ENDBRANCH  69  75
ENDBRANCH  14  69
BRANCH  25 144
ATOM    144  O   UNL     1      -8.626   9.713  28.782  0.00  0.00    -0.391 OA
ATOM    145  H   UNL     1      -8.207  10.472  29.216  0.00  0.00    +0.210 HD
ENDBRANCH  25 144
BRANCH  23 146
ATOM    146  O   UNL     1      -9.280   7.508  27.004  0.00  0.00    -0.460 OA
BRANCH 146 147
ATOM    147  C   UNL     1      -8.561   6.481  27.524  0.00  0.00    +0.327 C 
ATOM    148  O   UNL     1      -7.525   6.035  27.039  0.00  0.00    -0.249 OA
BRANCH 147 149
ATOM    149  C   UNL     1      -9.159   5.986  28.849  0.00  0.00    +0.131 C 
ATOM    150  H   UNL     1     -10.104   6.537  28.965  0.00  0.00    +0.060 HD
BRANCH 149 151
ATOM    151  C   UNL     1      -8.243   6.457  30.006  0.00  0.00    +0.073 C 
ATOM    152  H   UNL     1      -8.173   5.676  30.776  0.00  0.00    +0.058 HD
ATOM    153  H   UNL     1      -7.233   6.634  29.614  0.00  0.00    +0.058 HD
BRANCH 151 154
ATOM    154  O   UNL     1      -8.702   7.674  30.612  0.00  0.00    -0.381 OA
BRANCH 154 155
ATOM    155  C   UNL     1      -9.945   7.481  31.274  0.00  0.00    +0.037 C 
ATOM    156  H   UNL     1     -10.724   8.090  30.806  0.00  0.00    +0.052 HD
ATOM    157  H   UNL     1     -10.227   6.425  31.258  0.00  0.00    +0.052 HD
ATOM    158  H   UNL     1      -9.832   7.799  32.314  0.00  0.00    +0.052 HD
ENDBRANCH 154 155
ENDBRANCH 151 154
ENDBRANCH 149 151
BRANCH 149 159
ATOM    159  N   UNL     1      -9.458   4.519  28.790  0.00  0.00    -0.294 NA
BRANCH 159 160
ATOM    160  C   UNL     1      -9.920   4.119  27.456  0.00  0.00    -0.012 C 
ATOM    161  H   UNL     1     -10.666   3.316  27.503  0.00  0.00    +0.039 HD
ATOM    162  H   UNL     1      -9.080   3.767  26.845  0.00  0.00    +0.039 HD
ATOM    163  H   UNL     1     -10.350   4.964  26.910  0.00  0.00    +0.039 HD
ENDBRANCH 159 160
BRANCH 159 164
ATOM    164  C   UNL     1     -10.449   4.120  29.790  0.00  0.00    -0.012 C 
ATOM    165  H   UNL     1     -11.365   3.760  29.304  0.00  0.00    +0.039 HD
ATOM    166  H   UNL     1     -10.093   3.284  30.401  0.00  0.00    +0.039 HD
ATOM    167  H   UNL     1     -10.720   4.948  30.455  0.00  0.00    +0.039 HD
ENDBRANCH 159 164
ENDBRANCH 149 159
ENDBRANCH 147 149
ENDBRANCH 146 147
ENDBRANCH  23 146
BRANCH   4 168
ATOM    168  O   UNL     1      -8.856  14.442  25.182  0.00  0.00    -0.376 OA
BRANCH 168 169
ATOM    169  C   UNL     1      -7.539  14.640  24.680  0.00  0.00    +0.037 C 
ATOM    170  H   UNL     1      -6.836  14.235  25.411  0.00  0.00    +0.052 HD
ATOM    171  H   UNL     1      -7.325  15.705  24.561  0.00  0.00    +0.052 HD
ATOM    172  H   UNL     1      -7.396  14.115  23.734  0.00  0.00    +0.052 HD
ENDBRANCH 168 169
ENDBRANCH   4 168
BRANCH  10 173
ATOM    173  O   UNL     1     -13.403  11.462  21.497  0.00  0.00    -0.376 OA
BRANCH 173 174
ATOM    174  C   UNL     1     -13.162  11.007  22.820  0.00  0.00    +0.037 C 
ATOM    175  H   UNL     1     -13.230  11.835  23.529  0.00  0.00    +0.052 HD
ATOM    176  H   UNL     1     -12.148  10.599  22.865  0.00  0.00    +0.052 HD
ATOM    177  H   UNL     1     -13.864  10.213  23.088  0.00  0.00    +0.052 HD
ENDBRANCH 173 174
ENDBRANCH  10 173
TORSDOF 45
ENDMDL
MODEL 7
REMARK VINA RESULT:      -4.7      1.886      2.849
REMARK  Name = Aplyronine A_conf3
REMARK  45 active torsions:
REMARK  status: ('A' for Active; 'I' for Inactive)
REMARK    1  A    between atoms: C_1  and  C_2
REMARK    2  A    between atoms: C_5  and  O_75
REMARK    3  A    between atoms: C_6  and  C_74
REMARK    4  A    between atoms: C_9  and  C_73
REMARK    5  A    between atoms: C_11  and  O_71
REMARK    6  A    between atoms: C_15  and  C_39
REMARK    7  A    between atoms: C_24  and  O_29
REMARK    8  A    between atoms: C_25  and  C_28
REMARK    9  A    between atoms: C_26  and  O_27
REMARK   10  A    between atoms: O_29  and  C_30
REMARK   11  A    between atoms: C_30  and  C_32
REMARK   12  A    between atoms: C_32  and  C_33
REMARK   13  A    between atoms: C_32  and  N_36
REMARK   14  A    between atoms: C_33  and  O_34
REMARK   15  A    between atoms: O_34  and  C_35
REMARK   16  A    between atoms: N_36  and  C_37
REMARK   17  A    between atoms: N_36  and  C_38
REMARK   18  A    between atoms: C_39  and  C_40
REMARK   19  A    between atoms: C_39  and  C_41
REMARK   20  A    between atoms: C_41  and  C_42
REMARK   21  A    between atoms: C_41  and  O_70
REMARK   22  A    between atoms: C_42  and  C_43
REMARK   23  A    between atoms: C_42  and  C_44
REMARK   24  A    between atoms: C_44  and  C_45
REMARK   25  A    between atoms: C_45  and  C_46
REMARK   26  A    between atoms: C_46  and  C_47
REMARK   27  A    between atoms: C_46  and  O_62
REMARK   28  A    between atoms: C_47  and  C_48
REMARK   29  A    between atoms: C_47  and  C_49
REMARK   30  A    between atoms: C_49  and  C_50
REMARK   31  A    between atoms: C_49  and  O_58
REMARK   32  A    between atoms: C_50  and  C_51
REMARK   33  A    between atoms: C_50  and  C_52
REMARK   34  A    between atoms: C_53  and  N_54
REMARK   35  A    between atoms: N_54  and  C_55
REMARK   36  A    between atoms: O_58  and  C_59
REMARK   37  A    between atoms: C_59  and  C_61
REMARK   38  A    between atoms: O_62  and  C_63
REMARK   39  A    between atoms: C_63  and  C_65
REMARK   40  A    between atoms: C_65  and  C_66
REMARK   41  A    between atoms: C_65  and  N_67
REMARK   42  A    between atoms: N_67  and  C_68
REMARK   43  A    between atoms: N_67  and  C_69
REMARK   44  A    between atoms: O_71  and  C_72
REMARK   45  A    between atoms: O_75  and  C_76
REMARK                            x       y       z     vdW  Elec       q    Type
REMARK                         _______ _______ _______ _____ _____    ______ ____
ROOT
ATOM      1  C   UNL     1     -10.147  10.786  27.162  0.00  0.00    -0.017 C 
ATOM      2  C   UNL     1     -10.726  11.729  26.084  0.00  0.00    -0.045 C 
ATOM      3  C   UNL     1     -10.102  11.563  24.686  0.00  0.00    -0.022 C 
ATOM      4  C   UNL     1      -9.501  12.852  24.069  0.00  0.00    +0.079 C 
ATOM      5  C   UNL     1     -10.506  13.854  23.492  0.00  0.00    -0.048 C 
ATOM      6  C   UNL     1     -10.342  14.303  22.227  0.00  0.00    -0.082 C 
ATOM      7  C   UNL     1     -11.155  15.328  21.485  0.00  0.00    -0.032 C 
ATOM      8  C   UNL     1     -12.330  14.768  20.656  0.00  0.00    -0.038 C 
ATOM      9  C   UNL     1     -11.890  13.730  19.592  0.00  0.00    -0.020 C 
ATOM     10  C   UNL     1     -11.815  12.292  20.133  0.00  0.00    +0.077 C 
ATOM     11  C   UNL     1     -11.330  11.347  19.066  0.00  0.00    -0.059 C 
ATOM     12  C   UNL     1     -10.068  10.901  18.948  0.00  0.00    -0.082 C 
ATOM     13  C   UNL     1      -9.674   9.841  17.949  0.00  0.00    +0.003 C 
ATOM     14  C   UNL     1      -8.828   8.682  18.532  0.00  0.00    +0.112 C 
ATOM     15  O   UNL     1      -9.307   8.341  19.858  0.00  0.00    -0.458 OA
ATOM     16  C   UNL     1     -10.505   7.731  19.995  0.00  0.00    +0.332 C 
ATOM     17  O   UNL     1     -11.260   7.368  19.112  0.00  0.00    -0.246 OA
ATOM     18  C   UNL     1     -10.723   7.616  21.447  0.00  0.00    +0.022 C 
ATOM     19  C   UNL     1     -11.918   7.358  21.994  0.00  0.00    -0.055 C 
ATOM     20  C   UNL     1     -12.038   7.307  23.429  0.00  0.00    -0.065 C 
ATOM     21  C   UNL     1     -13.132   6.958  24.120  0.00  0.00    -0.081 C 
ATOM     22  C   UNL     1     -13.222   6.795  25.627  0.00  0.00    +0.003 C 
ATOM     23  C   UNL     1     -12.040   7.263  26.525  0.00  0.00    +0.111 C 
ATOM     24  C   UNL     1     -11.910   8.824  26.608  0.00  0.00    +0.020 C 
ATOM     25  C   UNL     1     -10.461   9.272  26.970  0.00  0.00    +0.064 C 
ATOM     26  H   UNL     1      -9.051  10.869  27.101  0.00  0.00    +0.032 HD
ATOM     27  H   UNL     1     -10.590  12.757  26.431  0.00  0.00    +0.027 HD
ATOM     28  H   UNL     1     -11.809  11.593  26.008  0.00  0.00    +0.027 HD
ATOM     29  H   UNL     1      -9.288  10.830  24.749  0.00  0.00    +0.029 HD
ATOM     30  H   UNL     1     -10.844  11.135  24.000  0.00  0.00    +0.029 HD
ATOM     31  H   UNL     1      -8.844  12.503  23.260  0.00  0.00    +0.064 HD
ATOM     32  H   UNL     1      -9.499  13.921  21.648  0.00  0.00    +0.057 HD
ATOM     33  H   UNL     1     -10.468  15.872  20.823  0.00  0.00    +0.031 HD
ATOM     34  H   UNL     1     -11.527  16.090  22.182  0.00  0.00    +0.031 HD
ATOM     35  H   UNL     1     -13.054  14.308  21.340  0.00  0.00    +0.030 HD
ATOM     36  H   UNL     1     -10.928  14.029  19.159  0.00  0.00    +0.030 HD
ATOM     37  H   UNL     1     -12.623  13.740  18.772  0.00  0.00    +0.030 HD
ATOM     38  H   UNL     1     -11.157  12.233  21.003  0.00  0.00    +0.064 HD
ATOM     39  H   UNL     1     -12.097  10.973  18.390  0.00  0.00    +0.059 HD
ATOM     40  H   UNL     1      -9.288  11.271  19.611  0.00  0.00    +0.057 HD
ATOM     41  H   UNL     1      -9.186  10.303  17.087  0.00  0.00    +0.034 HD
ATOM     42  H   UNL     1     -10.594   9.395  17.545  0.00  0.00    +0.034 HD
ATOM     43  H   UNL     1      -8.959   7.807  17.882  0.00  0.00    +0.074 HD
ATOM     44  H   UNL     1      -9.844   7.775  22.066  0.00  0.00    +0.069 HD
ATOM     45  H   UNL     1     -12.793   7.187  21.376  0.00  0.00    +0.062 HD
ATOM     46  H   UNL     1     -11.117   7.539  23.958  0.00  0.00    +0.061 HD
ATOM     47  H   UNL     1     -14.040   6.705  23.577  0.00  0.00    +0.057 HD
ATOM     48  H   UNL     1     -14.147   7.278  25.960  0.00  0.00    +0.034 HD
ATOM     49  H   UNL     1     -13.368   5.720  25.798  0.00  0.00    +0.034 HD
ATOM     50  H   UNL     1     -12.212   6.892  27.545  0.00  0.00    +0.074 HD
ATOM     51  H   UNL     1     -12.132   9.244  25.620  0.00  0.00    +0.036 HD
ATOM     52  H   UNL     1      -9.828   8.950  26.135  0.00  0.00    +0.060 HD
ENDROOT
BRANCH   1  53
ATOM     53  C   UNL     1     -10.477  11.330  28.562  0.00  0.00    -0.060 C 
ATOM     54  H   UNL     1     -10.420  12.426  28.563  0.00  0.00    +0.023 HD
ATOM     55  H   UNL     1      -9.756  10.984  29.308  0.00  0.00    +0.023 HD
ATOM     56  H   UNL     1     -11.478  11.059  28.897  0.00  0.00    +0.023 HD
ENDBRANCH   1  53
BRANCH   5  57
ATOM     57  C   UNL     1     -11.614  14.326  24.393  0.00  0.00    -0.041 C 
ATOM     58  H   UNL     1     -11.588  13.791  25.346  0.00  0.00    +0.028 HD
ATOM     59  H   UNL     1     -11.521  15.401  24.582  0.00  0.00    +0.028 HD
ATOM     60  H   UNL     1     -12.611  14.162  23.977  0.00  0.00    +0.028 HD
ENDBRANCH   5  57
BRANCH  24  61
ATOM     61  C   UNL     1     -12.975   9.356  27.578  0.00  0.00    -0.057 C 
ATOM     62  H   UNL     1     -13.972   8.977  27.334  0.00  0.00    +0.023 HD
ATOM     63  H   UNL     1     -12.757   9.066  28.608  0.00  0.00    +0.023 HD
ATOM     64  H   UNL     1     -13.048  10.445  27.530  0.00  0.00    +0.023 HD
ENDBRANCH  24  61
BRANCH   8  65
ATOM     65  C   UNL     1     -13.041  15.937  19.962  0.00  0.00    -0.062 C 
ATOM     66  H   UNL     1     -14.005  15.626  19.549  0.00  0.00    +0.023 HD
ATOM     67  H   UNL     1     -12.431  16.336  19.144  0.00  0.00    +0.023 HD
ATOM     68  H   UNL     1     -13.221  16.755  20.668  0.00  0.00    +0.023 HD
ENDBRANCH   8  65
BRANCH  14  69
ATOM     69  C   UNL     1      -7.287   8.920  18.696  0.00  0.00    +0.020 C 
ATOM     70  H   UNL     1      -7.143   9.947  19.061  0.00  0.00    +0.036 HD
BRANCH  69  71
ATOM     71  C   UNL     1      -6.790   7.969  19.806  0.00  0.00    -0.057 C 
ATOM     72  H   UNL     1      -6.676   8.481  20.765  0.00  0.00    +0.023 HD
ATOM     73  H   UNL     1      -5.827   7.522  19.536  0.00  0.00    +0.023 HD
ATOM     74  H   UNL     1      -7.495   7.150  19.991  0.00  0.00    +0.023 HD
ENDBRANCH  69  71
BRANCH  69  75
ATOM     75  C   UNL     1      -6.509   8.745  17.364  0.00  0.00    +0.064 C 
ATOM     76  H   UNL     1      -6.204   7.693  17.290  0.00  0.00    +0.060 HD
BRANCH  75  77
ATOM     77  C   UNL     1      -5.244   9.624  17.175  0.00  0.00    -0.017 C 
ATOM     78  H   UNL     1      -4.375   9.006  17.434  0.00  0.00    +0.032 HD
BRANCH  77  79
ATOM     79  C   UNL     1      -5.029   9.975  15.691  0.00  0.00    -0.060 C 
ATOM     80  H   UNL     1      -4.120   9.535  15.276  0.00  0.00    +0.023 HD
ATOM     81  H   UNL     1      -4.949  11.062  15.567  0.00  0.00    +0.023 HD
ATOM     82  H   UNL     1      -5.878   9.637  15.087  0.00  0.00    +0.023 HD
ENDBRANCH  77  79
BRANCH  77  83
ATOM     83  C   UNL     1      -5.159  10.886  18.073  0.00  0.00    -0.045 C 
ATOM     84  H   UNL     1      -4.090  11.092  18.218  0.00  0.00    +0.027 HD
ATOM     85  H   UNL     1      -5.558  10.656  19.067  0.00  0.00    +0.027 HD
BRANCH  83  86
ATOM     86  C   UNL     1      -5.849  12.155  17.558  0.00  0.00    -0.015 C 
ATOM     87  H   UNL     1      -6.889  11.935  17.298  0.00  0.00    +0.030 HD
ATOM     88  H   UNL     1      -5.398  12.473  16.614  0.00  0.00    +0.030 HD
BRANCH  86  89
ATOM     89  C   UNL     1      -5.767  13.338  18.547  0.00  0.00    +0.109 C 
ATOM     90  H   UNL     1      -5.676  12.942  19.569  0.00  0.00    +0.074 HD
BRANCH  89  91
ATOM     91  C   UNL     1      -6.955  14.350  18.559  0.00  0.00    +0.031 C 
ATOM     92  H   UNL     1      -6.490  15.304  18.844  0.00  0.00    +0.037 HD
BRANCH  91  93
ATOM     93  C   UNL     1      -7.955  13.993  19.665  0.00  0.00    -0.056 C 
ATOM     94  H   UNL     1      -8.830  14.653  19.644  0.00  0.00    +0.023 HD
ATOM     95  H   UNL     1      -7.503  14.058  20.659  0.00  0.00    +0.023 HD
ATOM     96  H   UNL     1      -8.341  12.980  19.529  0.00  0.00    +0.023 HD
ENDBRANCH  91  93
BRANCH  91  97
ATOM     97  C   UNL     1      -7.649  14.568  17.179  0.00  0.00    +0.115 C 
ATOM     98  H   UNL     1      -7.149  13.917  16.448  0.00  0.00    +0.074 HD
BRANCH  97  99
ATOM     99  C   UNL     1      -9.191  14.306  17.114  0.00  0.00    +0.013 C 
ATOM    100  H   UNL     1      -9.481  13.890  18.090  0.00  0.00    +0.038 HD
BRANCH  99 101
ATOM    101  C   UNL     1      -9.588  13.219  16.109  0.00  0.00    -0.056 C 
ATOM    102  H   UNL     1     -10.489  13.513  15.559  0.00  0.00    +0.024 HD
ATOM    103  H   UNL     1      -9.810  12.276  16.619  0.00  0.00    +0.024 HD
ATOM    104  H   UNL     1      -8.803  13.035  15.369  0.00  0.00    +0.024 HD
ENDBRANCH  99 101
BRANCH  99 105
ATOM    105  C   UNL     1     -10.020  15.558  16.902  0.00  0.00    -0.064 C 
ATOM    106  C   UNL     1     -11.263  15.514  16.400  0.00  0.00    -0.005 C 
ATOM    107  H   UNL     1      -9.542  16.500  17.142  0.00  0.00    +0.059 HD
ATOM    108  H   UNL     1     -11.689  14.541  16.156  0.00  0.00    +0.078 HD
BRANCH 106 109
ATOM    109  N   UNL     1     -12.113  16.581  16.150  0.00  0.00    -0.284 N 
ATOM    110  C   UNL     1     -12.133  17.775  16.858  0.00  0.00    +0.206 C 
ATOM    111  O   UNL     1     -12.893  18.719  16.668  0.00  0.00    -0.279 OA
ATOM    112  H   UNL     1     -11.386  17.826  17.660  0.00  0.00    +0.126 HD
BRANCH 109 113
ATOM    113  C   UNL     1     -13.084  16.413  15.072  0.00  0.00    +0.007 C 
ATOM    114  H   UNL     1     -12.818  16.997  14.186  0.00  0.00    +0.043 HD
ATOM    115  H   UNL     1     -13.132  15.355  14.790  0.00  0.00    +0.043 HD
ATOM    116  H   UNL     1     -14.065  16.745  15.425  0.00  0.00    +0.043 HD
ENDBRANCH 109 113
ENDBRANCH 106 109
ENDBRANCH  99 105
ENDBRANCH  97  99
BRANCH  97 117
ATOM    117  O   UNL     1      -7.437  15.950  16.787  0.00  0.00    -0.461 OA
BRANCH 117 118
ATOM    118  C   UNL     1      -6.218  16.263  16.270  0.00  0.00    +0.304 C 
ATOM    119  O   UNL     1      -5.647  15.659  15.372  0.00  0.00    -0.251 OA
BRANCH 118 120
ATOM    120  C   UNL     1      -5.668  17.472  16.960  0.00  0.00    +0.033 C 
ATOM    121  H   UNL     1      -5.768  18.341  16.303  0.00  0.00    +0.034 HD
ATOM    122  H   UNL     1      -6.232  17.664  17.877  0.00  0.00    +0.034 HD
ATOM    123  H   UNL     1      -4.609  17.320  17.184  0.00  0.00    +0.034 HD
ENDBRANCH 118 120
ENDBRANCH 117 118
ENDBRANCH  97 117
ENDBRANCH  91  97
ENDBRANCH  89  91
BRANCH  89 124
ATOM    124  O   UNL     1      -4.553  14.083  18.269  0.00  0.00    -0.460 OA
BRANCH 124 125
ATOM    125  C   UNL     1      -3.653  14.168  19.294  0.00  0.00    +0.324 C 
ATOM    126  O   UNL     1      -3.734  13.542  20.345  0.00  0.00    -0.249 OA
BRANCH 125 127
ATOM    127  C   UNL     1      -2.521  15.142  18.917  0.00  0.00    +0.105 C 
ATOM    128  H   UNL     1      -2.664  16.078  19.473  0.00  0.00    +0.058 HD
BRANCH 127 129
ATOM    129  C   UNL     1      -2.697  15.427  17.421  0.00  0.00    -0.039 C 
ATOM    130  H   UNL     1      -1.949  16.143  17.062  0.00  0.00    +0.025 HD
ATOM    131  H   UNL     1      -3.692  15.828  17.202  0.00  0.00    +0.025 HD
ATOM    132  H   UNL     1      -2.576  14.511  16.832  0.00  0.00    +0.025 HD
ENDBRANCH 127 129
BRANCH 127 133
ATOM    133  N   UNL     1      -1.189  14.564  19.260  0.00  0.00    -0.296 NA
BRANCH 133 134
ATOM    134  C   UNL     1      -0.367  14.316  18.073  0.00  0.00    -0.012 C 
ATOM    135  H   UNL     1       0.695  14.293  18.338  0.00  0.00    +0.039 HD
ATOM    136  H   UNL     1      -0.513  15.085  17.306  0.00  0.00    +0.039 HD
ATOM    137  H   UNL     1      -0.585  13.337  17.637  0.00  0.00    +0.039 HD
ENDBRANCH 133 134
BRANCH 133 138
ATOM    138  C   UNL     1      -0.454  15.440  20.181  0.00  0.00    -0.012 C 
ATOM    139  H   UNL     1      -1.084  15.717  21.033  0.00  0.00    +0.039 HD
ATOM    140  H   UNL     1       0.452  14.959  20.567  0.00  0.00    +0.039 HD
ATOM    141  H   UNL     1      -0.168  16.381  19.702  0.00  0.00    +0.039 HD
ENDBRANCH 133 138
ENDBRANCH 127 133
ENDBRANCH 125 127
ENDBRANCH 124 125
ENDBRANCH  89 124
ENDBRANCH  86  89
ENDBRANCH  83  86
ENDBRANCH  77  83
ENDBRANCH  75  77
BRANCH  75 142
ATOM    142  O   UNL     1      -7.423   8.996  16.294  0.00  0.00    -0.391 OA
ATOM    143  H   UNL     1      -8.100   9.615  16.613  0.00  0.00    +0.210 HD
ENDBRANCH  75 142
ENDBRANCH  69  75
ENDBRANCH  14  69
BRANCH  25 144
ATOM    144  O   UNL     1      -9.984   8.541  28.105  0.00  0.00    -0.391 OA
ATOM    145  H   UNL     1     -10.569   8.725  28.857  0.00  0.00    +0.210 HD
ENDBRANCH  25 144
BRANCH  23 146
ATOM    146  O   UNL     1     -10.817   6.693  26.021  0.00  0.00    -0.460 OA
BRANCH 146 147
ATOM    147  C   UNL     1     -10.593   5.369  26.218  0.00  0.00    +0.327 C 
ATOM    148  O   UNL     1     -10.560   4.524  25.328  0.00  0.00    -0.249 OA
BRANCH 147 149
ATOM    149  C   UNL     1     -10.305   5.058  27.695  0.00  0.00    +0.131 C 
ATOM    150  H   UNL     1     -10.664   5.935  28.251  0.00  0.00    +0.060 HD
BRANCH 149 151
ATOM    151  C   UNL     1      -8.769   5.021  27.897  0.00  0.00    +0.073 C 
ATOM    152  H   UNL     1      -8.492   4.174  28.539  0.00  0.00    +0.058 HD
ATOM    153  H   UNL     1      -8.284   4.878  26.923  0.00  0.00    +0.058 HD
BRANCH 151 154
ATOM    154  O   UNL     1      -8.260   6.233  28.471  0.00  0.00    -0.381 OA
BRANCH 154 155
ATOM    155  C   UNL     1      -8.203   6.145  29.889  0.00  0.00    +0.037 C 
ATOM    156  H   UNL     1      -8.248   7.143  30.334  0.00  0.00    +0.052 HD
ATOM    157  H   UNL     1      -9.019   5.522  30.267  0.00  0.00    +0.052 HD
ATOM    158  H   UNL     1      -7.251   5.684  30.166  0.00  0.00    +0.052 HD
ENDBRANCH 154 155
ENDBRANCH 151 154
ENDBRANCH 149 151
BRANCH 149 159
ATOM    159  N   UNL     1     -11.066   3.850  28.149  0.00  0.00    -0.294 NA
BRANCH 159 160
ATOM    160  C   UNL     1     -12.485   4.157  28.358  0.00  0.00    -0.012 C 
ATOM    161  H   UNL     1     -13.047   4.171  27.415  0.00  0.00    +0.039 HD
ATOM    162  H   UNL     1     -12.603   5.136  28.837  0.00  0.00    +0.039 HD
ATOM    163  H   UNL     1     -12.956   3.438  29.034  0.00  0.00    +0.039 HD
ENDBRANCH 159 160
BRANCH 159 164
ATOM    164  C   UNL     1     -10.505   3.276  29.373  0.00  0.00    -0.012 C 
ATOM    165  H   UNL     1     -10.785   3.880  30.245  0.00  0.00    +0.039 HD
ATOM    166  H   UNL     1     -10.903   2.275  29.569  0.00  0.00    +0.039 HD
ATOM    167  H   UNL     1      -9.412   3.216  29.336  0.00  0.00    +0.039 HD
ENDBRANCH 159 164
ENDBRANCH 149 159
ENDBRANCH 147 149
ENDBRANCH 146 147
ENDBRANCH  23 146
BRANCH   4 168
ATOM    168  O   UNL     1      -8.673  13.480  25.062  0.00  0.00    -0.376 OA
BRANCH 168 169
ATOM    169  C   UNL     1      -7.459  14.004  24.533  0.00  0.00    +0.037 C 
ATOM    170  H   UNL     1      -7.636  14.273  23.489  0.00  0.00    +0.052 HD
ATOM    171  H   UNL     1      -6.668  13.252  24.558  0.00  0.00    +0.052 HD
ATOM    172  H   UNL     1      -7.151  14.901  25.074  0.00  0.00    +0.052 HD
ENDBRANCH 168 169
ENDBRANCH   4 168
BRANCH  10 173
ATOM    173  O   UNL     1     -13.145  11.911  20.516  0.00  0.00    -0.376 OA
BRANCH 173 174
ATOM    174  C   UNL     1     -13.202  11.286  21.790  0.00  0.00    +0.037 C 
ATOM    175  H   UNL     1     -13.503  10.241  21.691  0.00  0.00    +0.052 HD
ATOM    176  H   UNL     1     -13.952  11.804  22.394  0.00  0.00    +0.052 HD
ATOM    177  H   UNL     1     -12.237  11.362  22.300  0.00  0.00    +0.052 HD
ENDBRANCH 173 174
ENDBRANCH  10 173
TORSDOF 45
ENDMDL
MODEL 8
REMARK VINA RESULT:      -4.7      4.109      6.518
REMARK  Name = Aplyronine A_conf3
REMARK  45 active torsions:
REMARK  status: ('A' for Active; 'I' for Inactive)
REMARK    1  A    between atoms: C_1  and  C_2
REMARK    2  A    between atoms: C_5  and  O_75
REMARK    3  A    between atoms: C_6  and  C_74
REMARK    4  A    between atoms: C_9  and  C_73
REMARK    5  A    between atoms: C_11  and  O_71
REMARK    6  A    between atoms: C_15  and  C_39
REMARK    7  A    between atoms: C_24  and  O_29
REMARK    8  A    between atoms: C_25  and  C_28
REMARK    9  A    between atoms: C_26  and  O_27
REMARK   10  A    between atoms: O_29  and  C_30
REMARK   11  A    between atoms: C_30  and  C_32
REMARK   12  A    between atoms: C_32  and  C_33
REMARK   13  A    between atoms: C_32  and  N_36
REMARK   14  A    between atoms: C_33  and  O_34
REMARK   15  A    between atoms: O_34  and  C_35
REMARK   16  A    between atoms: N_36  and  C_37
REMARK   17  A    between atoms: N_36  and  C_38
REMARK   18  A    between atoms: C_39  and  C_40
REMARK   19  A    between atoms: C_39  and  C_41
REMARK   20  A    between atoms: C_41  and  C_42
REMARK   21  A    between atoms: C_41  and  O_70
REMARK   22  A    between atoms: C_42  and  C_43
REMARK   23  A    between atoms: C_42  and  C_44
REMARK   24  A    between atoms: C_44  and  C_45
REMARK   25  A    between atoms: C_45  and  C_46
REMARK   26  A    between atoms: C_46  and  C_47
REMARK   27  A    between atoms: C_46  and  O_62
REMARK   28  A    between atoms: C_47  and  C_48
REMARK   29  A    between atoms: C_47  and  C_49
REMARK   30  A    between atoms: C_49  and  C_50
REMARK   31  A    between atoms: C_49  and  O_58
REMARK   32  A    between atoms: C_50  and  C_51
REMARK   33  A    between atoms: C_50  and  C_52
REMARK   34  A    between atoms: C_53  and  N_54
REMARK   35  A    between atoms: N_54  and  C_55
REMARK   36  A    between atoms: O_58  and  C_59
REMARK   37  A    between atoms: C_59  and  C_61
REMARK   38  A    between atoms: O_62  and  C_63
REMARK   39  A    between atoms: C_63  and  C_65
REMARK   40  A    between atoms: C_65  and  C_66
REMARK   41  A    between atoms: C_65  and  N_67
REMARK   42  A    between atoms: N_67  and  C_68
REMARK   43  A    between atoms: N_67  and  C_69
REMARK   44  A    between atoms: O_71  and  C_72
REMARK   45  A    between atoms: O_75  and  C_76
REMARK                            x       y       z     vdW  Elec       q    Type
REMARK                         _______ _______ _______ _____ _____    ______ ____
ROOT
ATOM      1  C   UNL     1     -10.226   3.627  25.604  0.00  0.00    -0.017 C 
ATOM      2  C   UNL     1     -10.824   5.051  25.634  0.00  0.00    -0.045 C 
ATOM      3  C   UNL     1     -10.214   6.022  24.606  0.00  0.00    -0.022 C 
ATOM      4  C   UNL     1      -9.628   7.331  25.195  0.00  0.00    +0.079 C 
ATOM      5  C   UNL     1     -10.646   8.405  25.593  0.00  0.00    -0.048 C 
ATOM      6  C   UNL     1     -10.500   9.664  25.124  0.00  0.00    -0.082 C 
ATOM      7  C   UNL     1     -11.327  10.881  25.433  0.00  0.00    -0.032 C 
ATOM      8  C   UNL     1     -12.507  11.141  24.473  0.00  0.00    -0.038 C 
ATOM      9  C   UNL     1     -12.073  11.294  22.993  0.00  0.00    -0.020 C 
ATOM     10  C   UNL     1     -11.982   9.956  22.240  0.00  0.00    +0.077 C 
ATOM     11  C   UNL     1     -11.502  10.171  20.829  0.00  0.00    -0.059 C 
ATOM     12  C   UNL     1     -10.239   9.991  20.409  0.00  0.00    -0.082 C 
ATOM     13  C   UNL     1      -9.849  10.079  18.954  0.00  0.00    +0.003 C 
ATOM     14  C   UNL     1      -8.989   8.898  18.440  0.00  0.00    +0.112 C 
ATOM     15  O   UNL     1      -9.451   7.657  19.032  0.00  0.00    -0.458 OA
ATOM     16  C   UNL     1     -10.644   7.145  18.656  0.00  0.00    +0.332 C 
ATOM     17  O   UNL     1     -11.405   7.578  17.811  0.00  0.00    -0.246 OA
ATOM     18  C   UNL     1     -10.844   5.957  19.502  0.00  0.00    +0.022 C 
ATOM     19  C   UNL     1     -12.031   5.357  19.659  0.00  0.00    -0.055 C 
ATOM     20  C   UNL     1     -12.135   4.223  20.543  0.00  0.00    -0.065 C 
ATOM     21  C   UNL     1     -13.219   3.455  20.722  0.00  0.00    -0.081 C 
ATOM     22  C   UNL     1     -13.291   2.196  21.566  0.00  0.00    +0.003 C 
ATOM     23  C   UNL     1     -12.102   1.825  22.500  0.00  0.00    +0.111 C 
ATOM     24  C   UNL     1     -11.982   2.766  23.749  0.00  0.00    +0.020 C 
ATOM     25  C   UNL     1     -10.532   2.795  24.322  0.00  0.00    +0.064 C 
ATOM     26  H   UNL     1      -9.131   3.741  25.626  0.00  0.00    +0.032 HD
ATOM     27  H   UNL     1     -10.690   5.448  26.644  0.00  0.00    +0.027 HD
ATOM     28  H   UNL     1     -11.907   5.008  25.482  0.00  0.00    +0.027 HD
ATOM     29  H   UNL     1      -9.394   5.514  24.084  0.00  0.00    +0.029 HD
ATOM     30  H   UNL     1     -10.960   6.264  23.839  0.00  0.00    +0.029 HD
ATOM     31  H   UNL     1      -8.977   7.735  24.407  0.00  0.00    +0.064 HD
ATOM     32  H   UNL     1      -9.660   9.873  24.457  0.00  0.00    +0.057 HD
ATOM     33  H   UNL     1     -10.651  11.747  25.423  0.00  0.00    +0.031 HD
ATOM     34  H   UNL     1     -11.697  10.833  26.465  0.00  0.00    +0.031 HD
ATOM     35  H   UNL     1     -13.221  10.312  24.562  0.00  0.00    +0.030 HD
ATOM     36  H   UNL     1     -11.117  11.830  22.942  0.00  0.00    +0.030 HD
ATOM     37  H   UNL     1     -12.814  11.918  22.475  0.00  0.00    +0.030 HD
ATOM     38  H   UNL     1     -11.314   9.260  22.753  0.00  0.00    +0.064 HD
ATOM     39  H   UNL     1     -12.275  10.438  20.110  0.00  0.00    +0.059 HD
ATOM     40  H   UNL     1      -9.455   9.731  21.117  0.00  0.00    +0.057 HD
ATOM     41  H   UNL     1      -9.374  11.042  18.752  0.00  0.00    +0.034 HD
ATOM     42  H   UNL     1     -10.770  10.089  18.355  0.00  0.00    +0.034 HD
ATOM     43  H   UNL     1      -9.121   8.831  17.352  0.00  0.00    +0.074 HD
ATOM     44  H   UNL     1      -9.960   5.596  20.021  0.00  0.00    +0.069 HD
ATOM     45  H   UNL     1     -12.912   5.709  19.132  0.00  0.00    +0.062 HD
ATOM     46  H   UNL     1     -11.210   3.980  21.059  0.00  0.00    +0.061 HD
ATOM     47  H   UNL     1     -14.132   3.697  20.181  0.00  0.00    +0.057 HD
ATOM     48  H   UNL     1     -14.215   2.240  22.152  0.00  0.00    +0.034 HD
ATOM     49  H   UNL     1     -13.428   1.372  20.854  0.00  0.00    +0.034 HD
ATOM     50  H   UNL     1     -12.260   0.802  22.872  0.00  0.00    +0.074 HD
ATOM     51  H   UNL     1     -12.217   3.790  23.435  0.00  0.00    +0.036 HD
ATOM     52  H   UNL     1      -9.906   3.237  23.537  0.00  0.00    +0.060 HD
ENDROOT
BRANCH   1  53
ATOM     53  C   UNL     1     -10.544   2.900  26.922  0.00  0.00    -0.060 C 
ATOM     54  H   UNL     1     -11.017   3.592  27.629  0.00  0.00    +0.023 HD
ATOM     55  H   UNL     1      -9.635   2.536  27.410  0.00  0.00    +0.023 HD
ATOM     56  H   UNL     1     -11.225   2.060  26.789  0.00  0.00    +0.023 HD
ENDBRANCH   1  53
BRANCH   5  57
ATOM     57  C   UNL     1     -11.747   8.005  26.536  0.00  0.00    -0.041 C 
ATOM     58  H   UNL     1     -11.802   8.700  27.379  0.00  0.00    +0.028 HD
ATOM     59  H   UNL     1     -12.712   7.995  26.016  0.00  0.00    +0.028 HD
ATOM     60  H   UNL     1     -11.610   7.010  26.968  0.00  0.00    +0.028 HD
ENDBRANCH   5  57
BRANCH  24  61
ATOM     61  C   UNL     1     -13.040   2.352  24.782  0.00  0.00    -0.057 C 
ATOM     62  H   UNL     1     -13.469   1.372  24.554  0.00  0.00    +0.023 HD
ATOM     63  H   UNL     1     -12.616   2.300  25.788  0.00  0.00    +0.023 HD
ATOM     64  H   UNL     1     -13.879   3.052  24.794  0.00  0.00    +0.023 HD
ENDBRANCH  24  61
BRANCH   8  65
ATOM     65  C   UNL     1     -13.234  12.415  24.924  0.00  0.00    -0.062 C 
ATOM     66  H   UNL     1     -14.096  12.628  24.283  0.00  0.00    +0.023 HD
ATOM     67  H   UNL     1     -12.562  13.280  24.891  0.00  0.00    +0.023 HD
ATOM     68  H   UNL     1     -13.592  12.313  25.954  0.00  0.00    +0.023 HD
ENDBRANCH   8  65
BRANCH  14  69
ATOM     69  C   UNL     1      -7.448   8.945  18.725  0.00  0.00    +0.020 C 
ATOM     70  H   UNL     1      -7.230   9.893  19.237  0.00  0.00    +0.036 HD
BRANCH  69  71
ATOM     71  C   UNL     1      -7.129   7.807  19.718  0.00  0.00    -0.057 C 
ATOM     72  H   UNL     1      -7.736   7.871  20.625  0.00  0.00    +0.023 HD
ATOM     73  H   UNL     1      -6.072   7.826  20.008  0.00  0.00    +0.023 HD
ATOM     74  H   UNL     1      -7.337   6.820  19.292  0.00  0.00    +0.023 HD
ENDBRANCH  69  71
BRANCH  69  75
ATOM     75  C   UNL     1      -6.597   8.866  17.428  0.00  0.00    +0.064 C 
ATOM     76  H   UNL     1      -6.227   7.837  17.334  0.00  0.00    +0.060 HD
BRANCH  75  77
ATOM     77  C   UNL     1      -5.379   9.823  17.335  0.00  0.00    -0.017 C 
ATOM     78  H   UNL     1      -4.622   9.459  18.041  0.00  0.00    +0.032 HD
BRANCH  77  79
ATOM     79  C   UNL     1      -4.694   9.716  15.960  0.00  0.00    -0.060 C 
ATOM     80  H   UNL     1      -5.015   8.842  15.389  0.00  0.00    +0.023 HD
ATOM     81  H   UNL     1      -3.607   9.641  16.083  0.00  0.00    +0.023 HD
ATOM     82  H   UNL     1      -4.895  10.609  15.357  0.00  0.00    +0.023 HD
ENDBRANCH  77  79
BRANCH  77  83
ATOM     83  C   UNL     1      -5.651  11.301  17.718  0.00  0.00    -0.045 C 
ATOM     84  H   UNL     1      -6.571  11.302  18.318  0.00  0.00    +0.027 HD
ATOM     85  H   UNL     1      -5.881  11.877  16.816  0.00  0.00    +0.027 HD
BRANCH  83  86
ATOM     86  C   UNL     1      -4.548  12.034  18.490  0.00  0.00    -0.015 C 
ATOM     87  H   UNL     1      -3.566  11.753  18.096  0.00  0.00    +0.030 HD
ATOM     88  H   UNL     1      -4.527  11.696  19.530  0.00  0.00    +0.030 HD
BRANCH  86  89
ATOM     89  C   UNL     1      -4.721  13.569  18.492  0.00  0.00    +0.109 C 
ATOM     90  H   UNL     1      -4.994  13.895  19.506  0.00  0.00    +0.074 HD
BRANCH  89  91
ATOM     91  C   UNL     1      -5.783  14.175  17.523  0.00  0.00    +0.031 C 
ATOM     92  H   UNL     1      -6.204  13.300  17.007  0.00  0.00    +0.037 HD
BRANCH  91  93
ATOM     93  C   UNL     1      -5.106  15.040  16.454  0.00  0.00    -0.056 C 
ATOM     94  H   UNL     1      -4.049  15.213  16.688  0.00  0.00    +0.023 HD
ATOM     95  H   UNL     1      -5.594  16.013  16.348  0.00  0.00    +0.023 HD
ATOM     96  H   UNL     1      -5.120  14.541  15.482  0.00  0.00    +0.023 HD
ENDBRANCH  91  93
BRANCH  91  97
ATOM     97  C   UNL     1      -6.968  14.913  18.220  0.00  0.00    +0.115 C 
ATOM     98  H   UNL     1      -7.240  15.773  17.593  0.00  0.00    +0.074 HD
BRANCH  97  99
ATOM     99  C   UNL     1      -8.255  14.071  18.506  0.00  0.00    +0.013 C 
ATOM    100  H   UNL     1      -9.073  14.790  18.666  0.00  0.00    +0.038 HD
BRANCH  99 101
ATOM    101  C   UNL     1      -8.192  13.277  19.816  0.00  0.00    -0.056 C 
ATOM    102  H   UNL     1      -8.323  13.943  20.677  0.00  0.00    +0.024 HD
ATOM    103  H   UNL     1      -7.220  12.784  19.929  0.00  0.00    +0.024 HD
ATOM    104  H   UNL     1      -8.975  12.515  19.875  0.00  0.00    +0.024 HD
ENDBRANCH  99 101
BRANCH  99 105
ATOM    105  C   UNL     1      -8.673  13.174  17.357  0.00  0.00    -0.064 C 
ATOM    106  C   UNL     1      -9.706  13.473  16.557  0.00  0.00    -0.005 C 
ATOM    107  H   UNL     1      -8.115  12.253  17.237  0.00  0.00    +0.059 HD
ATOM    108  H   UNL     1     -10.247  14.403  16.735  0.00  0.00    +0.078 HD
BRANCH 106 109
ATOM    109  N   UNL     1     -10.190  12.735  15.487  0.00  0.00    -0.284 N 
ATOM    110  C   UNL     1     -10.349  11.357  15.469  0.00  0.00    +0.206 C 
ATOM    111  O   UNL     1     -10.752  10.684  14.525  0.00  0.00    -0.279 OA
ATOM    112  H   UNL     1     -10.063  10.866  16.408  0.00  0.00    +0.126 HD
BRANCH 109 113
ATOM    113  C   UNL     1     -10.529  13.475  14.275  0.00  0.00    +0.007 C 
ATOM    114  H   UNL     1     -10.089  14.477  14.269  0.00  0.00    +0.043 HD
ATOM    115  H   UNL     1     -10.159  12.928  13.401  0.00  0.00    +0.043 HD
ATOM    116  H   UNL     1     -11.617  13.574  14.214  0.00  0.00    +0.043 HD
ENDBRANCH 109 113
ENDBRANCH 106 109
ENDBRANCH  99 105
ENDBRANCH  97  99
BRANCH  97 117
ATOM    117  O   UNL     1      -6.492  15.410  19.500  0.00  0.00    -0.461 OA
BRANCH 117 118
ATOM    118  C   UNL     1      -6.105  16.713  19.549  0.00  0.00    +0.304 C 
ATOM    119  O   UNL     1      -5.059  17.129  20.028  0.00  0.00    -0.251 OA
BRANCH 118 120
ATOM    120  C   UNL     1      -7.152  17.577  18.919  0.00  0.00    +0.033 C 
ATOM    121  H   UNL     1      -7.894  16.945  18.424  0.00  0.00    +0.034 HD
ATOM    122  H   UNL     1      -7.658  18.168  19.688  0.00  0.00    +0.034 HD
ATOM    123  H   UNL     1      -6.692  18.230  18.173  0.00  0.00    +0.034 HD
ENDBRANCH 118 120
ENDBRANCH 117 118
ENDBRANCH  97 117
ENDBRANCH  91  97
ENDBRANCH  89  91
BRANCH  89 124
ATOM    124  O   UNL     1      -3.440  14.174  18.180  0.00  0.00    -0.460 OA
BRANCH 124 125
ATOM    125  C   UNL     1      -2.693  14.584  19.250  0.00  0.00    +0.324 C 
ATOM    126  O   UNL     1      -3.040  14.477  20.421  0.00  0.00    -0.249 OA
BRANCH 125 127
ATOM    127  C   UNL     1      -1.356  15.170  18.761  0.00  0.00    +0.105 C 
ATOM    128  H   UNL     1      -1.288  16.214  19.095  0.00  0.00    +0.058 HD
BRANCH 127 129
ATOM    129  C   UNL     1      -1.426  15.148  17.230  0.00  0.00    -0.039 C 
ATOM    130  H   UNL     1      -0.978  16.050  16.798  0.00  0.00    +0.025 HD
ATOM    131  H   UNL     1      -2.459  15.071  16.874  0.00  0.00    +0.025 HD
ATOM    132  H   UNL     1      -0.876  14.290  16.826  0.00  0.00    +0.025 HD
ENDBRANCH 127 129
BRANCH 127 133
ATOM    133  N   UNL     1      -0.206  14.399  19.316  0.00  0.00    -0.296 NA
BRANCH 133 134
ATOM    134  C   UNL     1       0.763  14.024  18.283  0.00  0.00    -0.012 C 
ATOM    135  H   UNL     1       0.873  12.935  18.236  0.00  0.00    +0.039 HD
ATOM    136  H   UNL     1       1.749  14.462  18.468  0.00  0.00    +0.039 HD
ATOM    137  H   UNL     1       0.421  14.330  17.289  0.00  0.00    +0.039 HD
ENDBRANCH 133 134
BRANCH 133 138
ATOM    138  C   UNL     1       0.482  15.158  20.368  0.00  0.00    -0.012 C 
ATOM    139  H   UNL     1       1.068  15.975  19.932  0.00  0.00    +0.039 HD
ATOM    140  H   UNL     1      -0.223  15.588  21.089  0.00  0.00    +0.039 HD
ATOM    141  H   UNL     1       1.198  14.536  20.913  0.00  0.00    +0.039 HD
ENDBRANCH 133 138
ENDBRANCH 127 133
ENDBRANCH 125 127
ENDBRANCH 124 125
ENDBRANCH  89 124
ENDBRANCH  86  89
ENDBRANCH  83  86
ENDBRANCH  77  83
ENDBRANCH  75  77
BRANCH  75 142
ATOM    142  O   UNL     1      -7.471   9.103  16.323  0.00  0.00    -0.391 OA
ATOM    143  H   UNL     1      -8.384   9.100  16.653  0.00  0.00    +0.210 HD
ENDBRANCH  75 142
ENDBRANCH  69  75
ENDBRANCH  14  69
BRANCH  25 144
ATOM    144  O   UNL     1     -10.038   1.463  24.491  0.00  0.00    -0.391 OA
ATOM    145  H   UNL     1     -10.755   0.841  24.290  0.00  0.00    +0.210 HD
ENDBRANCH  25 144
BRANCH  23 146
ATOM    146  O   UNL     1     -10.881   1.859  21.737  0.00  0.00    -0.460 OA
BRANCH 146 147
ATOM    147  C   UNL     1     -10.630   0.841  20.876  0.00  0.00    +0.327 C 
ATOM    148  O   UNL     1     -10.120   0.972  19.766  0.00  0.00    -0.249 OA
BRANCH 147 149
ATOM    149  C   UNL     1     -10.991  -0.520  21.488  0.00  0.00    +0.131 C 
ATOM    150  H   UNL     1     -11.607  -0.288  22.369  0.00  0.00    +0.060 HD
BRANCH 149 151
ATOM    151  C   UNL     1      -9.695  -1.172  22.032  0.00  0.00    +0.073 C 
ATOM    152  H   UNL     1      -9.579  -2.185  21.622  0.00  0.00    +0.058 HD
ATOM    153  H   UNL     1      -8.832  -0.577  21.707  0.00  0.00    +0.058 HD
BRANCH 151 154
ATOM    154  O   UNL     1      -9.672  -1.240  23.465  0.00  0.00    -0.381 OA
BRANCH 154 155
ATOM    155  C   UNL     1     -10.783  -1.973  23.963  0.00  0.00    +0.037 C 
ATOM    156  H   UNL     1     -11.542  -1.292  24.357  0.00  0.00    +0.052 HD
ATOM    157  H   UNL     1     -11.209  -2.603  23.177  0.00  0.00    +0.052 HD
ATOM    158  H   UNL     1     -10.434  -2.614  24.776  0.00  0.00    +0.052 HD
ENDBRANCH 154 155
ENDBRANCH 151 154
ENDBRANCH 149 151
BRANCH 149 159
ATOM    159  N   UNL     1     -11.801  -1.343  20.532  0.00  0.00    -0.294 NA
BRANCH 159 160
ATOM    160  C   UNL     1     -13.159  -1.570  21.038  0.00  0.00    -0.012 C 
ATOM    161  H   UNL     1     -13.156  -1.984  22.053  0.00  0.00    +0.039 HD
ATOM    162  H   UNL     1     -13.702  -2.267  20.388  0.00  0.00    +0.039 HD
ATOM    163  H   UNL     1     -13.747  -0.647  21.038  0.00  0.00    +0.039 HD
ENDBRANCH 159 160
BRANCH 159 164
ATOM    164  C   UNL     1     -11.166  -2.629  20.241  0.00  0.00    -0.012 C 
ATOM    165  H   UNL     1     -11.921  -3.420  20.149  0.00  0.00    +0.039 HD
ATOM    166  H   UNL     1     -10.640  -2.612  19.282  0.00  0.00    +0.039 HD
ATOM    167  H   UNL     1     -10.457  -2.925  21.023  0.00  0.00    +0.039 HD
ENDBRANCH 159 164
ENDBRANCH 149 159
ENDBRANCH 147 149
ENDBRANCH 146 147
ENDBRANCH  23 146
BRANCH   4 168
ATOM    168  O   UNL     1      -8.793   6.986  26.313  0.00  0.00    -0.376 OA
BRANCH 168 169
ATOM    169  C   UNL     1      -8.562   8.074  27.201  0.00  0.00    +0.037 C 
ATOM    170  H   UNL     1      -8.529   8.991  26.607  0.00  0.00    +0.052 HD
ATOM    171  H   UNL     1      -7.599   7.965  27.706  0.00  0.00    +0.052 HD
ATOM    172  H   UNL     1      -9.368   8.163  27.931  0.00  0.00    +0.052 HD
ENDBRANCH 168 169
ENDBRANCH   4 168
BRANCH  10 173
ATOM    173  O   UNL     1     -13.305   9.400  22.197  0.00  0.00    -0.376 OA
BRANCH 173 174
ATOM    174  C   UNL     1     -13.348   8.031  22.569  0.00  0.00    +0.037 C 
ATOM    175  H   UNL     1     -13.258   7.391  21.689  0.00  0.00    +0.052 HD
ATOM    176  H   UNL     1     -14.315   7.833  23.041  0.00  0.00    +0.052 HD
ATOM    177  H   UNL     1     -12.560   7.803  23.292  0.00  0.00    +0.052 HD
ENDBRANCH 173 174
ENDBRANCH  10 173
TORSDOF 45
ENDMDL
MODEL 9
REMARK VINA RESULT:      -4.7      4.307      7.381
REMARK  Name = Aplyronine A_conf3
REMARK  45 active torsions:
REMARK  status: ('A' for Active; 'I' for Inactive)
REMARK    1  A    between atoms: C_1  and  C_2
REMARK    2  A    between atoms: C_5  and  O_75
REMARK    3  A    between atoms: C_6  and  C_74
REMARK    4  A    between atoms: C_9  and  C_73
REMARK    5  A    between atoms: C_11  and  O_71
REMARK    6  A    between atoms: C_15  and  C_39
REMARK    7  A    between atoms: C_24  and  O_29
REMARK    8  A    between atoms: C_25  and  C_28
REMARK    9  A    between atoms: C_26  and  O_27
REMARK   10  A    between atoms: O_29  and  C_30
REMARK   11  A    between atoms: C_30  and  C_32
REMARK   12  A    between atoms: C_32  and  C_33
REMARK   13  A    between atoms: C_32  and  N_36
REMARK   14  A    between atoms: C_33  and  O_34
REMARK   15  A    between atoms: O_34  and  C_35
REMARK   16  A    between atoms: N_36  and  C_37
REMARK   17  A    between atoms: N_36  and  C_38
REMARK   18  A    between atoms: C_39  and  C_40
REMARK   19  A    between atoms: C_39  and  C_41
REMARK   20  A    between atoms: C_41  and  C_42
REMARK   21  A    between atoms: C_41  and  O_70
REMARK   22  A    between atoms: C_42  and  C_43
REMARK   23  A    between atoms: C_42  and  C_44
REMARK   24  A    between atoms: C_44  and  C_45
REMARK   25  A    between atoms: C_45  and  C_46
REMARK   26  A    between atoms: C_46  and  C_47
REMARK   27  A    between atoms: C_46  and  O_62
REMARK   28  A    between atoms: C_47  and  C_48
REMARK   29  A    between atoms: C_47  and  C_49
REMARK   30  A    between atoms: C_49  and  C_50
REMARK   31  A    between atoms: C_49  and  O_58
REMARK   32  A    between atoms: C_50  and  C_51
REMARK   33  A    between atoms: C_50  and  C_52
REMARK   34  A    between atoms: C_53  and  N_54
REMARK   35  A    between atoms: N_54  and  C_55
REMARK   36  A    between atoms: O_58  and  C_59
REMARK   37  A    between atoms: C_59  and  C_61
REMARK   38  A    between atoms: O_62  and  C_63
REMARK   39  A    between atoms: C_63  and  C_65
REMARK   40  A    between atoms: C_65  and  C_66
REMARK   41  A    between atoms: C_65  and  N_67
REMARK   42  A    between atoms: N_67  and  C_68
REMARK   43  A    between atoms: N_67  and  C_69
REMARK   44  A    between atoms: O_71  and  C_72
REMARK   45  A    between atoms: O_75  and  C_76
REMARK                            x       y       z     vdW  Elec       q    Type
REMARK                         _______ _______ _______ _____ _____    ______ ____
ROOT
ATOM      1  C   UNL     1     -10.204   3.070  25.283  0.00  0.00    -0.017 C 
ATOM      2  C   UNL     1     -10.819   4.483  25.387  0.00  0.00    -0.045 C 
ATOM      3  C   UNL     1     -10.203   5.520  24.429  0.00  0.00    -0.022 C 
ATOM      4  C   UNL     1      -9.643   6.798  25.105  0.00  0.00    +0.079 C 
ATOM      5  C   UNL     1     -10.680   7.835  25.548  0.00  0.00    -0.048 C 
ATOM      6  C   UNL     1     -10.541   9.121  25.156  0.00  0.00    -0.082 C 
ATOM      7  C   UNL     1     -11.387  10.309  25.522  0.00  0.00    -0.032 C 
ATOM      8  C   UNL     1     -12.554  10.612  24.559  0.00  0.00    -0.038 C 
ATOM      9  C   UNL     1     -12.096  10.858  23.098  0.00  0.00    -0.020 C 
ATOM     10  C   UNL     1     -11.976   9.568  22.269  0.00  0.00    +0.077 C 
ATOM     11  C   UNL     1     -11.475   9.871  20.882  0.00  0.00    -0.059 C 
ATOM     12  C   UNL     1     -10.202   9.730  20.475  0.00  0.00    -0.082 C 
ATOM     13  C   UNL     1      -9.788   9.909  19.035  0.00  0.00    +0.003 C 
ATOM     14  C   UNL     1      -8.906   8.770  18.468  0.00  0.00    +0.112 C 
ATOM     15  O   UNL     1      -9.363   7.491  18.977  0.00  0.00    -0.458 OA
ATOM     16  C   UNL     1     -10.543   6.990  18.549  0.00  0.00    +0.332 C 
ATOM     17  O   UNL     1     -11.295   7.464  17.718  0.00  0.00    -0.246 OA
ATOM     18  C   UNL     1     -10.744   5.751  19.320  0.00  0.00    +0.022 C 
ATOM     19  C   UNL     1     -11.927   5.130  19.420  0.00  0.00    -0.055 C 
ATOM     20  C   UNL     1     -12.032   3.945  20.233  0.00  0.00    -0.065 C 
ATOM     21  C   UNL     1     -13.111   3.156  20.347  0.00  0.00    -0.081 C 
ATOM     22  C   UNL     1     -13.182   1.848  21.114  0.00  0.00    +0.003 C 
ATOM     23  C   UNL     1     -12.005   1.435  22.045  0.00  0.00    +0.111 C 
ATOM     24  C   UNL     1     -11.917   2.302  23.349  0.00  0.00    +0.020 C 
ATOM     25  C   UNL     1     -10.478   2.313  23.949  0.00  0.00    +0.064 C 
ATOM     26  H   UNL     1      -9.111   3.194  25.332  0.00  0.00    +0.032 HD
ATOM     27  H   UNL     1     -10.707   4.821  26.421  0.00  0.00    +0.027 HD
ATOM     28  H   UNL     1     -11.899   4.437  25.214  0.00  0.00    +0.027 HD
ATOM     29  H   UNL     1      -9.368   5.053  23.893  0.00  0.00    +0.029 HD
ATOM     30  H   UNL     1     -10.939   5.798  23.665  0.00  0.00    +0.029 HD
ATOM     31  H   UNL     1      -8.984   7.254  24.354  0.00  0.00    +0.064 HD
ATOM     32  H   UNL     1      -9.693   9.379  24.518  0.00  0.00    +0.057 HD
ATOM     33  H   UNL     1     -10.722  11.181  25.575  0.00  0.00    +0.031 HD
ATOM     34  H   UNL     1     -11.775  10.195  26.543  0.00  0.00    +0.031 HD
ATOM     35  H   UNL     1     -13.260   9.772  24.586  0.00  0.00    +0.030 HD
ATOM     36  H   UNL     1     -11.146  11.406  23.096  0.00  0.00    +0.030 HD
ATOM     37  H   UNL     1     -12.836  11.504  22.605  0.00  0.00    +0.030 HD
ATOM     38  H   UNL     1     -11.310   8.850  22.752  0.00  0.00    +0.064 HD
ATOM     39  H   UNL     1     -12.238  10.173  20.166  0.00  0.00    +0.059 HD
ATOM     40  H   UNL     1      -9.428   9.437  21.180  0.00  0.00    +0.057 HD
ATOM     41  H   UNL     1      -9.322  10.887  18.899  0.00  0.00    +0.034 HD
ATOM     42  H   UNL     1     -10.699   9.945  18.421  0.00  0.00    +0.034 HD
ATOM     43  H   UNL     1      -9.019   8.767  17.375  0.00  0.00    +0.074 HD
ATOM     44  H   UNL     1      -9.865   5.370  19.832  0.00  0.00    +0.069 HD
ATOM     45  H   UNL     1     -12.803   5.503  18.899  0.00  0.00    +0.062 HD
ATOM     46  H   UNL     1     -11.113   3.681  20.750  0.00  0.00    +0.061 HD
ATOM     47  H   UNL     1     -14.016   3.420  19.805  0.00  0.00    +0.057 HD
ATOM     48  H   UNL     1     -14.117   1.847  21.685  0.00  0.00    +0.034 HD
ATOM     49  H   UNL     1     -13.297   1.066  20.352  0.00  0.00    +0.034 HD
ATOM     50  H   UNL     1     -12.158   0.391  22.353  0.00  0.00    +0.074 HD
ATOM     51  H   UNL     1     -12.159   3.340  23.093  0.00  0.00    +0.036 HD
ATOM     52  H   UNL     1      -9.844   2.807  23.203  0.00  0.00    +0.060 HD
ENDROOT
BRANCH   1  53
ATOM     53  C   UNL     1     -10.536   2.263  26.550  0.00  0.00    -0.060 C 
ATOM     54  H   UNL     1     -10.801   1.233  26.282  0.00  0.00    +0.023 HD
ATOM     55  H   UNL     1     -11.402   2.676  27.075  0.00  0.00    +0.023 HD
ATOM     56  H   UNL     1      -9.701   2.210  27.249  0.00  0.00    +0.023 HD
ENDBRANCH   1  53
BRANCH   5  57
ATOM     57  C   UNL     1     -11.793   7.368  26.446  0.00  0.00    -0.041 C 
ATOM     58  H   UNL     1     -12.357   6.562  25.969  0.00  0.00    +0.028 HD
ATOM     59  H   UNL     1     -11.390   7.008  27.399  0.00  0.00    +0.028 HD
ATOM     60  H   UNL     1     -12.517   8.150  26.683  0.00  0.00    +0.028 HD
ENDBRANCH   5  57
BRANCH  24  61
ATOM     61  C   UNL     1     -12.988   1.816  24.337  0.00  0.00    -0.057 C 
ATOM     62  H   UNL     1     -12.584   1.094  25.052  0.00  0.00    +0.023 HD
ATOM     63  H   UNL     1     -13.408   2.647  24.909  0.00  0.00    +0.023 HD
ATOM     64  H   UNL     1     -13.802   1.303  23.820  0.00  0.00    +0.023 HD
ENDBRANCH  24  61
BRANCH   8  65
ATOM     65  C   UNL     1     -13.303  11.850  25.071  0.00  0.00    -0.062 C 
ATOM     66  H   UNL     1     -14.295  11.585  25.450  0.00  0.00    +0.023 HD
ATOM     67  H   UNL     1     -13.429  12.589  24.272  0.00  0.00    +0.023 HD
ATOM     68  H   UNL     1     -12.747  12.332  25.882  0.00  0.00    +0.023 HD
ENDBRANCH   8  65
BRANCH  14  69
ATOM     69  C   UNL     1      -7.371   8.817  18.782  0.00  0.00    +0.020 C 
ATOM     70  H   UNL     1      -7.154   9.786  19.254  0.00  0.00    +0.036 HD
BRANCH  69  71
ATOM     71  C   UNL     1      -7.083   7.724  19.834  0.00  0.00    -0.057 C 
ATOM     72  H   UNL     1      -6.015   7.626  20.043  0.00  0.00    +0.023 HD
ATOM     73  H   UNL     1      -7.460   6.750  19.500  0.00  0.00    +0.023 HD
ATOM     74  H   UNL     1      -7.554   7.948  20.798  0.00  0.00    +0.023 HD
ENDBRANCH  69  71
BRANCH  69  75
ATOM     75  C   UNL     1      -6.494   8.669  17.509  0.00  0.00    +0.064 C 
ATOM     76  H   UNL     1      -6.055   7.663  17.520  0.00  0.00    +0.060 HD
BRANCH  75  77
ATOM     77  C   UNL     1      -5.341   9.693  17.335  0.00  0.00    -0.017 C 
ATOM     78  H   UNL     1      -4.521   9.376  17.992  0.00  0.00    +0.032 HD
BRANCH  77  79
ATOM     79  C   UNL     1      -4.739   9.615  15.919  0.00  0.00    -0.060 C 
ATOM     80  H   UNL     1      -3.648   9.637  15.917  0.00  0.00    +0.023 HD
ATOM     81  H   UNL     1      -5.081  10.465  15.316  0.00  0.00    +0.023 HD
ATOM     82  H   UNL     1      -5.064   8.701  15.411  0.00  0.00    +0.023 HD
ENDBRANCH  77  79
BRANCH  77  83
ATOM     83  C   UNL     1      -5.671  11.156  17.730  0.00  0.00    -0.045 C 
ATOM     84  H   UNL     1      -6.764  11.250  17.687  0.00  0.00    +0.027 HD
ATOM     85  H   UNL     1      -5.280  11.838  16.968  0.00  0.00    +0.027 HD
BRANCH  83  86
ATOM     86  C   UNL     1      -5.180  11.633  19.102  0.00  0.00    -0.015 C 
ATOM     87  H   UNL     1      -4.093  11.526  19.169  0.00  0.00    +0.030 HD
ATOM     88  H   UNL     1      -5.564  10.978  19.889  0.00  0.00    +0.030 HD
BRANCH  86  89
ATOM     89  C   UNL     1      -5.611  13.079  19.435  0.00  0.00    +0.109 C 
ATOM     90  H   UNL     1      -5.091  13.405  20.347  0.00  0.00    +0.074 HD
BRANCH  89  91
ATOM     91  C   UNL     1      -7.132  13.343  19.664  0.00  0.00    +0.031 C 
ATOM     92  H   UNL     1      -7.595  12.353  19.547  0.00  0.00    +0.037 HD
BRANCH  91  93
ATOM     93  C   UNL     1      -7.698  14.235  18.554  0.00  0.00    -0.056 C 
ATOM     94  H   UNL     1      -7.143  15.177  18.474  0.00  0.00    +0.023 HD
ATOM     95  H   UNL     1      -8.752  14.474  18.722  0.00  0.00    +0.023 HD
ATOM     96  H   UNL     1      -7.607  13.750  17.580  0.00  0.00    +0.023 HD
ENDBRANCH  91  93
BRANCH  91  97
ATOM     97  C   UNL     1      -7.504  13.860  21.089  0.00  0.00    +0.115 C 
ATOM     98  H   UNL     1      -7.815  14.909  20.991  0.00  0.00    +0.074 HD
BRANCH  97  99
ATOM     99  C   UNL     1      -8.617  13.074  21.858  0.00  0.00    +0.013 C 
ATOM    100  H   UNL     1      -8.470  12.010  21.625  0.00  0.00    +0.038 HD
BRANCH  99 101
ATOM    101  C   UNL     1     -10.036  13.375  21.360  0.00  0.00    -0.056 C 
ATOM    102  H   UNL     1     -10.210  12.906  20.384  0.00  0.00    +0.024 HD
ATOM    103  H   UNL     1     -10.189  14.452  21.238  0.00  0.00    +0.024 HD
ATOM    104  H   UNL     1     -10.802  12.993  22.042  0.00  0.00    +0.024 HD
ENDBRANCH  99 101
BRANCH  99 105
ATOM    105  C   UNL     1      -8.540  13.213  23.366  0.00  0.00    -0.064 C 
ATOM    106  C   UNL     1      -9.630  13.412  24.121  0.00  0.00    -0.005 C 
ATOM    107  H   UNL     1      -7.549  13.182  23.803  0.00  0.00    +0.059 HD
ATOM    108  H   UNL     1     -10.601  13.456  23.628  0.00  0.00    +0.078 HD
BRANCH 106 109
ATOM    109  N   UNL     1      -9.689  13.564  25.499  0.00  0.00    -0.284 N 
ATOM    110  C   UNL     1     -10.657  14.281  26.186  0.00  0.00    +0.206 C 
ATOM    111  O   UNL     1     -10.713  14.446  27.401  0.00  0.00    -0.279 OA
ATOM    112  H   UNL     1     -11.419  14.732  25.537  0.00  0.00    +0.126 HD
BRANCH 109 113
ATOM    113  C   UNL     1      -8.622  12.940  26.278  0.00  0.00    +0.007 C 
ATOM    114  H   UNL     1      -8.957  12.661  27.282  0.00  0.00    +0.043 HD
ATOM    115  H   UNL     1      -8.279  12.036  25.762  0.00  0.00    +0.043 HD
ATOM    116  H   UNL     1      -7.793  13.648  26.372  0.00  0.00    +0.043 HD
ENDBRANCH 109 113
ENDBRANCH 106 109
ENDBRANCH  99 105
ENDBRANCH  97  99
BRANCH  97 117
ATOM    117  O   UNL     1      -6.305  13.809  21.908  0.00  0.00    -0.461 OA
BRANCH 117 118
ATOM    118  C   UNL     1      -5.628  14.975  22.081  0.00  0.00    +0.304 C 
ATOM    119  O   UNL     1      -4.422  15.080  22.263  0.00  0.00    -0.251 OA
BRANCH 118 120
ATOM    120  C   UNL     1      -6.577  16.130  22.009  0.00  0.00    +0.033 C 
ATOM    121  H   UNL     1      -6.119  16.940  21.435  0.00  0.00    +0.034 HD
ATOM    122  H   UNL     1      -7.497  15.824  21.503  0.00  0.00    +0.034 HD
ATOM    123  H   UNL     1      -6.795  16.493  23.017  0.00  0.00    +0.034 HD
ENDBRANCH 118 120
ENDBRANCH 117 118
ENDBRANCH  97 117
ENDBRANCH  91  97
ENDBRANCH  89  91
BRANCH  89 124
ATOM    124  O   UNL     1      -5.168  13.947  18.359  0.00  0.00    -0.460 OA
BRANCH 124 125
ATOM    125  C   UNL     1      -3.974  14.583  18.554  0.00  0.00    +0.324 C 
ATOM    126  O   UNL     1      -3.075  14.168  19.276  0.00  0.00    -0.249 OA
BRANCH 125 127
ATOM    127  C   UNL     1      -3.927  15.875  17.717  0.00  0.00    +0.105 C 
ATOM    128  H   UNL     1      -2.989  15.889  17.147  0.00  0.00    +0.058 HD
BRANCH 127 129
ATOM    129  C   UNL     1      -3.905  17.027  18.727  0.00  0.00    -0.039 C 
ATOM    130  H   UNL     1      -4.845  17.591  18.709  0.00  0.00    +0.025 HD
ATOM    131  H   UNL     1      -3.082  17.721  18.529  0.00  0.00    +0.025 HD
ATOM    132  H   UNL     1      -3.776  16.649  19.748  0.00  0.00    +0.025 HD
ENDBRANCH 127 129
BRANCH 127 133
ATOM    133  N   UNL     1      -5.080  15.934  16.771  0.00  0.00    -0.296 NA
BRANCH 133 134
ATOM    134  C   UNL     1      -5.793  17.212  16.842  0.00  0.00    -0.012 C 
ATOM    135  H   UNL     1      -6.870  17.046  16.952  0.00  0.00    +0.039 HD
ATOM    136  H   UNL     1      -5.629  17.823  15.948  0.00  0.00    +0.039 HD
ATOM    137  H   UNL     1      -5.490  17.786  17.723  0.00  0.00    +0.039 HD
ENDBRANCH 133 134
BRANCH 133 138
ATOM    138  C   UNL     1      -4.642  15.703  15.388  0.00  0.00    -0.012 C 
ATOM    139  H   UNL     1      -3.749  16.297  15.164  0.00  0.00    +0.039 HD
ATOM    140  H   UNL     1      -4.408  14.648  15.204  0.00  0.00    +0.039 HD
ATOM    141  H   UNL     1      -5.400  16.020  14.666  0.00  0.00    +0.039 HD
ENDBRANCH 133 138
ENDBRANCH 127 133
ENDBRANCH 125 127
ENDBRANCH 124 125
ENDBRANCH  89 124
ENDBRANCH  86  89
ENDBRANCH  83  86
ENDBRANCH  77  83
ENDBRANCH  75  77
BRANCH  75 142
ATOM    142  O   UNL     1      -7.362   8.739  16.376  0.00  0.00    -0.391 OA
ATOM    143  H   UNL     1      -8.193   8.288  16.603  0.00  0.00    +0.210 HD
ENDBRANCH  75 142
ENDBRANCH  69  75
ENDBRANCH  14  69
BRANCH  25 144
ATOM    144  O   UNL     1      -9.971   0.977  24.048  0.00  0.00    -0.391 OA
ATOM    145  H   UNL     1     -10.655   0.365  23.734  0.00  0.00    +0.210 HD
ENDBRANCH  25 144
BRANCH  23 146
ATOM    146  O   UNL     1     -10.772   1.528  21.308  0.00  0.00    -0.460 OA
BRANCH 146 147
ATOM    147  C   UNL     1     -10.444   0.514  20.468  0.00  0.00    +0.327 C 
ATOM    148  O   UNL     1      -9.979   0.660  19.340  0.00  0.00    -0.249 OA
BRANCH 147 149
ATOM    149  C   UNL     1     -10.654  -0.858  21.127  0.00  0.00    +0.131 C 
ATOM    150  H   UNL     1     -11.201  -0.650  22.058  0.00  0.00    +0.060 HD
BRANCH 149 151
ATOM    151  C   UNL     1      -9.271  -1.410  21.557  0.00  0.00    +0.073 C 
ATOM    152  H   UNL     1      -9.078  -2.372  21.064  0.00  0.00    +0.058 HD
ATOM    153  H   UNL     1      -8.491  -0.707  21.241  0.00  0.00    +0.058 HD
BRANCH 151 154
ATOM    154  O   UNL     1      -9.164  -1.581  22.978  0.00  0.00    -0.381 OA
BRANCH 154 155
ATOM    155  C   UNL     1      -9.258  -2.953  23.340  0.00  0.00    +0.037 C 
ATOM    156  H   UNL     1      -9.932  -3.076  24.192  0.00  0.00    +0.052 HD
ATOM    157  H   UNL     1      -9.606  -3.549  22.491  0.00  0.00    +0.052 HD
ATOM    158  H   UNL     1      -8.263  -3.300  23.628  0.00  0.00    +0.052 HD
ENDBRANCH 154 155
ENDBRANCH 151 154
ENDBRANCH 149 151
BRANCH 149 159
ATOM    159  N   UNL     1     -11.489  -1.750  20.261  0.00  0.00    -0.294 NA
BRANCH 159 160
ATOM    160  C   UNL     1     -12.730  -2.144  20.936  0.00  0.00    -0.012 C 
ATOM    161  H   UNL     1     -13.060  -1.391  21.662  0.00  0.00    +0.039 HD
ATOM    162  H   UNL     1     -12.597  -3.094  21.467  0.00  0.00    +0.039 HD
ATOM    163  H   UNL     1     -13.539  -2.316  20.219  0.00  0.00    +0.039 HD
ENDBRANCH 159 160
BRANCH 159 164
ATOM    164  C   UNL     1     -10.759  -2.948  19.843  0.00  0.00    -0.012 C 
ATOM    165  H   UNL     1     -10.436  -2.858  18.798  0.00  0.00    +0.039 HD
ATOM    166  H   UNL     1      -9.841  -3.085  20.424  0.00  0.00    +0.039 HD
ATOM    167  H   UNL     1     -11.368  -3.855  19.935  0.00  0.00    +0.039 HD
ENDBRANCH 159 164
ENDBRANCH 149 159
ENDBRANCH 147 149
ENDBRANCH 146 147
ENDBRANCH  23 146
BRANCH   4 168
ATOM    168  O   UNL     1      -8.823   6.396  26.215  0.00  0.00    -0.376 OA
BRANCH 168 169
ATOM    169  C   UNL     1      -8.300   7.493  26.956  0.00  0.00    +0.037 C 
ATOM    170  H   UNL     1      -8.711   7.444  27.966  0.00  0.00    +0.052 HD
ATOM    171  H   UNL     1      -8.608   8.443  26.512  0.00  0.00    +0.052 HD
ATOM    172  H   UNL     1      -7.212   7.439  27.021  0.00  0.00    +0.052 HD
ENDBRANCH 168 169
ENDBRANCH   4 168
BRANCH  10 173
ATOM    173  O   UNL     1     -13.292   9.002  22.169  0.00  0.00    -0.376 OA
BRANCH 173 174
ATOM    174  C   UNL     1     -13.285   7.584  22.089  0.00  0.00    +0.037 C 
ATOM    175  H   UNL     1     -12.268   7.199  22.184  0.00  0.00    +0.052 HD
ATOM    176  H   UNL     1     -13.674   7.293  21.108  0.00  0.00    +0.052 HD
ATOM    177  H   UNL     1     -13.933   7.152  22.857  0.00  0.00    +0.052 HD
ENDBRANCH 173 174
ENDBRANCH  10 173
TORSDOF 45
ENDMDL
MODEL 10
REMARK VINA RESULT:      -4.7      4.327      7.047
REMARK  Name = Aplyronine A_conf3
REMARK  45 active torsions:
REMARK  status: ('A' for Active; 'I' for Inactive)
REMARK    1  A    between atoms: C_1  and  C_2
REMARK    2  A    between atoms: C_5  and  O_75
REMARK    3  A    between atoms: C_6  and  C_74
REMARK    4  A    between atoms: C_9  and  C_73
REMARK    5  A    between atoms: C_11  and  O_71
REMARK    6  A    between atoms: C_15  and  C_39
REMARK    7  A    between atoms: C_24  and  O_29
REMARK    8  A    between atoms: C_25  and  C_28
REMARK    9  A    between atoms: C_26  and  O_27
REMARK   10  A    between atoms: O_29  and  C_30
REMARK   11  A    between atoms: C_30  and  C_32
REMARK   12  A    between atoms: C_32  and  C_33
REMARK   13  A    between atoms: C_32  and  N_36
REMARK   14  A    between atoms: C_33  and  O_34
REMARK   15  A    between atoms: O_34  and  C_35
REMARK   16  A    between atoms: N_36  and  C_37
REMARK   17  A    between atoms: N_36  and  C_38
REMARK   18  A    between atoms: C_39  and  C_40
REMARK   19  A    between atoms: C_39  and  C_41
REMARK   20  A    between atoms: C_41  and  C_42
REMARK   21  A    between atoms: C_41  and  O_70
REMARK   22  A    between atoms: C_42  and  C_43
REMARK   23  A    between atoms: C_42  and  C_44
REMARK   24  A    between atoms: C_44  and  C_45
REMARK   25  A    between atoms: C_45  and  C_46
REMARK   26  A    between atoms: C_46  and  C_47
REMARK   27  A    between atoms: C_46  and  O_62
REMARK   28  A    between atoms: C_47  and  C_48
REMARK   29  A    between atoms: C_47  and  C_49
REMARK   30  A    between atoms: C_49  and  C_50
REMARK   31  A    between atoms: C_49  and  O_58
REMARK   32  A    between atoms: C_50  and  C_51
REMARK   33  A    between atoms: C_50  and  C_52
REMARK   34  A    between atoms: C_53  and  N_54
REMARK   35  A    between atoms: N_54  and  C_55
REMARK   36  A    between atoms: O_58  and  C_59
REMARK   37  A    between atoms: C_59  and  C_61
REMARK   38  A    between atoms: O_62  and  C_63
REMARK   39  A    between atoms: C_63  and  C_65
REMARK   40  A    between atoms: C_65  and  C_66
REMARK   41  A    between atoms: C_65  and  N_67
REMARK   42  A    between atoms: N_67  and  C_68
REMARK   43  A    between atoms: N_67  and  C_69
REMARK   44  A    between atoms: O_71  and  C_72
REMARK   45  A    between atoms: O_75  and  C_76
REMARK                            x       y       z     vdW  Elec       q    Type
REMARK                         _______ _______ _______ _____ _____    ______ ____
ROOT
ATOM      1  C   UNL     1     -10.256   2.821  25.286  0.00  0.00    -0.017 C 
ATOM      2  C   UNL     1     -10.931   4.199  25.466  0.00  0.00    -0.045 C 
ATOM      3  C   UNL     1     -10.348   5.316  24.580  0.00  0.00    -0.022 C 
ATOM      4  C   UNL     1      -9.850   6.573  25.339  0.00  0.00    +0.079 C 
ATOM      5  C   UNL     1     -10.934   7.538  25.829  0.00  0.00    -0.048 C 
ATOM      6  C   UNL     1     -10.844   8.850  25.516  0.00  0.00    -0.082 C 
ATOM      7  C   UNL     1     -11.744   9.978  25.941  0.00  0.00    -0.032 C 
ATOM      8  C   UNL     1     -12.912  10.290  24.982  0.00  0.00    -0.038 C 
ATOM      9  C   UNL     1     -12.449  10.642  23.545  0.00  0.00    -0.020 C 
ATOM     10  C   UNL     1     -12.266   9.410  22.641  0.00  0.00    +0.077 C 
ATOM     11  C   UNL     1     -11.763   9.817  21.282  0.00  0.00    -0.059 C 
ATOM     12  C   UNL     1     -10.481   9.753  20.885  0.00  0.00    -0.082 C 
ATOM     13  C   UNL     1     -10.059  10.035  19.464  0.00  0.00    +0.003 C 
ATOM     14  C   UNL     1      -9.123   8.970  18.841  0.00  0.00    +0.112 C 
ATOM     15  O   UNL     1      -9.532   7.645  19.267  0.00  0.00    -0.458 OA
ATOM     16  C   UNL     1     -10.686   7.122  18.795  0.00  0.00    +0.332 C 
ATOM     17  O   UNL     1     -11.448   7.613  17.983  0.00  0.00    -0.246 OA
ATOM     18  C   UNL     1     -10.843   5.831  19.487  0.00  0.00    +0.022 C 
ATOM     19  C   UNL     1     -11.999   5.158  19.534  0.00  0.00    -0.055 C 
ATOM     20  C   UNL     1     -12.064   3.922  20.274  0.00  0.00    -0.065 C 
ATOM     21  C   UNL     1     -13.109   3.084  20.326  0.00  0.00    -0.081 C 
ATOM     22  C   UNL     1     -13.134   1.731  21.012  0.00  0.00    +0.003 C 
ATOM     23  C   UNL     1     -11.951   1.311  21.933  0.00  0.00    +0.111 C 
ATOM     24  C   UNL     1     -11.914   2.101  23.288  0.00  0.00    +0.020 C 
ATOM     25  C   UNL     1     -10.484   2.135  23.906  0.00  0.00    +0.064 C 
ATOM     26  H   UNL     1      -9.170   2.987  25.357  0.00  0.00    +0.032 HD
ATOM     27  H   UNL     1     -10.845   4.478  26.520  0.00  0.00    +0.027 HD
ATOM     28  H   UNL     1     -12.005   4.119  25.276  0.00  0.00    +0.027 HD
ATOM     29  H   UNL     1      -9.489   4.916  24.028  0.00  0.00    +0.029 HD
ATOM     30  H   UNL     1     -11.086   5.609  23.824  0.00  0.00    +0.029 HD
ATOM     31  H   UNL     1      -9.202   7.101  24.625  0.00  0.00    +0.064 HD
ATOM     32  H   UNL     1     -10.001   9.180  24.906  0.00  0.00    +0.057 HD
ATOM     33  H   UNL     1     -11.117  10.872  26.055  0.00  0.00    +0.031 HD
ATOM     34  H   UNL     1     -12.137   9.787  26.948  0.00  0.00    +0.031 HD
ATOM     35  H   UNL     1     -13.582   9.422  24.949  0.00  0.00    +0.030 HD
ATOM     36  H   UNL     1     -11.522  11.228  23.588  0.00  0.00    +0.030 HD
ATOM     37  H   UNL     1     -13.210  11.285  23.081  0.00  0.00    +0.030 HD
ATOM     38  H   UNL     1     -11.575   8.693  23.090  0.00  0.00    +0.064 HD
ATOM     39  H   UNL     1     -12.530  10.129  20.576  0.00  0.00    +0.059 HD
ATOM     40  H   UNL     1      -9.702   9.450  21.581  0.00  0.00    +0.057 HD
ATOM     41  H   UNL     1      -9.632  11.038  19.393  0.00  0.00    +0.034 HD
ATOM     42  H   UNL     1     -10.964  10.070  18.840  0.00  0.00    +0.034 HD
ATOM     43  H   UNL     1      -9.224   9.027  17.749  0.00  0.00    +0.074 HD
ATOM     44  H   UNL     1      -9.954   5.456  19.987  0.00  0.00    +0.069 HD
ATOM     45  H   UNL     1     -12.884   5.525  19.024  0.00  0.00    +0.062 HD
ATOM     46  H   UNL     1     -11.140   3.666  20.786  0.00  0.00    +0.061 HD
ATOM     47  H   UNL     1     -14.019   3.343  19.788  0.00  0.00    +0.057 HD
ATOM     48  H   UNL     1     -14.074   1.657  21.569  0.00  0.00    +0.034 HD
ATOM     49  H   UNL     1     -13.208   0.992  20.203  0.00  0.00    +0.034 HD
ATOM     50  H   UNL     1     -12.063   0.245  22.176  0.00  0.00    +0.074 HD
ATOM     51  H   UNL     1     -12.197   3.142  23.090  0.00  0.00    +0.036 HD
ATOM     52  H   UNL     1      -9.862   2.698  23.199  0.00  0.00    +0.060 HD
ENDROOT
BRANCH   1  53
ATOM     53  C   UNL     1     -10.568   1.926  26.498  0.00  0.00    -0.060 C 
ATOM     54  H   UNL     1     -11.432   2.322  27.046  0.00  0.00    +0.023 HD
ATOM     55  H   UNL     1      -9.736   1.907  27.208  0.00  0.00    +0.023 HD
ATOM     56  H   UNL     1     -10.806   0.900  26.217  0.00  0.00    +0.023 HD
ENDBRANCH   1  53
BRANCH   5  57
ATOM     57  C   UNL     1     -12.036   6.972  26.682  0.00  0.00    -0.041 C 
ATOM     58  H   UNL     1     -12.707   7.767  27.019  0.00  0.00    +0.028 HD
ATOM     59  H   UNL     1     -12.614   6.230  26.119  0.00  0.00    +0.028 HD
ATOM     60  H   UNL     1     -11.674   6.473  27.584  0.00  0.00    +0.028 HD
ENDBRANCH   5  57
BRANCH  24  61
ATOM     61  C   UNL     1     -12.975   1.513  24.230  0.00  0.00    -0.057 C 
ATOM     62  H   UNL     1     -12.530   1.121  25.149  0.00  0.00    +0.023 HD
ATOM     63  H   UNL     1     -13.713   2.266  24.517  0.00  0.00    +0.023 HD
ATOM     64  H   UNL     1     -13.497   0.673  23.766  0.00  0.00    +0.023 HD
ENDBRANCH  24  61
BRANCH   8  65
ATOM     65  C   UNL     1     -13.718  11.462  25.556  0.00  0.00    -0.062 C 
ATOM     66  H   UNL     1     -13.897  11.334  26.628  0.00  0.00    +0.023 HD
ATOM     67  H   UNL     1     -14.689  11.553  25.056  0.00  0.00    +0.023 HD
ATOM     68  H   UNL     1     -13.184  12.408  25.412  0.00  0.00    +0.023 HD
ENDBRANCH   8  65
BRANCH  14  69
ATOM     69  C   UNL     1      -7.595   9.061  19.178  0.00  0.00    +0.020 C 
ATOM     70  H   UNL     1      -7.455   9.900  19.874  0.00  0.00    +0.036 HD
BRANCH  69  71
ATOM     71  C   UNL     1      -7.214   7.771  19.937  0.00  0.00    -0.057 C 
ATOM     72  H   UNL     1      -7.083   7.948  21.008  0.00  0.00    +0.023 HD
ATOM     73  H   UNL     1      -6.285   7.344  19.542  0.00  0.00    +0.023 HD
ATOM     74  H   UNL     1      -7.991   7.003  19.858  0.00  0.00    +0.023 HD
ENDBRANCH  69  71
BRANCH  69  75
ATOM     75  C   UNL     1      -6.717   9.297  17.920  0.00  0.00    +0.064 C 
ATOM     76  H   UNL     1      -6.293   8.329  17.620  0.00  0.00    +0.060 HD
BRANCH  75  77
ATOM     77  C   UNL     1      -5.548  10.307  18.065  0.00  0.00    -0.017 C 
ATOM     78  H   UNL     1      -4.774   9.825  18.675  0.00  0.00    +0.032 HD
BRANCH  77  79
ATOM     79  C   UNL     1      -4.859  10.557  16.711  0.00  0.00    -0.060 C 
ATOM     80  H   UNL     1      -5.390  10.105  15.871  0.00  0.00    +0.023 HD
ATOM     81  H   UNL     1      -3.846  10.136  16.718  0.00  0.00    +0.023 HD
ATOM     82  H   UNL     1      -4.766  11.631  16.517  0.00  0.00    +0.023 HD
ENDBRANCH  77  79
BRANCH  77  83
ATOM     83  C   UNL     1      -5.893  11.640  18.780  0.00  0.00    -0.045 C 
ATOM     84  H   UNL     1      -6.713  11.416  19.475  0.00  0.00    +0.027 HD
ATOM     85  H   UNL     1      -6.301  12.350  18.053  0.00  0.00    +0.027 HD
BRANCH  83  86
ATOM     86  C   UNL     1      -4.759  12.332  19.546  0.00  0.00    -0.015 C 
ATOM     87  H   UNL     1      -3.805  11.845  19.322  0.00  0.00    +0.030 HD
ATOM     88  H   UNL     1      -4.888  12.186  20.623  0.00  0.00    +0.030 HD
BRANCH  86  89
ATOM     89  C   UNL     1      -4.679  13.851  19.278  0.00  0.00    +0.109 C 
ATOM     90  H   UNL     1      -4.800  14.387  20.230  0.00  0.00    +0.074 HD
BRANCH  89  91
ATOM     91  C   UNL     1      -5.714  14.461  18.281  0.00  0.00    +0.031 C 
ATOM     92  H   UNL     1      -6.457  13.663  18.146  0.00  0.00    +0.037 HD
BRANCH  91  93
ATOM     93  C   UNL     1      -5.065  14.705  16.914  0.00  0.00    -0.056 C 
ATOM     94  H   UNL     1      -4.867  15.770  16.747  0.00  0.00    +0.023 HD
ATOM     95  H   UNL     1      -5.694  14.344  16.095  0.00  0.00    +0.023 HD
ATOM     96  H   UNL     1      -4.095  14.206  16.848  0.00  0.00    +0.023 HD
ENDBRANCH  91  93
BRANCH  91  97
ATOM     97  C   UNL     1      -6.475  15.717  18.809  0.00  0.00    +0.115 C 
ATOM     98  H   UNL     1      -6.557  16.430  17.977  0.00  0.00    +0.074 HD
BRANCH  97  99
ATOM     99  C   UNL     1      -7.901  15.478  19.408  0.00  0.00    +0.013 C 
ATOM    100  H   UNL     1      -8.339  14.634  18.854  0.00  0.00    +0.038 HD
BRANCH  99 101
ATOM    101  C   UNL     1      -8.874  16.636  19.159  0.00  0.00    -0.056 C 
ATOM    102  H   UNL     1      -9.806  16.268  18.714  0.00  0.00    +0.024 HD
ATOM    103  H   UNL     1      -8.445  17.366  18.465  0.00  0.00    +0.024 HD
ATOM    104  H   UNL     1      -9.142  17.156  20.084  0.00  0.00    +0.024 HD
ENDBRANCH  99 101
BRANCH  99 105
ATOM    105  C   UNL     1      -7.896  15.090  20.874  0.00  0.00    -0.064 C 
ATOM    106  C   UNL     1      -8.173  13.843  21.283  0.00  0.00    -0.005 C 
ATOM    107  H   UNL     1      -7.695  15.884  21.583  0.00  0.00    +0.059 HD
ATOM    108  H   UNL     1      -8.389  13.086  20.529  0.00  0.00    +0.078 HD
BRANCH 106 109
ATOM    109  N   UNL     1      -8.211  13.368  22.586  0.00  0.00    -0.284 N 
ATOM    110  C   UNL     1      -9.199  12.550  23.113  0.00  0.00    +0.206 C 
ATOM    111  O   UNL     1      -9.263  12.141  24.268  0.00  0.00    -0.279 OA
ATOM    112  H   UNL     1      -9.982  12.280  22.393  0.00  0.00    +0.126 HD
BRANCH 109 113
ATOM    113  C   UNL     1      -7.134  13.796  23.475  0.00  0.00    +0.007 C 
ATOM    114  H   UNL     1      -6.291  14.223  22.923  0.00  0.00    +0.043 HD
ATOM    115  H   UNL     1      -7.516  14.553  24.169  0.00  0.00    +0.043 HD
ATOM    116  H   UNL     1      -6.776  12.928  24.038  0.00  0.00    +0.043 HD
ENDBRANCH 109 113
ENDBRANCH 106 109
ENDBRANCH  99 105
ENDBRANCH  97  99
BRANCH  97 117
ATOM    117  O   UNL     1      -5.670  16.319  19.856  0.00  0.00    -0.461 OA
BRANCH 117 118
ATOM    118  C   UNL     1      -5.390  17.645  19.732  0.00  0.00    +0.304 C 
ATOM    119  O   UNL     1      -5.987  18.555  20.290  0.00  0.00    -0.251 OA
BRANCH 118 120
ATOM    120  C   UNL     1      -4.227  17.834  18.809  0.00  0.00    +0.033 C 
ATOM    121  H   UNL     1      -4.273  17.088  18.011  0.00  0.00    +0.034 HD
ATOM    122  H   UNL     1      -4.271  18.829  18.356  0.00  0.00    +0.034 HD
ATOM    123  H   UNL     1      -3.292  17.703  19.360  0.00  0.00    +0.034 HD
ENDBRANCH 118 120
ENDBRANCH 117 118
ENDBRANCH  97 117
ENDBRANCH  91  97
ENDBRANCH  89  91
BRANCH  89 124
ATOM    124  O   UNL     1      -3.351  14.158  18.781  0.00  0.00    -0.460 OA
BRANCH 124 125
ATOM    125  C   UNL     1      -2.487  14.714  19.683  0.00  0.00    +0.324 C 
ATOM    126  O   UNL     1      -2.657  14.719  20.897  0.00  0.00    -0.249 OA
BRANCH 125 127
ATOM    127  C   UNL     1      -1.269  15.302  18.947  0.00  0.00    +0.105 C 
ATOM    128  H   UNL     1      -1.218  16.378  19.158  0.00  0.00    +0.058 HD
BRANCH 127 129
ATOM    129  C   UNL     1      -1.550  15.107  17.453  0.00  0.00    -0.039 C 
ATOM    130  H   UNL     1      -2.419  15.692  17.132  0.00  0.00    +0.025 HD
ATOM    131  H   UNL     1      -1.733  14.055  17.211  0.00  0.00    +0.025 HD
ATOM    132  H   UNL     1      -0.697  15.437  16.849  0.00  0.00    +0.025 HD
ENDBRANCH 127 129
BRANCH 127 133
ATOM    133  N   UNL     1      -0.008  14.649  19.405  0.00  0.00    -0.296 NA
BRANCH 133 134
ATOM    134  C   UNL     1       0.637  13.876  18.341  0.00  0.00    -0.012 C 
ATOM    135  H   UNL     1       0.960  14.536  17.528  0.00  0.00    +0.039 HD
ATOM    136  H   UNL     1      -0.032  13.118  17.922  0.00  0.00    +0.039 HD
ATOM    137  H   UNL     1       1.545  13.385  18.703  0.00  0.00    +0.039 HD
ENDBRANCH 133 134
BRANCH 133 138
ATOM    138  C   UNL     1       0.943  15.641  19.924  0.00  0.00    -0.012 C 
ATOM    139  H   UNL     1       1.714  15.153  20.531  0.00  0.00    +0.039 HD
ATOM    140  H   UNL     1       1.438  16.194  19.119  0.00  0.00    +0.039 HD
ATOM    141  H   UNL     1       0.453  16.361  20.587  0.00  0.00    +0.039 HD
ENDBRANCH 133 138
ENDBRANCH 127 133
ENDBRANCH 125 127
ENDBRANCH 124 125
ENDBRANCH  89 124
ENDBRANCH  86  89
ENDBRANCH  83  86
ENDBRANCH  77  83
ENDBRANCH  75  77
BRANCH  75 142
ATOM    142  O   UNL     1      -7.581   9.723  16.864  0.00  0.00    -0.391 OA
ATOM    143  H   UNL     1      -7.073   9.720  16.036  0.00  0.00    +0.210 HD
ENDBRANCH  75 142
ENDBRANCH  69  75
ENDBRANCH  14  69
BRANCH  25 144
ATOM    144  O   UNL     1      -9.922   0.818  23.932  0.00  0.00    -0.391 OA
ATOM    145  H   UNL     1     -10.447   0.273  24.539  0.00  0.00    +0.210 HD
ENDBRANCH  25 144
BRANCH  23 146
ATOM    146  O   UNL     1     -10.715   1.499  21.219  0.00  0.00    -0.460 OA
BRANCH 146 147
ATOM    147  C   UNL     1     -10.322   0.538  20.345  0.00  0.00    +0.327 C 
ATOM    148  O   UNL     1      -9.818   0.754  19.246  0.00  0.00    -0.249 OA
BRANCH 147 149
ATOM    149  C   UNL     1     -10.513  -0.870  20.928  0.00  0.00    +0.131 C 
ATOM    150  H   UNL     1     -11.084  -0.724  21.857  0.00  0.00    +0.060 HD
BRANCH 149 151
ATOM    151  C   UNL     1      -9.127  -1.414  21.358  0.00  0.00    +0.073 C 
ATOM    152  H   UNL     1      -8.943  -2.392  20.893  0.00  0.00    +0.058 HD
ATOM    153  H   UNL     1      -8.348  -0.723  21.010  0.00  0.00    +0.058 HD
BRANCH 151 154
ATOM    154  O   UNL     1      -9.003  -1.540  22.782  0.00  0.00    -0.381 OA
BRANCH 154 155
ATOM    155  C   UNL     1      -9.507  -2.791  23.234  0.00  0.00    +0.037 C 
ATOM    156  H   UNL     1      -8.906  -3.611  22.832  0.00  0.00    +0.052 HD
ATOM    157  H   UNL     1      -9.518  -2.826  24.327  0.00  0.00    +0.052 HD
ATOM    158  H   UNL     1     -10.532  -2.898  22.869  0.00  0.00    +0.052 HD
ENDBRANCH 154 155
ENDBRANCH 151 154
ENDBRANCH 149 151
BRANCH 149 159
ATOM    159  N   UNL     1     -11.310  -1.735  20.000  0.00  0.00    -0.294 NA
BRANCH 159 160
ATOM    160  C   UNL     1     -12.494  -2.287  20.665  0.00  0.00    -0.012 C 
ATOM    161  H   UNL     1     -13.399  -1.709  20.442  0.00  0.00    +0.039 HD
ATOM    162  H   UNL     1     -12.358  -2.297  21.753  0.00  0.00    +0.039 HD
ATOM    163  H   UNL     1     -12.666  -3.329  20.379  0.00  0.00    +0.039 HD
ENDBRANCH 159 160
BRANCH 159 164
ATOM    164  C   UNL     1     -10.509  -2.826  19.443  0.00  0.00    -0.012 C 
ATOM    165  H   UNL     1      -9.459  -2.522  19.344  0.00  0.00    +0.039 HD
ATOM    166  H   UNL     1     -10.501  -3.699  20.103  0.00  0.00    +0.039 HD
ATOM    167  H   UNL     1     -10.867  -3.138  18.456  0.00  0.00    +0.039 HD
ENDBRANCH 159 164
ENDBRANCH 149 159
ENDBRANCH 147 149
ENDBRANCH 146 147
ENDBRANCH  23 146
BRANCH   4 168
ATOM    168  O   UNL     1      -9.026   6.139  26.434  0.00  0.00    -0.376 OA
BRANCH 168 169
ATOM    169  C   UNL     1      -8.274   7.193  27.025  0.00  0.00    +0.037 C 
ATOM    170  H   UNL     1      -7.257   7.143  26.629  0.00  0.00    +0.052 HD
ATOM    171  H   UNL     1      -8.219   7.070  28.109  0.00  0.00    +0.052 HD
ATOM    172  H   UNL     1      -8.697   8.167  26.772  0.00  0.00    +0.052 HD
ENDBRANCH 168 169
ENDBRANCH   4 168
BRANCH  10 173
ATOM    173  O   UNL     1     -13.555   8.797  22.491  0.00  0.00    -0.376 OA
BRANCH 173 174
ATOM    174  C   UNL     1     -14.398   9.485  21.578  0.00  0.00    +0.037 C 
ATOM    175  H   UNL     1     -13.809   9.932  20.774  0.00  0.00    +0.052 HD
ATOM    176  H   UNL     1     -14.908  10.287  22.118  0.00  0.00    +0.052 HD
ATOM    177  H   UNL     1     -15.155   8.809  21.169  0.00  0.00    +0.052 HD
ENDBRANCH 173 174
ENDBRANCH  10 173
TORSDOF 45
ENDMDL
