MODEL 1
REMARK VINA RESULT:      -5.2      0.000      0.000
REMARK  Name = Aplyronine A_conf2
REMARK  45 active torsions:
REMARK  status: ('A' for Active; 'I' for Inactive)
REMARK    1  A    between atoms: C_1  and  C_2
REMARK    2  A    between atoms: C_5  and  O_75
REMARK    3  A    between atoms: C_6  and  C_74
REMARK    4  A    between atoms: C_9  and  C_73
REMARK    5  A    between atoms: C_11  and  O_71
REMARK    6  A    between atoms: C_15  and  C_39
REMARK    7  A    between atoms: C_24  and  O_29
REMARK    8  A    between atoms: C_25  and  C_28
REMARK    9  A    between atoms: C_26  and  O_27
REMARK   10  A    between atoms: O_29  and  C_30
REMARK   11  A    between atoms: C_30  and  C_32
REMARK   12  A    between atoms: C_32  and  C_33
REMARK   13  A    between atoms: C_32  and  N_36
REMARK   14  A    between atoms: C_33  and  O_34
REMARK   15  A    between atoms: O_34  and  C_35
REMARK   16  A    between atoms: N_36  and  C_37
REMARK   17  A    between atoms: N_36  and  C_38
REMARK   18  A    between atoms: C_39  and  C_40
REMARK   19  A    between atoms: C_39  and  C_41
REMARK   20  A    between atoms: C_41  and  C_42
REMARK   21  A    between atoms: C_41  and  O_70
REMARK   22  A    between atoms: C_42  and  C_43
REMARK   23  A    between atoms: C_42  and  C_44
REMARK   24  A    between atoms: C_44  and  C_45
REMARK   25  A    between atoms: C_45  and  C_46
REMARK   26  A    between atoms: C_46  and  C_47
REMARK   27  A    between atoms: C_46  and  O_62
REMARK   28  A    between atoms: C_47  and  C_48
REMARK   29  A    between atoms: C_47  and  C_49
REMARK   30  A    between atoms: C_49  and  C_50
REMARK   31  A    between atoms: C_49  and  O_58
REMARK   32  A    between atoms: C_50  and  C_51
REMARK   33  A    between atoms: C_50  and  C_52
REMARK   34  A    between atoms: C_53  and  N_54
REMARK   35  A    between atoms: N_54  and  C_55
REMARK   36  A    between atoms: O_58  and  C_59
REMARK   37  A    between atoms: C_59  and  C_61
REMARK   38  A    between atoms: O_62  and  C_63
REMARK   39  A    between atoms: C_63  and  C_65
REMARK   40  A    between atoms: C_65  and  C_66
REMARK   41  A    between atoms: C_65  and  N_67
REMARK   42  A    between atoms: N_67  and  C_68
REMARK   43  A    between atoms: N_67  and  C_69
REMARK   44  A    between atoms: O_71  and  C_72
REMARK   45  A    between atoms: O_75  and  C_76
REMARK                            x       y       z     vdW  Elec       q    Type
REMARK                         _______ _______ _______ _____ _____    ______ ____
ROOT
ATOM      1  C   UNL     1     -12.872   6.965  10.137  0.00  0.00    -0.017 C 
ATOM      2  C   UNL     1     -13.425   5.941  11.158  0.00  0.00    -0.045 C 
ATOM      3  C   UNL     1     -12.740   5.993  12.530  0.00  0.00    -0.022 C 
ATOM      4  C   UNL     1     -13.373   5.050  13.574  0.00  0.00    +0.079 C 
ATOM      5  C   UNL     1     -12.799   3.631  13.505  0.00  0.00    -0.048 C 
ATOM      6  C   UNL     1     -11.734   3.275  14.258  0.00  0.00    -0.082 C 
ATOM      7  C   UNL     1     -11.037   1.947  14.374  0.00  0.00    -0.032 C 
ATOM      8  C   UNL     1      -9.597   1.924  13.813  0.00  0.00    -0.038 C 
ATOM      9  C   UNL     1      -8.678   3.058  14.329  0.00  0.00    -0.020 C 
ATOM     10  C   UNL     1      -8.589   3.162  15.861  0.00  0.00    +0.077 C 
ATOM     11  C   UNL     1      -7.761   4.363  16.248  0.00  0.00    -0.059 C 
ATOM     12  C   UNL     1      -8.290   5.595  16.364  0.00  0.00    -0.082 C 
ATOM     13  C   UNL     1      -7.535   6.832  16.776  0.00  0.00    +0.003 C 
ATOM     14  C   UNL     1      -8.340   7.705  17.771  0.00  0.00    +0.112 C 
ATOM     15  O   UNL     1      -9.413   8.337  17.024  0.00  0.00    -0.458 OA
ATOM     16  C   UNL     1     -10.676   7.894  17.202  0.00  0.00    +0.332 C 
ATOM     17  O   UNL     1     -11.051   7.070  18.021  0.00  0.00    -0.246 OA
ATOM     18  C   UNL     1     -11.591   8.493  16.206  0.00  0.00    +0.022 C 
ATOM     19  C   UNL     1     -11.239   9.434  15.315  0.00  0.00    -0.055 C 
ATOM     20  C   UNL     1     -12.144   9.910  14.294  0.00  0.00    -0.065 C 
ATOM     21  C   UNL     1     -11.792  10.812  13.364  0.00  0.00    -0.081 C 
ATOM     22  C   UNL     1     -12.698  11.228  12.234  0.00  0.00    +0.003 C 
ATOM     23  C   UNL     1     -12.214  10.864  10.807  0.00  0.00    +0.111 C 
ATOM     24  C   UNL     1     -11.883   9.376  10.467  0.00  0.00    +0.020 C 
ATOM     25  C   UNL     1     -13.151   8.471  10.443  0.00  0.00    +0.064 C 
ATOM     26  H   UNL     1     -11.794   6.792  10.053  0.00  0.00    +0.032 HD
ATOM     27  H   UNL     1     -14.506   6.081  11.275  0.00  0.00    +0.027 HD
ATOM     28  H   UNL     1     -13.289   4.937  10.742  0.00  0.00    +0.027 HD
ATOM     29  H   UNL     1     -11.669   5.771  12.417  0.00  0.00    +0.029 HD
ATOM     30  H   UNL     1     -12.779   7.011  12.930  0.00  0.00    +0.029 HD
ATOM     31  H   UNL     1     -14.462   5.033  13.439  0.00  0.00    +0.064 HD
ATOM     32  H   UNL     1     -11.307   4.048  14.899  0.00  0.00    +0.057 HD
ATOM     33  H   UNL     1     -11.012   1.680  15.438  0.00  0.00    +0.031 HD
ATOM     34  H   UNL     1     -11.614   1.146  13.900  0.00  0.00    +0.031 HD
ATOM     35  H   UNL     1      -9.152   0.966  14.114  0.00  0.00    +0.030 HD
ATOM     36  H   UNL     1      -9.017   4.015  13.909  0.00  0.00    +0.030 HD
ATOM     37  H   UNL     1      -7.672   2.881  13.925  0.00  0.00    +0.030 HD
ATOM     38  H   UNL     1      -9.591   3.259  16.292  0.00  0.00    +0.064 HD
ATOM     39  H   UNL     1      -6.703   4.195  16.433  0.00  0.00    +0.059 HD
ATOM     40  H   UNL     1      -9.348   5.722  16.135  0.00  0.00    +0.057 HD
ATOM     41  H   UNL     1      -6.577   6.543  17.226  0.00  0.00    +0.034 HD
ATOM     42  H   UNL     1      -7.324   7.404  15.863  0.00  0.00    +0.034 HD
ATOM     43  H   UNL     1      -8.735   7.056  18.561  0.00  0.00    +0.074 HD
ATOM     44  H   UNL     1     -12.588   8.069  16.216  0.00  0.00    +0.069 HD
ATOM     45  H   UNL     1     -10.231   9.840  15.307  0.00  0.00    +0.062 HD
ATOM     46  H   UNL     1     -13.134   9.456  14.250  0.00  0.00    +0.061 HD
ATOM     47  H   UNL     1     -10.800  11.259  13.369  0.00  0.00    +0.057 HD
ATOM     48  H   UNL     1     -13.714  10.857  12.396  0.00  0.00    +0.034 HD
ATOM     49  H   UNL     1     -12.777  12.323  12.294  0.00  0.00    +0.034 HD
ATOM     50  H   UNL     1     -13.019  11.191  10.134  0.00  0.00    +0.074 HD
ATOM     51  H   UNL     1     -11.504   9.376   9.435  0.00  0.00    +0.036 HD
ATOM     52  H   UNL     1     -13.790   8.881   9.648  0.00  0.00    +0.060 HD
ENDROOT
BRANCH   1  53
ATOM     53  C   UNL     1     -13.430   6.628   8.742  0.00  0.00    -0.060 C 
ATOM     54  H   UNL     1     -13.357   7.488   8.067  0.00  0.00    +0.023 HD
ATOM     55  H   UNL     1     -12.882   5.791   8.294  0.00  0.00    +0.023 HD
ATOM     56  H   UNL     1     -14.483   6.333   8.805  0.00  0.00    +0.023 HD
ENDBRANCH   1  53
BRANCH   5  57
ATOM     57  C   UNL     1     -13.525   2.687  12.584  0.00  0.00    -0.041 C 
ATOM     58  H   UNL     1     -13.377   1.650  12.904  0.00  0.00    +0.028 HD
ATOM     59  H   UNL     1     -14.597   2.901  12.585  0.00  0.00    +0.028 HD
ATOM     60  H   UNL     1     -13.179   2.745  11.552  0.00  0.00    +0.028 HD
ENDBRANCH   5  57
BRANCH  24  61
ATOM     61  C   UNL     1     -10.710   8.817  11.286  0.00  0.00    -0.057 C 
ATOM     62  H   UNL     1     -10.139   9.628  11.750  0.00  0.00    +0.023 HD
ATOM     63  H   UNL     1     -10.012   8.244  10.674  0.00  0.00    +0.023 HD
ATOM     64  H   UNL     1     -11.054   8.186  12.110  0.00  0.00    +0.023 HD
ENDBRANCH  24  61
BRANCH   8  65
ATOM     65  C   UNL     1      -9.619   1.946  12.279  0.00  0.00    -0.062 C 
ATOM     66  H   UNL     1     -10.279   1.164  11.887  0.00  0.00    +0.023 HD
ATOM     67  H   UNL     1      -9.968   2.910  11.896  0.00  0.00    +0.023 HD
ATOM     68  H   UNL     1      -8.617   1.766  11.876  0.00  0.00    +0.023 HD
ENDBRANCH   8  65
BRANCH  14  69
ATOM     69  C   UNL     1      -7.456   8.840  18.390  0.00  0.00    +0.020 C 
ATOM     70  H   UNL     1      -8.117   9.472  18.997  0.00  0.00    +0.036 HD
BRANCH  69  71
ATOM     71  C   UNL     1      -6.376   8.248  19.303  0.00  0.00    -0.057 C 
ATOM     72  H   UNL     1      -5.867   9.011  19.893  0.00  0.00    +0.023 HD
ATOM     73  H   UNL     1      -5.615   7.706  18.732  0.00  0.00    +0.023 HD
ATOM     74  H   UNL     1      -6.812   7.546  20.023  0.00  0.00    +0.023 HD
ENDBRANCH  69  71
BRANCH  69  75
ATOM     75  C   UNL     1      -6.896   9.730  17.245  0.00  0.00    +0.064 C 
ATOM     76  H   UNL     1      -7.085   9.234  16.285  0.00  0.00    +0.060 HD
BRANCH  75  77
ATOM     77  C   UNL     1      -5.408  10.181  17.282  0.00  0.00    -0.017 C 
ATOM     78  H   UNL     1      -4.961   9.701  18.165  0.00  0.00    +0.032 HD
BRANCH  77  79
ATOM     79  C   UNL     1      -4.573   9.677  16.098  0.00  0.00    -0.060 C 
ATOM     80  H   UNL     1      -4.148   8.692  16.319  0.00  0.00    +0.023 HD
ATOM     81  H   UNL     1      -5.188   9.560  15.199  0.00  0.00    +0.023 HD
ATOM     82  H   UNL     1      -3.739  10.338  15.859  0.00  0.00    +0.023 HD
ENDBRANCH  77  79
BRANCH  77  83
ATOM     83  C   UNL     1      -5.290  11.699  17.546  0.00  0.00    -0.045 C 
ATOM     84  H   UNL     1      -6.269  12.151  17.333  0.00  0.00    +0.027 HD
ATOM     85  H   UNL     1      -4.583  12.154  16.850  0.00  0.00    +0.027 HD
BRANCH  83  86
ATOM     86  C   UNL     1      -4.874  12.056  18.974  0.00  0.00    -0.015 C 
ATOM     87  H   UNL     1      -4.068  11.387  19.304  0.00  0.00    +0.030 HD
ATOM     88  H   UNL     1      -5.707  11.859  19.662  0.00  0.00    +0.030 HD
BRANCH  86  89
ATOM     89  C   UNL     1      -4.453  13.526  19.184  0.00  0.00    +0.109 C 
ATOM     90  H   UNL     1      -5.374  14.122  19.183  0.00  0.00    +0.074 HD
BRANCH  89  91
ATOM     91  C   UNL     1      -3.507  14.132  18.113  0.00  0.00    +0.031 C 
ATOM     92  H   UNL     1      -3.401  13.381  17.320  0.00  0.00    +0.037 HD
BRANCH  91  93
ATOM     93  C   UNL     1      -2.112  14.431  18.683  0.00  0.00    -0.056 C 
ATOM     94  H   UNL     1      -1.339  13.856  18.162  0.00  0.00    +0.023 HD
ATOM     95  H   UNL     1      -2.055  14.180  19.747  0.00  0.00    +0.023 HD
ATOM     96  H   UNL     1      -1.853  15.490  18.598  0.00  0.00    +0.023 HD
ENDBRANCH  91  93
BRANCH  91  97
ATOM     97  C   UNL     1      -4.116  15.426  17.482  0.00  0.00    +0.115 C 
ATOM     98  H   UNL     1      -3.294  15.977  17.009  0.00  0.00    +0.074 HD
BRANCH  97  99
ATOM     99  C   UNL     1      -5.193  15.146  16.391  0.00  0.00    +0.013 C 
ATOM    100  H   UNL     1      -5.166  14.082  16.132  0.00  0.00    +0.038 HD
BRANCH  99 101
ATOM    101  C   UNL     1      -4.882  15.911  15.096  0.00  0.00    -0.056 C 
ATOM    102  H   UNL     1      -4.248  15.332  14.415  0.00  0.00    +0.024 HD
ATOM    103  H   UNL     1      -4.357  16.850  15.318  0.00  0.00    +0.024 HD
ATOM    104  H   UNL     1      -5.805  16.167  14.567  0.00  0.00    +0.024 HD
ENDBRANCH  99 101
BRANCH  99 105
ATOM    105  C   UNL     1      -6.591  15.527  16.845  0.00  0.00    -0.064 C 
ATOM    106  C   UNL     1      -7.599  14.655  16.971  0.00  0.00    -0.005 C 
ATOM    107  H   UNL     1      -6.726  16.584  17.053  0.00  0.00    +0.059 HD
ATOM    108  H   UNL     1      -7.412  13.603  16.748  0.00  0.00    +0.078 HD
BRANCH 106 109
ATOM    109  N   UNL     1      -8.900  14.931  17.363  0.00  0.00    -0.284 N 
ATOM    110  C   UNL     1      -9.538  16.159  17.237  0.00  0.00    +0.206 C 
ATOM    111  O   UNL     1     -10.684  16.417  17.592  0.00  0.00    -0.279 OA
ATOM    112  H   UNL     1      -8.923  16.937  16.764  0.00  0.00    +0.126 HD
BRANCH 109 113
ATOM    113  C   UNL     1      -9.650  13.845  17.984  0.00  0.00    +0.007 C 
ATOM    114  H   UNL     1     -10.461  14.210  18.617  0.00  0.00    +0.043 HD
ATOM    115  H   UNL     1     -10.074  13.207  17.204  0.00  0.00    +0.043 HD
ATOM    116  H   UNL     1      -8.953  13.267  18.596  0.00  0.00    +0.043 HD
ENDBRANCH 109 113
ENDBRANCH 106 109
ENDBRANCH  99 105
ENDBRANCH  97  99
BRANCH  97 117
ATOM    117  O   UNL     1      -4.726  16.225  18.525  0.00  0.00    -0.461 OA
BRANCH 117 118
ATOM    118  C   UNL     1      -4.115  17.394  18.861  0.00  0.00    +0.304 C 
ATOM    119  O   UNL     1      -3.104  17.500  19.540  0.00  0.00    -0.251 OA
BRANCH 118 120
ATOM    120  C   UNL     1      -4.853  18.548  18.256  0.00  0.00    +0.033 C 
ATOM    121  H   UNL     1      -5.228  18.270  17.269  0.00  0.00    +0.034 HD
ATOM    122  H   UNL     1      -5.676  18.846  18.910  0.00  0.00    +0.034 HD
ATOM    123  H   UNL     1      -4.170  19.395  18.148  0.00  0.00    +0.034 HD
ENDBRANCH 118 120
ENDBRANCH 117 118
ENDBRANCH  97 117
ENDBRANCH  91  97
ENDBRANCH  89  91
BRANCH  89 124
ATOM    124  O   UNL     1      -3.801  13.576  20.476  0.00  0.00    -0.460 OA
BRANCH 124 125
ATOM    125  C   UNL     1      -4.234  14.511  21.362  0.00  0.00    +0.324 C 
ATOM    126  O   UNL     1      -3.478  15.168  22.075  0.00  0.00    -0.249 OA
BRANCH 125 127
ATOM    127  C   UNL     1      -5.756  14.750  21.321  0.00  0.00    +0.105 C 
ATOM    128  H   UNL     1      -6.022  14.753  20.255  0.00  0.00    +0.058 HD
BRANCH 127 129
ATOM    129  C   UNL     1      -6.062  16.161  21.842  0.00  0.00    -0.039 C 
ATOM    130  H   UNL     1      -7.013  16.537  21.444  0.00  0.00    +0.025 HD
ATOM    131  H   UNL     1      -6.105  16.193  22.936  0.00  0.00    +0.025 HD
ATOM    132  H   UNL     1      -5.280  16.864  21.530  0.00  0.00    +0.025 HD
ENDBRANCH 127 129
BRANCH 127 133
ATOM    133  N   UNL     1      -6.636  13.759  21.994  0.00  0.00    -0.296 NA
BRANCH 133 134
ATOM    134  C   UNL     1      -7.901  13.496  21.320  0.00  0.00    -0.012 C 
ATOM    135  H   UNL     1      -8.654  14.258  21.548  0.00  0.00    +0.039 HD
ATOM    136  H   UNL     1      -8.314  12.516  21.568  0.00  0.00    +0.039 HD
ATOM    137  H   UNL     1      -7.762  13.529  20.232  0.00  0.00    +0.039 HD
ENDBRANCH 133 134
BRANCH 133 138
ATOM    138  C   UNL     1      -6.824  14.009  23.418  0.00  0.00    -0.012 C 
ATOM    139  H   UNL     1      -6.197  13.344  24.021  0.00  0.00    +0.039 HD
ATOM    140  H   UNL     1      -7.861  13.794  23.703  0.00  0.00    +0.039 HD
ATOM    141  H   UNL     1      -6.611  15.041  23.710  0.00  0.00    +0.039 HD
ENDBRANCH 133 138
ENDBRANCH 127 133
ENDBRANCH 125 127
ENDBRANCH 124 125
ENDBRANCH  89 124
ENDBRANCH  86  89
ENDBRANCH  83  86
ENDBRANCH  77  83
ENDBRANCH  75  77
BRANCH  75 142
ATOM    142  O   UNL     1      -7.686  10.933  17.217  0.00  0.00    -0.391 OA
ATOM    143  H   UNL     1      -7.512  11.439  18.028  0.00  0.00    +0.210 HD
ENDBRANCH  75 142
ENDBRANCH  69  75
ENDBRANCH  14  69
BRANCH  25 144
ATOM    144  O   UNL     1     -13.910   8.629  11.633  0.00  0.00    -0.391 OA
ATOM    145  H   UNL     1     -13.287   8.662  12.380  0.00  0.00    +0.210 HD
ENDBRANCH  25 144
BRANCH  23 146
ATOM    146  O   UNL     1     -11.055  11.703  10.552  0.00  0.00    -0.460 OA
BRANCH 146 147
ATOM    147  C   UNL     1     -11.278  13.010  10.253  0.00  0.00    +0.327 C 
ATOM    148  O   UNL     1     -10.691  13.944  10.797  0.00  0.00    -0.249 OA
BRANCH 147 149
ATOM    149  C   UNL     1     -12.328  13.219   9.146  0.00  0.00    +0.131 C 
ATOM    150  H   UNL     1     -13.109  12.483   9.386  0.00  0.00    +0.060 HD
BRANCH 149 151
ATOM    151  C   UNL     1     -11.676  12.811   7.805  0.00  0.00    +0.073 C 
ATOM    152  H   UNL     1     -11.667  11.720   7.688  0.00  0.00    +0.058 HD
ATOM    153  H   UNL     1     -12.260  13.219   6.970  0.00  0.00    +0.058 HD
BRANCH 151 154
ATOM    154  O   UNL     1     -10.344  13.327   7.707  0.00  0.00    -0.381 OA
BRANCH 154 155
ATOM    155  C   UNL     1     -10.036  13.738   6.382  0.00  0.00    +0.037 C 
ATOM    156  H   UNL     1     -10.387  14.757   6.201  0.00  0.00    +0.052 HD
ATOM    157  H   UNL     1     -10.483  13.050   5.658  0.00  0.00    +0.052 HD
ATOM    158  H   UNL     1      -8.950  13.715   6.259  0.00  0.00    +0.052 HD
ENDBRANCH 154 155
ENDBRANCH 151 154
ENDBRANCH 149 151
BRANCH 149 159
ATOM    159  N   UNL     1     -12.967  14.573   9.221  0.00  0.00    -0.294 NA
BRANCH 159 160
ATOM    160  C   UNL     1     -14.067  14.592  10.185  0.00  0.00    -0.012 C 
ATOM    161  H   UNL     1     -13.768  14.959  11.171  0.00  0.00    +0.039 HD
ATOM    162  H   UNL     1     -14.483  13.586  10.310  0.00  0.00    +0.039 HD
ATOM    163  H   UNL     1     -14.888  15.216   9.818  0.00  0.00    +0.039 HD
ENDBRANCH 159 160
BRANCH 159 164
ATOM    164  C   UNL     1     -13.413  15.086   7.929  0.00  0.00    -0.012 C 
ATOM    165  H   UNL     1     -12.564  15.509   7.378  0.00  0.00    +0.039 HD
ATOM    166  H   UNL     1     -14.168  15.873   8.027  0.00  0.00    +0.039 HD
ATOM    167  H   UNL     1     -13.824  14.289   7.303  0.00  0.00    +0.039 HD
ENDBRANCH 159 164
ENDBRANCH 149 159
ENDBRANCH 147 149
ENDBRANCH 146 147
ENDBRANCH  23 146
BRANCH   4 168
ATOM    168  O   UNL     1     -13.101   5.643  14.860  0.00  0.00    -0.376 OA
BRANCH 168 169
ATOM    169  C   UNL     1     -14.253   5.727  15.693  0.00  0.00    +0.037 C 
ATOM    170  H   UNL     1     -14.280   4.883  16.388  0.00  0.00    +0.052 HD
ATOM    171  H   UNL     1     -14.276   6.671  16.245  0.00  0.00    +0.052 HD
ATOM    172  H   UNL     1     -15.139   5.678  15.054  0.00  0.00    +0.052 HD
ENDBRANCH 168 169
ENDBRANCH   4 168
BRANCH  10 173
ATOM    173  O   UNL     1      -7.967   1.977  16.362  0.00  0.00    -0.376 OA
BRANCH 173 174
ATOM    174  C   UNL     1      -8.748   1.324  17.356  0.00  0.00    +0.037 C 
ATOM    175  H   UNL     1      -8.609   1.858  18.301  0.00  0.00    +0.052 HD
ATOM    176  H   UNL     1      -9.810   1.351  17.098  0.00  0.00    +0.052 HD
ATOM    177  H   UNL     1      -8.417   0.291  17.491  0.00  0.00    +0.052 HD
ENDBRANCH 173 174
ENDBRANCH  10 173
TORSDOF 45
ENDMDL
MODEL 2
REMARK VINA RESULT:      -5.1      4.486     13.899
REMARK  Name = Aplyronine A_conf2
REMARK  45 active torsions:
REMARK  status: ('A' for Active; 'I' for Inactive)
REMARK    1  A    between atoms: C_1  and  C_2
REMARK    2  A    between atoms: C_5  and  O_75
REMARK    3  A    between atoms: C_6  and  C_74
REMARK    4  A    between atoms: C_9  and  C_73
REMARK    5  A    between atoms: C_11  and  O_71
REMARK    6  A    between atoms: C_15  and  C_39
REMARK    7  A    between atoms: C_24  and  O_29
REMARK    8  A    between atoms: C_25  and  C_28
REMARK    9  A    between atoms: C_26  and  O_27
REMARK   10  A    between atoms: O_29  and  C_30
REMARK   11  A    between atoms: C_30  and  C_32
REMARK   12  A    between atoms: C_32  and  C_33
REMARK   13  A    between atoms: C_32  and  N_36
REMARK   14  A    between atoms: C_33  and  O_34
REMARK   15  A    between atoms: O_34  and  C_35
REMARK   16  A    between atoms: N_36  and  C_37
REMARK   17  A    between atoms: N_36  and  C_38
REMARK   18  A    between atoms: C_39  and  C_40
REMARK   19  A    between atoms: C_39  and  C_41
REMARK   20  A    between atoms: C_41  and  C_42
REMARK   21  A    between atoms: C_41  and  O_70
REMARK   22  A    between atoms: C_42  and  C_43
REMARK   23  A    between atoms: C_42  and  C_44
REMARK   24  A    between atoms: C_44  and  C_45
REMARK   25  A    between atoms: C_45  and  C_46
REMARK   26  A    between atoms: C_46  and  C_47
REMARK   27  A    between atoms: C_46  and  O_62
REMARK   28  A    between atoms: C_47  and  C_48
REMARK   29  A    between atoms: C_47  and  C_49
REMARK   30  A    between atoms: C_49  and  C_50
REMARK   31  A    between atoms: C_49  and  O_58
REMARK   32  A    between atoms: C_50  and  C_51
REMARK   33  A    between atoms: C_50  and  C_52
REMARK   34  A    between atoms: C_53  and  N_54
REMARK   35  A    between atoms: N_54  and  C_55
REMARK   36  A    between atoms: O_58  and  C_59
REMARK   37  A    between atoms: C_59  and  C_61
REMARK   38  A    between atoms: O_62  and  C_63
REMARK   39  A    between atoms: C_63  and  C_65
REMARK   40  A    between atoms: C_65  and  C_66
REMARK   41  A    between atoms: C_65  and  N_67
REMARK   42  A    between atoms: N_67  and  C_68
REMARK   43  A    between atoms: N_67  and  C_69
REMARK   44  A    between atoms: O_71  and  C_72
REMARK   45  A    between atoms: O_75  and  C_76
REMARK                            x       y       z     vdW  Elec       q    Type
REMARK                         _______ _______ _______ _____ _____    ______ ____
ROOT
ATOM      1  C   UNL     1      -9.479  16.024  24.269  0.00  0.00    -0.017 C 
ATOM      2  C   UNL     1      -9.841  16.555  22.860  0.00  0.00    -0.045 C 
ATOM      3  C   UNL     1      -9.418  15.626  21.714  0.00  0.00    -0.022 C 
ATOM      4  C   UNL     1      -9.884  16.108  20.324  0.00  0.00    +0.079 C 
ATOM      5  C   UNL     1      -8.902  17.098  19.689  0.00  0.00    -0.048 C 
ATOM      6  C   UNL     1      -7.906  16.669  18.884  0.00  0.00    -0.082 C 
ATOM      7  C   UNL     1      -6.863  17.456  18.136  0.00  0.00    -0.032 C 
ATOM      8  C   UNL     1      -5.418  17.255  18.644  0.00  0.00    -0.038 C 
ATOM      9  C   UNL     1      -4.974  15.779  18.785  0.00  0.00    -0.020 C 
ATOM     10  C   UNL     1      -5.152  14.934  17.512  0.00  0.00    +0.077 C 
ATOM     11  C   UNL     1      -4.795  13.495  17.796  0.00  0.00    -0.059 C 
ATOM     12  C   UNL     1      -5.685  12.619  18.297  0.00  0.00    -0.082 C 
ATOM     13  C   UNL     1      -5.411  11.163  18.575  0.00  0.00    +0.003 C 
ATOM     14  C   UNL     1      -6.583  10.253  18.131  0.00  0.00    +0.112 C 
ATOM     15  O   UNL     1      -7.672  10.458  19.068  0.00  0.00    -0.458 OA
ATOM     16  C   UNL     1      -8.754  11.160  18.663  0.00  0.00    +0.332 C 
ATOM     17  O   UNL     1      -8.979  11.564  17.534  0.00  0.00    -0.246 OA
ATOM     18  C   UNL     1      -9.647  11.457  19.805  0.00  0.00    +0.022 C 
ATOM     19  C   UNL     1      -9.468  10.999  21.053  0.00  0.00    -0.055 C 
ATOM     20  C   UNL     1     -10.311  11.405  22.155  0.00  0.00    -0.065 C 
ATOM     21  C   UNL     1     -10.115  10.998  23.419  0.00  0.00    -0.081 C 
ATOM     22  C   UNL     1     -10.924  11.505  24.585  0.00  0.00    +0.003 C 
ATOM     23  C   UNL     1     -10.145  12.318  25.650  0.00  0.00    +0.111 C 
ATOM     24  C   UNL     1      -9.330  13.576  25.209  0.00  0.00    +0.020 C 
ATOM     25  C   UNL     1     -10.245  14.749  24.749  0.00  0.00    +0.064 C 
ATOM     26  H   UNL     1      -8.400  15.839  24.280  0.00  0.00    +0.032 HD
ATOM     27  H   UNL     1     -10.919  16.751  22.804  0.00  0.00    +0.027 HD
ATOM     28  H   UNL     1      -9.347  17.522  22.723  0.00  0.00    +0.027 HD
ATOM     29  H   UNL     1      -8.327  15.499  21.726  0.00  0.00    +0.029 HD
ATOM     30  H   UNL     1      -9.824  14.623  21.875  0.00  0.00    +0.029 HD
ATOM     31  H   UNL     1     -10.883  16.555  20.408  0.00  0.00    +0.064 HD
ATOM     32  H   UNL     1      -7.835  15.592  18.725  0.00  0.00    +0.057 HD
ATOM     33  H   UNL     1      -6.918  17.157  17.082  0.00  0.00    +0.031 HD
ATOM     34  H   UNL     1      -7.092  18.527  18.134  0.00  0.00    +0.031 HD
ATOM     35  H   UNL     1      -4.753  17.739  17.916  0.00  0.00    +0.030 HD
ATOM     36  H   UNL     1      -5.521  15.317  19.618  0.00  0.00    +0.030 HD
ATOM     37  H   UNL     1      -3.914  15.775  19.069  0.00  0.00    +0.030 HD
ATOM     38  H   UNL     1      -6.189  14.988  17.164  0.00  0.00    +0.064 HD
ATOM     39  H   UNL     1      -3.777  13.186  17.575  0.00  0.00    +0.059 HD
ATOM     40  H   UNL     1      -6.684  12.982  18.535  0.00  0.00    +0.057 HD
ATOM     41  H   UNL     1      -4.489  10.860  18.064  0.00  0.00    +0.034 HD
ATOM     42  H   UNL     1      -5.250  11.063  19.657  0.00  0.00    +0.034 HD
ATOM     43  H   UNL     1      -6.876  10.537  17.114  0.00  0.00    +0.074 HD
ATOM     44  H   UNL     1     -10.457  12.133  19.561  0.00  0.00    +0.069 HD
ATOM     45  H   UNL     1      -8.642  10.333  21.287  0.00  0.00    +0.062 HD
ATOM     46  H   UNL     1     -11.099  12.129  21.943  0.00  0.00    +0.061 HD
ATOM     47  H   UNL     1      -9.318  10.298  23.661  0.00  0.00    +0.057 HD
ATOM     48  H   UNL     1     -11.792  12.072  24.236  0.00  0.00    +0.034 HD
ATOM     49  H   UNL     1     -11.340  10.615  25.077  0.00  0.00    +0.034 HD
ATOM     50  H   UNL     1     -10.901  12.645  26.378  0.00  0.00    +0.074 HD
ATOM     51  H   UNL     1      -8.819  13.939  26.112  0.00  0.00    +0.036 HD
ATOM     52  H   UNL     1     -10.851  15.012  25.627  0.00  0.00    +0.060 HD
ENDROOT
BRANCH   1  53
ATOM     53  C   UNL     1      -9.693  17.151  25.296  0.00  0.00    -0.060 C 
ATOM     54  H   UNL     1     -10.214  18.003  24.848  0.00  0.00    +0.023 HD
ATOM     55  H   UNL     1     -10.282  16.794  26.148  0.00  0.00    +0.023 HD
ATOM     56  H   UNL     1      -8.733  17.506  25.689  0.00  0.00    +0.023 HD
ENDBRANCH   1  53
BRANCH   5  57
ATOM     57  C   UNL     1      -9.161  18.549  19.999  0.00  0.00    -0.041 C 
ATOM     58  H   UNL     1      -8.935  19.173  19.127  0.00  0.00    +0.028 HD
ATOM     59  H   UNL     1     -10.208  18.701  20.272  0.00  0.00    +0.028 HD
ATOM     60  H   UNL     1      -8.549  18.928  20.817  0.00  0.00    +0.028 HD
ENDBRANCH   5  57
BRANCH  24  61
ATOM     61  C   UNL     1      -8.180  13.242  24.248  0.00  0.00    -0.057 C 
ATOM     62  H   UNL     1      -8.241  12.201  23.913  0.00  0.00    +0.023 HD
ATOM     63  H   UNL     1      -7.201  13.370  24.712  0.00  0.00    +0.023 HD
ATOM     64  H   UNL     1      -8.220  13.850  23.340  0.00  0.00    +0.023 HD
ENDBRANCH  24  61
BRANCH   8  65
ATOM     65  C   UNL     1      -5.215  17.976  19.984  0.00  0.00    -0.062 C 
ATOM     66  H   UNL     1      -4.376  18.678  19.926  0.00  0.00    +0.023 HD
ATOM     67  H   UNL     1      -6.108  18.536  20.278  0.00  0.00    +0.023 HD
ATOM     68  H   UNL     1      -4.992  17.257  20.779  0.00  0.00    +0.023 HD
ENDBRANCH   8  65
BRANCH  14  69
ATOM     69  C   UNL     1      -6.189   8.738  18.181  0.00  0.00    +0.020 C 
ATOM     70  H   UNL     1      -5.092   8.688  18.199  0.00  0.00    +0.036 HD
BRANCH  69  71
ATOM     71  C   UNL     1      -6.726   8.079  19.457  0.00  0.00    -0.057 C 
ATOM     72  H   UNL     1      -7.307   7.180  19.247  0.00  0.00    +0.023 HD
ATOM     73  H   UNL     1      -7.364   8.762  20.027  0.00  0.00    +0.023 HD
ATOM     74  H   UNL     1      -5.906   7.767  20.113  0.00  0.00    +0.023 HD
ENDBRANCH  69  71
BRANCH  69  75
ATOM     75  C   UNL     1      -6.657   8.047  16.869  0.00  0.00    +0.064 C 
ATOM     76  H   UNL     1      -6.666   8.789  16.061  0.00  0.00    +0.060 HD
BRANCH  75  77
ATOM     77  C   UNL     1      -8.008   7.277  16.847  0.00  0.00    -0.017 C 
ATOM     78  H   UNL     1      -8.242   7.033  17.895  0.00  0.00    +0.032 HD
BRANCH  77  79
ATOM     79  C   UNL     1      -9.198   8.118  16.367  0.00  0.00    -0.060 C 
ATOM     80  H   UNL     1     -10.086   7.909  16.972  0.00  0.00    +0.023 HD
ATOM     81  H   UNL     1      -8.994   9.189  16.467  0.00  0.00    +0.023 HD
ATOM     82  H   UNL     1      -9.464   7.916  15.329  0.00  0.00    +0.023 HD
ENDBRANCH  77  79
BRANCH  77  83
ATOM     83  C   UNL     1      -7.863   5.912  16.138  0.00  0.00    -0.045 C 
ATOM     84  H   UNL     1      -6.838   5.556  16.309  0.00  0.00    +0.027 HD
ATOM     85  H   UNL     1      -7.972   6.030  15.059  0.00  0.00    +0.027 HD
BRANCH  83  86
ATOM     86  C   UNL     1      -8.850   4.847  16.620  0.00  0.00    -0.015 C 
ATOM     87  H   UNL     1      -9.700   5.330  17.120  0.00  0.00    +0.030 HD
ATOM     88  H   UNL     1      -8.378   4.229  17.394  0.00  0.00    +0.030 HD
BRANCH  86  89
ATOM     89  C   UNL     1      -9.362   3.888  15.526  0.00  0.00    +0.109 C 
ATOM     90  H   UNL     1      -8.483   3.375  15.118  0.00  0.00    +0.074 HD
BRANCH  89  91
ATOM     91  C   UNL     1     -10.114   4.540  14.334  0.00  0.00    +0.031 C 
ATOM     92  H   UNL     1     -10.136   5.620  14.523  0.00  0.00    +0.037 HD
BRANCH  91  93
ATOM     93  C   UNL     1     -11.563   4.041  14.228  0.00  0.00    -0.056 C 
ATOM     94  H   UNL     1     -11.726   3.159  14.857  0.00  0.00    +0.023 HD
ATOM     95  H   UNL     1     -11.817   3.768  13.199  0.00  0.00    +0.023 HD
ATOM     96  H   UNL     1     -12.283   4.805  14.535  0.00  0.00    +0.023 HD
ENDBRANCH  91  93
BRANCH  91  97
ATOM     97  C   UNL     1      -9.363   4.295  12.985  0.00  0.00    +0.115 C 
ATOM     98  H   UNL     1     -10.104   3.938  12.259  0.00  0.00    +0.074 HD
BRANCH  97  99
ATOM     99  C   UNL     1      -8.696   5.574  12.396  0.00  0.00    +0.013 C 
ATOM    100  H   UNL     1      -7.813   5.820  12.995  0.00  0.00    +0.038 HD
BRANCH  99 101
ATOM    101  C   UNL     1      -9.635   6.785  12.495  0.00  0.00    -0.056 C 
ATOM    102  H   UNL     1      -9.087   7.734  12.500  0.00  0.00    +0.024 HD
ATOM    103  H   UNL     1     -10.228   6.741  13.417  0.00  0.00    +0.024 HD
ATOM    104  H   UNL     1     -10.335   6.801  11.653  0.00  0.00    +0.024 HD
ENDBRANCH  99 101
BRANCH  99 105
ATOM    105  C   UNL     1      -8.294   5.400  10.942  0.00  0.00    -0.064 C 
ATOM    106  C   UNL     1      -7.581   6.299  10.252  0.00  0.00    -0.005 C 
ATOM    107  H   UNL     1      -8.645   4.481  10.482  0.00  0.00    +0.059 HD
ATOM    108  H   UNL     1      -7.253   7.208  10.759  0.00  0.00    +0.078 HD
BRANCH 106 109
ATOM    109  N   UNL     1      -7.193   6.217   8.923  0.00  0.00    -0.284 N 
ATOM    110  C   UNL     1      -7.948   6.631   7.833  0.00  0.00    +0.206 C 
ATOM    111  O   UNL     1      -7.619   6.552   6.654  0.00  0.00    -0.279 OA
ATOM    112  H   UNL     1      -8.918   7.071   8.104  0.00  0.00    +0.126 HD
BRANCH 109 113
ATOM    113  C   UNL     1      -5.891   5.618   8.648  0.00  0.00    +0.007 C 
ATOM    114  H   UNL     1      -5.841   5.172   7.653  0.00  0.00    +0.043 HD
ATOM    115  H   UNL     1      -5.116   6.387   8.727  0.00  0.00    +0.043 HD
ATOM    116  H   UNL     1      -5.717   4.840   9.397  0.00  0.00    +0.043 HD
ENDBRANCH 109 113
ENDBRANCH 106 109
ENDBRANCH  99 105
ENDBRANCH  97  99
BRANCH  97 117
ATOM    117  O   UNL     1      -8.332   3.298  13.186  0.00  0.00    -0.461 OA
BRANCH 117 118
ATOM    118  C   UNL     1      -8.437   2.134  12.489  0.00  0.00    +0.304 C 
ATOM    119  O   UNL     1      -9.412   1.397  12.476  0.00  0.00    -0.251 OA
BRANCH 118 120
ATOM    120  C   UNL     1      -7.181   1.889  11.712  0.00  0.00    +0.033 C 
ATOM    121  H   UNL     1      -7.125   2.584  10.871  0.00  0.00    +0.034 HD
ATOM    122  H   UNL     1      -6.311   2.004  12.364  0.00  0.00    +0.034 HD
ATOM    123  H   UNL     1      -7.191   0.867  11.323  0.00  0.00    +0.034 HD
ENDBRANCH 118 120
ENDBRANCH 117 118
ENDBRANCH  97 117
ENDBRANCH  91  97
ENDBRANCH  89  91
BRANCH  89 124
ATOM    124  O   UNL     1     -10.247   2.955  16.191  0.00  0.00    -0.460 OA
BRANCH 124 125
ATOM    125  C   UNL     1      -9.951   1.632  16.098  0.00  0.00    +0.324 C 
ATOM    126  O   UNL     1     -10.687   0.811  15.554  0.00  0.00    -0.249 OA
BRANCH 125 127
ATOM    127  C   UNL     1      -8.557   1.266  16.644  0.00  0.00    +0.105 C 
ATOM    128  H   UNL     1      -7.987   2.206  16.643  0.00  0.00    +0.058 HD
BRANCH 127 129
ATOM    129  C   UNL     1      -7.850   0.337  15.647  0.00  0.00    -0.039 C 
ATOM    130  H   UNL     1      -6.760   0.381  15.765  0.00  0.00    +0.025 HD
ATOM    131  H   UNL     1      -8.172  -0.704  15.759  0.00  0.00    +0.025 HD
ATOM    132  H   UNL     1      -8.077   0.636  14.617  0.00  0.00    +0.025 HD
ENDBRANCH 127 129
BRANCH 127 133
ATOM    133  N   UNL     1      -8.473   0.698  18.015  0.00  0.00    -0.296 NA
BRANCH 133 134
ATOM    134  C   UNL     1      -7.922  -0.649  18.094  0.00  0.00    -0.012 C 
ATOM    135  H   UNL     1      -7.952  -1.163  17.128  0.00  0.00    +0.039 HD
ATOM    136  H   UNL     1      -8.434  -1.270  18.833  0.00  0.00    +0.039 HD
ATOM    137  H   UNL     1      -6.863  -0.606  18.378  0.00  0.00    +0.039 HD
ENDBRANCH 133 134
BRANCH 133 138
ATOM    138  C   UNL     1      -9.707   0.823  18.781  0.00  0.00    -0.012 C 
ATOM    139  H   UNL     1     -10.574   0.912  18.119  0.00  0.00    +0.039 HD
ATOM    140  H   UNL     1      -9.685   1.741  19.381  0.00  0.00    +0.039 HD
ATOM    141  H   UNL     1      -9.881  -0.012  19.465  0.00  0.00    +0.039 HD
ENDBRANCH 133 138
ENDBRANCH 127 133
ENDBRANCH 125 127
ENDBRANCH 124 125
ENDBRANCH  89 124
ENDBRANCH  86  89
ENDBRANCH  83  86
ENDBRANCH  77  83
ENDBRANCH  75  77
BRANCH  75 142
ATOM    142  O   UNL     1      -5.640   7.096  16.504  0.00  0.00    -0.391 OA
ATOM    143  H   UNL     1      -4.827   7.580  16.281  0.00  0.00    +0.210 HD
ENDBRANCH  75 142
ENDBRANCH  69  75
ENDBRANCH  14  69
BRANCH  25 144
ATOM    144  O   UNL     1     -11.185  14.310  23.780  0.00  0.00    -0.391 OA
ATOM    145  H   UNL     1     -11.191  14.960  23.056  0.00  0.00    +0.210 HD
ENDBRANCH  25 144
BRANCH  23 146
ATOM    146  O   UNL     1      -9.270  11.367  26.317  0.00  0.00    -0.460 OA
BRANCH 146 147
ATOM    147  C   UNL     1      -9.405  11.225  27.662  0.00  0.00    +0.327 C 
ATOM    148  O   UNL     1      -9.783  12.125  28.409  0.00  0.00    -0.249 OA
BRANCH 147 149
ATOM    149  C   UNL     1      -9.058   9.813  28.170  0.00  0.00    +0.131 C 
ATOM    150  H   UNL     1      -7.973   9.857  28.341  0.00  0.00    +0.060 HD
BRANCH 149 151
ATOM    151  C   UNL     1      -9.324   8.824  27.011  0.00  0.00    +0.073 C 
ATOM    152  H   UNL     1     -10.116   8.113  27.276  0.00  0.00    +0.058 HD
ATOM    153  H   UNL     1      -9.667   9.374  26.126  0.00  0.00    +0.058 HD
BRANCH 151 154
ATOM    154  O   UNL     1      -8.129   8.119  26.658  0.00  0.00    -0.381 OA
BRANCH 154 155
ATOM    155  C   UNL     1      -8.289   6.713  26.789  0.00  0.00    +0.037 C 
ATOM    156  H   UNL     1      -8.939   6.322  26.001  0.00  0.00    +0.052 HD
ATOM    157  H   UNL     1      -8.700   6.469  27.773  0.00  0.00    +0.052 HD
ATOM    158  H   UNL     1      -7.306   6.244  26.695  0.00  0.00    +0.052 HD
ENDBRANCH 154 155
ENDBRANCH 151 154
ENDBRANCH 149 151
BRANCH 149 159
ATOM    159  N   UNL     1      -9.696   9.515  29.493  0.00  0.00    -0.294 NA
BRANCH 159 160
ATOM    160  C   UNL     1      -8.836   8.673  30.324  0.00  0.00    -0.012 C 
ATOM    161  H   UNL     1      -9.019   8.796  31.395  0.00  0.00    +0.039 HD
ATOM    162  H   UNL     1      -7.781   8.898  30.133  0.00  0.00    +0.039 HD
ATOM    163  H   UNL     1      -8.971   7.618  30.069  0.00  0.00    +0.039 HD
ENDBRANCH 159 160
BRANCH 159 164
ATOM    164  C   UNL     1     -11.030   8.933  29.387  0.00  0.00    -0.012 C 
ATOM    165  H   UNL     1     -10.983   7.977  28.853  0.00  0.00    +0.039 HD
ATOM    166  H   UNL     1     -11.730   9.579  28.847  0.00  0.00    +0.039 HD
ATOM    167  H   UNL     1     -11.451   8.716  30.374  0.00  0.00    +0.039 HD
ENDBRANCH 159 164
ENDBRANCH 149 159
ENDBRANCH 147 149
ENDBRANCH 146 147
ENDBRANCH  23 146
BRANCH   4 168
ATOM    168  O   UNL     1     -10.001  14.922  19.513  0.00  0.00    -0.376 OA
BRANCH 168 169
ATOM    169  C   UNL     1     -11.267  14.803  18.874  0.00  0.00    +0.037 C 
ATOM    170  H   UNL     1     -11.247  13.992  18.141  0.00  0.00    +0.052 HD
ATOM    171  H   UNL     1     -12.066  14.633  19.601  0.00  0.00    +0.052 HD
ATOM    172  H   UNL     1     -11.472  15.740  18.348  0.00  0.00    +0.052 HD
ENDBRANCH 168 169
ENDBRANCH   4 168
BRANCH  10 173
ATOM    173  O   UNL     1      -4.281  15.447  16.501  0.00  0.00    -0.376 OA
BRANCH 173 174
ATOM    174  C   UNL     1      -4.957  15.709  15.276  0.00  0.00    +0.037 C 
ATOM    175  H   UNL     1      -4.282  16.280  14.632  0.00  0.00    +0.052 HD
ATOM    176  H   UNL     1      -5.214  14.777  14.765  0.00  0.00    +0.052 HD
ATOM    177  H   UNL     1      -5.856  16.306  15.451  0.00  0.00    +0.052 HD
ENDBRANCH 173 174
ENDBRANCH  10 173
TORSDOF 45
ENDMDL
MODEL 3
REMARK VINA RESULT:      -5.0      4.684     13.109
REMARK  Name = Aplyronine A_conf2
REMARK  45 active torsions:
REMARK  status: ('A' for Active; 'I' for Inactive)
REMARK    1  A    between atoms: C_1  and  C_2
REMARK    2  A    between atoms: C_5  and  O_75
REMARK    3  A    between atoms: C_6  and  C_74
REMARK    4  A    between atoms: C_9  and  C_73
REMARK    5  A    between atoms: C_11  and  O_71
REMARK    6  A    between atoms: C_15  and  C_39
REMARK    7  A    between atoms: C_24  and  O_29
REMARK    8  A    between atoms: C_25  and  C_28
REMARK    9  A    between atoms: C_26  and  O_27
REMARK   10  A    between atoms: O_29  and  C_30
REMARK   11  A    between atoms: C_30  and  C_32
REMARK   12  A    between atoms: C_32  and  C_33
REMARK   13  A    between atoms: C_32  and  N_36
REMARK   14  A    between atoms: C_33  and  O_34
REMARK   15  A    between atoms: O_34  and  C_35
REMARK   16  A    between atoms: N_36  and  C_37
REMARK   17  A    between atoms: N_36  and  C_38
REMARK   18  A    between atoms: C_39  and  C_40
REMARK   19  A    between atoms: C_39  and  C_41
REMARK   20  A    between atoms: C_41  and  C_42
REMARK   21  A    between atoms: C_41  and  O_70
REMARK   22  A    between atoms: C_42  and  C_43
REMARK   23  A    between atoms: C_42  and  C_44
REMARK   24  A    between atoms: C_44  and  C_45
REMARK   25  A    between atoms: C_45  and  C_46
REMARK   26  A    between atoms: C_46  and  C_47
REMARK   27  A    between atoms: C_46  and  O_62
REMARK   28  A    between atoms: C_47  and  C_48
REMARK   29  A    between atoms: C_47  and  C_49
REMARK   30  A    between atoms: C_49  and  C_50
REMARK   31  A    between atoms: C_49  and  O_58
REMARK   32  A    between atoms: C_50  and  C_51
REMARK   33  A    between atoms: C_50  and  C_52
REMARK   34  A    between atoms: C_53  and  N_54
REMARK   35  A    between atoms: N_54  and  C_55
REMARK   36  A    between atoms: O_58  and  C_59
REMARK   37  A    between atoms: C_59  and  C_61
REMARK   38  A    between atoms: O_62  and  C_63
REMARK   39  A    between atoms: C_63  and  C_65
REMARK   40  A    between atoms: C_65  and  C_66
REMARK   41  A    between atoms: C_65  and  N_67
REMARK   42  A    between atoms: N_67  and  C_68
REMARK   43  A    between atoms: N_67  and  C_69
REMARK   44  A    between atoms: O_71  and  C_72
REMARK   45  A    between atoms: O_75  and  C_76
REMARK                            x       y       z     vdW  Elec       q    Type
REMARK                         _______ _______ _______ _____ _____    ______ ____
ROOT
ATOM      1  C   UNL     1      -9.068  16.149  24.578  0.00  0.00    -0.017 C 
ATOM      2  C   UNL     1      -9.269  16.811  23.192  0.00  0.00    -0.045 C 
ATOM      3  C   UNL     1      -8.845  15.929  22.011  0.00  0.00    -0.022 C 
ATOM      4  C   UNL     1      -9.155  16.550  20.633  0.00  0.00    +0.079 C 
ATOM      5  C   UNL     1      -8.040  17.482  20.147  0.00  0.00    -0.048 C 
ATOM      6  C   UNL     1      -7.027  17.016  19.384  0.00  0.00    -0.082 C 
ATOM      7  C   UNL     1      -5.862  17.748  18.776  0.00  0.00    -0.032 C 
ATOM      8  C   UNL     1      -4.485  17.372  19.367  0.00  0.00    -0.038 C 
ATOM      9  C   UNL     1      -4.192  15.853  19.424  0.00  0.00    -0.020 C 
ATOM     10  C   UNL     1      -4.346  15.121  18.080  0.00  0.00    +0.077 C 
ATOM     11  C   UNL     1      -4.147  13.638  18.276  0.00  0.00    -0.059 C 
ATOM     12  C   UNL     1      -5.150  12.820  18.643  0.00  0.00    -0.082 C 
ATOM     13  C   UNL     1      -5.034  11.328  18.826  0.00  0.00    +0.003 C 
ATOM     14  C   UNL     1      -6.247  10.570  18.231  0.00  0.00    +0.112 C 
ATOM     15  O   UNL     1      -7.382  10.814  19.102  0.00  0.00    -0.458 OA
ATOM     16  C   UNL     1      -8.359  11.645  18.677  0.00  0.00    +0.332 C 
ATOM     17  O   UNL     1      -8.457  12.148  17.570  0.00  0.00    -0.246 OA
ATOM     18  C   UNL     1      -9.308  11.947  19.772  0.00  0.00    +0.022 C 
ATOM     19  C   UNL     1      -9.269  11.387  20.991  0.00  0.00    -0.055 C 
ATOM     20  C   UNL     1     -10.155  11.794  22.058  0.00  0.00    -0.065 C 
ATOM     21  C   UNL     1     -10.095  11.282  23.297  0.00  0.00    -0.081 C 
ATOM     22  C   UNL     1     -10.943  11.782  24.439  0.00  0.00    +0.003 C 
ATOM     23  C   UNL     1     -10.177  12.437  25.616  0.00  0.00    +0.111 C 
ATOM     24  C   UNL     1      -9.218  13.638  25.333  0.00  0.00    +0.020 C 
ATOM     25  C   UNL     1      -9.983  14.925  24.903  0.00  0.00    +0.064 C 
ATOM     26  H   UNL     1      -8.014  15.860  24.651  0.00  0.00    +0.032 HD
ATOM     27  H   UNL     1     -10.316  17.114  23.076  0.00  0.00    +0.027 HD
ATOM     28  H   UNL     1      -8.678  17.732  23.166  0.00  0.00    +0.027 HD
ATOM     29  H   UNL     1      -7.774  15.695  22.090  0.00  0.00    +0.029 HD
ATOM     30  H   UNL     1      -9.353  14.961  22.064  0.00  0.00    +0.029 HD
ATOM     31  H   UNL     1     -10.112  17.085  20.680  0.00  0.00    +0.064 HD
ATOM     32  H   UNL     1      -7.043  15.951  19.147  0.00  0.00    +0.057 HD
ATOM     33  H   UNL     1      -5.862  17.531  17.700  0.00  0.00    +0.031 HD
ATOM     34  H   UNL     1      -5.989  18.834  18.840  0.00  0.00    +0.031 HD
ATOM     35  H   UNL     1      -3.723  17.838  18.727  0.00  0.00    +0.030 HD
ATOM     36  H   UNL     1      -4.841  15.389  20.178  0.00  0.00    +0.030 HD
ATOM     37  H   UNL     1      -3.161  15.725  19.782  0.00  0.00    +0.030 HD
ATOM     38  H   UNL     1      -5.344  15.301  17.665  0.00  0.00    +0.064 HD
ATOM     39  H   UNL     1      -3.148  13.247  18.105  0.00  0.00    +0.059 HD
ATOM     40  H   UNL     1      -6.127  13.261  18.837  0.00  0.00    +0.057 HD
ATOM     41  H   UNL     1      -4.107  10.973  18.359  0.00  0.00    +0.034 HD
ATOM     42  H   UNL     1      -4.968  11.136  19.905  0.00  0.00    +0.034 HD
ATOM     43  H   UNL     1      -6.432  10.952  17.220  0.00  0.00    +0.074 HD
ATOM     44  H   UNL     1     -10.031  12.714  19.524  0.00  0.00    +0.069 HD
ATOM     45  H   UNL     1      -8.528  10.628  21.230  0.00  0.00    +0.062 HD
ATOM     46  H   UNL     1     -10.853  12.605  21.848  0.00  0.00    +0.061 HD
ATOM     47  H   UNL     1      -9.388  10.492  23.540  0.00  0.00    +0.057 HD
ATOM     48  H   UNL     1     -11.725  12.454  24.074  0.00  0.00    +0.034 HD
ATOM     49  H   UNL     1     -11.476  10.904  24.830  0.00  0.00    +0.034 HD
ATOM     50  H   UNL     1     -10.954  12.785  26.312  0.00  0.00    +0.074 HD
ATOM     51  H   UNL     1      -8.748  13.885  26.296  0.00  0.00    +0.036 HD
ATOM     52  H   UNL     1     -10.628  15.182  25.753  0.00  0.00    +0.060 HD
ENDROOT
BRANCH   1  53
ATOM     53  C   UNL     1      -9.256  17.216  25.672  0.00  0.00    -0.060 C 
ATOM     54  H   UNL     1      -8.373  17.283  26.316  0.00  0.00    +0.023 HD
ATOM     55  H   UNL     1      -9.435  18.201  25.228  0.00  0.00    +0.023 HD
ATOM     56  H   UNL     1     -10.120  16.978  26.302  0.00  0.00    +0.023 HD
ENDBRANCH   1  53
BRANCH   5  57
ATOM     57  C   UNL     1      -8.187  18.926  20.550  0.00  0.00    -0.041 C 
ATOM     58  H   UNL     1      -8.956  19.416  19.942  0.00  0.00    +0.028 HD
ATOM     59  H   UNL     1      -8.475  19.002  21.601  0.00  0.00    +0.028 HD
ATOM     60  H   UNL     1      -7.273  19.504  20.417  0.00  0.00    +0.028 HD
ENDBRANCH   5  57
BRANCH  24  61
ATOM     61  C   UNL     1      -8.032  13.262  24.433  0.00  0.00    -0.057 C 
ATOM     62  H   UNL     1      -7.398  12.513  24.918  0.00  0.00    +0.023 HD
ATOM     63  H   UNL     1      -7.397  14.119  24.206  0.00  0.00    +0.023 HD
ATOM     64  H   UNL     1      -8.362  12.810  23.494  0.00  0.00    +0.023 HD
ENDBRANCH  24  61
BRANCH   8  65
ATOM     65  C   UNL     1      -4.322  17.973  20.770  0.00  0.00    -0.062 C 
ATOM     66  H   UNL     1      -3.867  17.248  21.454  0.00  0.00    +0.023 HD
ATOM     67  H   UNL     1      -3.692  18.867  20.753  0.00  0.00    +0.023 HD
ATOM     68  H   UNL     1      -5.295  18.254  21.185  0.00  0.00    +0.023 HD
ENDBRANCH   8  65
BRANCH  14  69
ATOM     69  C   UNL     1      -5.999   9.024  18.191  0.00  0.00    +0.020 C 
ATOM     70  H   UNL     1      -4.917   8.871  18.082  0.00  0.00    +0.036 HD
BRANCH  69  71
ATOM     71  C   UNL     1      -6.453   8.368  19.500  0.00  0.00    -0.057 C 
ATOM     72  H   UNL     1      -5.637   8.261  20.216  0.00  0.00    +0.023 HD
ATOM     73  H   UNL     1      -6.877   7.373  19.329  0.00  0.00    +0.023 HD
ATOM     74  H   UNL     1      -7.219   8.973  19.997  0.00  0.00    +0.023 HD
ENDBRANCH  69  71
BRANCH  69  75
ATOM     75  C   UNL     1      -6.674   8.434  16.921  0.00  0.00    +0.064 C 
ATOM     76  H   UNL     1      -6.233   8.903  16.034  0.00  0.00    +0.060 HD
BRANCH  75  77
ATOM     77  C   UNL     1      -8.223   8.479  16.784  0.00  0.00    -0.017 C 
ATOM     78  H   UNL     1      -8.594   9.041  17.655  0.00  0.00    +0.032 HD
BRANCH  77  79
ATOM     79  C   UNL     1      -8.719   9.270  15.568  0.00  0.00    -0.060 C 
ATOM     80  H   UNL     1      -7.988  10.033  15.281  0.00  0.00    +0.023 HD
ATOM     81  H   UNL     1      -8.853   8.620  14.698  0.00  0.00    +0.023 HD
ATOM     82  H   UNL     1      -9.661   9.787  15.758  0.00  0.00    +0.023 HD
ENDBRANCH  77  79
BRANCH  77  83
ATOM     83  C   UNL     1      -8.838   7.068  16.923  0.00  0.00    -0.045 C 
ATOM     84  H   UNL     1      -8.045   6.337  16.716  0.00  0.00    +0.027 HD
ATOM     85  H   UNL     1      -9.607   6.911  16.166  0.00  0.00    +0.027 HD
BRANCH  83  86
ATOM     86  C   UNL     1      -9.437   6.778  18.301  0.00  0.00    -0.015 C 
ATOM     87  H   UNL     1      -9.376   7.677  18.928  0.00  0.00    +0.030 HD
ATOM     88  H   UNL     1      -8.825   6.028  18.819  0.00  0.00    +0.030 HD
BRANCH  86  89
ATOM     89  C   UNL     1     -10.886   6.248  18.286  0.00  0.00    +0.109 C 
ATOM     90  H   UNL     1     -11.286   6.453  17.285  0.00  0.00    +0.074 HD
BRANCH  89  91
ATOM     91  C   UNL     1     -11.862   6.879  19.316  0.00  0.00    +0.031 C 
ATOM     92  H   UNL     1     -11.773   6.293  20.239  0.00  0.00    +0.037 HD
BRANCH  91  93
ATOM     93  C   UNL     1     -13.320   6.811  18.839  0.00  0.00    -0.056 C 
ATOM     94  H   UNL     1     -14.013   7.087  19.640  0.00  0.00    +0.023 HD
ATOM     95  H   UNL     1     -13.583   5.803  18.503  0.00  0.00    +0.023 HD
ATOM     96  H   UNL     1     -13.507   7.479  17.994  0.00  0.00    +0.023 HD
ENDBRANCH  91  93
BRANCH  91  97
ATOM     97  C   UNL     1     -11.471   8.358  19.637  0.00  0.00    +0.115 C 
ATOM     98  H   UNL     1     -10.452   8.515  19.265  0.00  0.00    +0.074 HD
BRANCH  97  99
ATOM     99  C   UNL     1     -12.394   9.413  18.956  0.00  0.00    +0.013 C 
ATOM    100  H   UNL     1     -13.267   8.902  18.537  0.00  0.00    +0.038 HD
BRANCH  99 101
ATOM    101  C   UNL     1     -11.684  10.091  17.775  0.00  0.00    -0.056 C 
ATOM    102  H   UNL     1     -10.610   9.872  17.757  0.00  0.00    +0.024 HD
ATOM    103  H   UNL     1     -11.797  11.182  17.829  0.00  0.00    +0.024 HD
ATOM    104  H   UNL     1     -12.116   9.762  16.824  0.00  0.00    +0.024 HD
ENDBRANCH  99 101
BRANCH  99 105
ATOM    105  C   UNL     1     -12.849  10.493  19.922  0.00  0.00    -0.064 C 
ATOM    106  C   UNL     1     -13.018  11.777  19.581  0.00  0.00    -0.005 C 
ATOM    107  H   UNL     1     -13.019  10.149  20.938  0.00  0.00    +0.059 HD
ATOM    108  H   UNL     1     -12.832  12.073  18.547  0.00  0.00    +0.078 HD
BRANCH 106 109
ATOM    109  N   UNL     1     -13.413  12.817  20.408  0.00  0.00    -0.284 N 
ATOM    110  C   UNL     1     -12.622  13.897  20.782  0.00  0.00    +0.206 C 
ATOM    111  O   UNL     1     -12.958  14.816  21.523  0.00  0.00    -0.279 OA
ATOM    112  H   UNL     1     -11.615  13.887  20.343  0.00  0.00    +0.126 HD
BRANCH 109 113
ATOM    113  C   UNL     1     -14.765  12.756  20.951  0.00  0.00    +0.007 C 
ATOM    114  H   UNL     1     -15.246  11.795  20.759  0.00  0.00    +0.043 HD
ATOM    115  H   UNL     1     -14.727  12.919  22.032  0.00  0.00    +0.043 HD
ATOM    116  H   UNL     1     -15.351  13.549  20.478  0.00  0.00    +0.043 HD
ENDBRANCH 109 113
ENDBRANCH 106 109
ENDBRANCH  99 105
ENDBRANCH  97  99
BRANCH  97 117
ATOM    117  O   UNL     1     -11.525   8.567  21.069  0.00  0.00    -0.461 OA
BRANCH 117 118
ATOM    118  C   UNL     1     -10.575   7.959  21.830  0.00  0.00    +0.304 C 
ATOM    119  O   UNL     1      -9.373   7.965  21.609  0.00  0.00    -0.251 OA
BRANCH 118 120
ATOM    120  C   UNL     1     -11.214   7.290  23.007  0.00  0.00    +0.033 C 
ATOM    121  H   UNL     1     -10.510   7.256  23.841  0.00  0.00    +0.034 HD
ATOM    122  H   UNL     1     -12.122   7.828  23.293  0.00  0.00    +0.034 HD
ATOM    123  H   UNL     1     -11.488   6.266  22.736  0.00  0.00    +0.034 HD
ENDBRANCH 118 120
ENDBRANCH 117 118
ENDBRANCH  97 117
ENDBRANCH  91  97
ENDBRANCH  89  91
BRANCH  89 124
ATOM    124  O   UNL     1     -10.795   4.824  18.529  0.00  0.00    -0.460 OA
BRANCH 124 125
ATOM    125  C   UNL     1     -11.245   3.990  17.554  0.00  0.00    +0.324 C 
ATOM    126  O   UNL     1     -12.409   3.599  17.486  0.00  0.00    -0.249 OA
BRANCH 125 127
ATOM    127  C   UNL     1     -10.191   3.660  16.481  0.00  0.00    +0.105 C 
ATOM    128  H   UNL     1      -9.978   4.614  15.977  0.00  0.00    +0.058 HD
BRANCH 127 129
ATOM    129  C   UNL     1     -10.817   2.746  15.419  0.00  0.00    -0.039 C 
ATOM    130  H   UNL     1     -10.236   1.825  15.292  0.00  0.00    +0.025 HD
ATOM    131  H   UNL     1     -11.849   2.477  15.667  0.00  0.00    +0.025 HD
ATOM    132  H   UNL     1     -10.842   3.251  14.445  0.00  0.00    +0.025 HD
ENDBRANCH 127 129
BRANCH 127 133
ATOM    133  N   UNL     1      -8.890   3.099  16.931  0.00  0.00    -0.296 NA
BRANCH 133 134
ATOM    134  C   UNL     1      -7.729   3.542  16.171  0.00  0.00    -0.012 C 
ATOM    135  H   UNL     1      -7.949   4.423  15.559  0.00  0.00    +0.039 HD
ATOM    136  H   UNL     1      -7.327   2.761  15.521  0.00  0.00    +0.039 HD
ATOM    137  H   UNL     1      -6.925   3.846  16.854  0.00  0.00    +0.039 HD
ENDBRANCH 133 134
BRANCH 133 138
ATOM    138  C   UNL     1      -8.902   1.650  17.103  0.00  0.00    -0.012 C 
ATOM    139  H   UNL     1      -8.257   1.161  16.365  0.00  0.00    +0.039 HD
ATOM    140  H   UNL     1      -9.912   1.260  16.934  0.00  0.00    +0.039 HD
ATOM    141  H   UNL     1      -8.588   1.329  18.100  0.00  0.00    +0.039 HD
ENDBRANCH 133 138
ENDBRANCH 127 133
ENDBRANCH 125 127
ENDBRANCH 124 125
ENDBRANCH  89 124
ENDBRANCH  86  89
ENDBRANCH  83  86
ENDBRANCH  77  83
ENDBRANCH  75  77
BRANCH  75 142
ATOM    142  O   UNL     1      -6.298   7.046  16.847  0.00  0.00    -0.391 OA
ATOM    143  H   UNL     1      -5.426   6.937  17.261  0.00  0.00    +0.210 HD
ENDBRANCH  75 142
ENDBRANCH  69  75
ENDBRANCH  14  69
BRANCH  25 144
ATOM    144  O   UNL     1     -10.881  14.649  23.838  0.00  0.00    -0.391 OA
ATOM    145  H   UNL     1     -10.664  13.767  23.487  0.00  0.00    +0.210 HD
ENDBRANCH  25 144
BRANCH  23 146
ATOM    146  O   UNL     1      -9.449  11.361  26.268  0.00  0.00    -0.460 OA
BRANCH 146 147
ATOM    147  C   UNL     1      -9.627  11.201  27.606  0.00  0.00    +0.327 C 
ATOM    148  O   UNL     1     -10.096  12.067  28.341  0.00  0.00    -0.249 OA
BRANCH 147 149
ATOM    149  C   UNL     1      -9.202   9.813  28.121  0.00  0.00    +0.131 C 
ATOM    150  H   UNL     1      -8.124   9.922  28.305  0.00  0.00    +0.060 HD
BRANCH 149 151
ATOM    151  C   UNL     1      -9.395   8.808  26.963  0.00  0.00    +0.073 C 
ATOM    152  H   UNL     1     -10.169   8.070  27.207  0.00  0.00    +0.058 HD
ATOM    153  H   UNL     1      -9.729   9.339  26.062  0.00  0.00    +0.058 HD
BRANCH 151 154
ATOM    154  O   UNL     1      -8.165   8.144  26.653  0.00  0.00    -0.381 OA
BRANCH 154 155
ATOM    155  C   UNL     1      -8.208   6.767  27.001  0.00  0.00    +0.037 C 
ATOM    156  H   UNL     1      -7.648   6.583  27.922  0.00  0.00    +0.052 HD
ATOM    157  H   UNL     1      -7.805   6.157  26.186  0.00  0.00    +0.052 HD
ATOM    158  H   UNL     1      -9.251   6.485  27.164  0.00  0.00    +0.052 HD
ENDBRANCH 154 155
ENDBRANCH 151 154
ENDBRANCH 149 151
BRANCH 149 159
ATOM    159  N   UNL     1      -9.837   9.481  29.438  0.00  0.00    -0.294 NA
BRANCH 159 160
ATOM    160  C   UNL     1      -8.920   8.734  30.300  0.00  0.00    -0.012 C 
ATOM    161  H   UNL     1      -9.435   8.084  31.013  0.00  0.00    +0.039 HD
ATOM    162  H   UNL     1      -8.284   9.423  30.868  0.00  0.00    +0.039 HD
ATOM    163  H   UNL     1      -8.242   8.121  29.700  0.00  0.00    +0.039 HD
ENDBRANCH 159 160
BRANCH 159 164
ATOM    164  C   UNL     1     -11.110   8.777  29.318  0.00  0.00    -0.012 C 
ATOM    165  H   UNL     1     -11.105   7.878  29.946  0.00  0.00    +0.039 HD
ATOM    166  H   UNL     1     -11.322   8.461  28.292  0.00  0.00    +0.039 HD
ATOM    167  H   UNL     1     -11.942   9.395  29.669  0.00  0.00    +0.039 HD
ENDBRANCH 159 164
ENDBRANCH 149 159
ENDBRANCH 147 149
ENDBRANCH 146 147
ENDBRANCH  23 146
BRANCH   4 168
ATOM    168  O   UNL     1      -9.317  15.441  19.725  0.00  0.00    -0.376 OA
BRANCH 168 169
ATOM    169  C   UNL     1     -10.296  15.679  18.720  0.00  0.00    +0.037 C 
ATOM    170  H   UNL     1     -10.920  16.535  18.994  0.00  0.00    +0.052 HD
ATOM    171  H   UNL     1      -9.832  15.849  17.745  0.00  0.00    +0.052 HD
ATOM    172  H   UNL     1     -10.934  14.794  18.651  0.00  0.00    +0.052 HD
ENDBRANCH 168 169
ENDBRANCH   4 168
BRANCH  10 173
ATOM    173  O   UNL     1      -3.356  15.617  17.176  0.00  0.00    -0.376 OA
BRANCH 173 174
ATOM    174  C   UNL     1      -2.034  15.256  17.557  0.00  0.00    +0.037 C 
ATOM    175  H   UNL     1      -1.933  14.172  17.449  0.00  0.00    +0.052 HD
ATOM    176  H   UNL     1      -1.296  15.738  16.910  0.00  0.00    +0.052 HD
ATOM    177  H   UNL     1      -1.849  15.518  18.602  0.00  0.00    +0.052 HD
ENDBRANCH 173 174
ENDBRANCH  10 173
TORSDOF 45
ENDMDL
MODEL 4
REMARK VINA RESULT:      -5.0      1.564      3.052
REMARK  Name = Aplyronine A_conf2
REMARK  45 active torsions:
REMARK  status: ('A' for Active; 'I' for Inactive)
REMARK    1  A    between atoms: C_1  and  C_2
REMARK    2  A    between atoms: C_5  and  O_75
REMARK    3  A    between atoms: C_6  and  C_74
REMARK    4  A    between atoms: C_9  and  C_73
REMARK    5  A    between atoms: C_11  and  O_71
REMARK    6  A    between atoms: C_15  and  C_39
REMARK    7  A    between atoms: C_24  and  O_29
REMARK    8  A    between atoms: C_25  and  C_28
REMARK    9  A    between atoms: C_26  and  O_27
REMARK   10  A    between atoms: O_29  and  C_30
REMARK   11  A    between atoms: C_30  and  C_32
REMARK   12  A    between atoms: C_32  and  C_33
REMARK   13  A    between atoms: C_32  and  N_36
REMARK   14  A    between atoms: C_33  and  O_34
REMARK   15  A    between atoms: O_34  and  C_35
REMARK   16  A    between atoms: N_36  and  C_37
REMARK   17  A    between atoms: N_36  and  C_38
REMARK   18  A    between atoms: C_39  and  C_40
REMARK   19  A    between atoms: C_39  and  C_41
REMARK   20  A    between atoms: C_41  and  C_42
REMARK   21  A    between atoms: C_41  and  O_70
REMARK   22  A    between atoms: C_42  and  C_43
REMARK   23  A    between atoms: C_42  and  C_44
REMARK   24  A    between atoms: C_44  and  C_45
REMARK   25  A    between atoms: C_45  and  C_46
REMARK   26  A    between atoms: C_46  and  C_47
REMARK   27  A    between atoms: C_46  and  O_62
REMARK   28  A    between atoms: C_47  and  C_48
REMARK   29  A    between atoms: C_47  and  C_49
REMARK   30  A    between atoms: C_49  and  C_50
REMARK   31  A    between atoms: C_49  and  O_58
REMARK   32  A    between atoms: C_50  and  C_51
REMARK   33  A    between atoms: C_50  and  C_52
REMARK   34  A    between atoms: C_53  and  N_54
REMARK   35  A    between atoms: N_54  and  C_55
REMARK   36  A    between atoms: O_58  and  C_59
REMARK   37  A    between atoms: C_59  and  C_61
REMARK   38  A    between atoms: O_62  and  C_63
REMARK   39  A    between atoms: C_63  and  C_65
REMARK   40  A    between atoms: C_65  and  C_66
REMARK   41  A    between atoms: C_65  and  N_67
REMARK   42  A    between atoms: N_67  and  C_68
REMARK   43  A    between atoms: N_67  and  C_69
REMARK   44  A    between atoms: O_71  and  C_72
REMARK   45  A    between atoms: O_75  and  C_76
REMARK                            x       y       z     vdW  Elec       q    Type
REMARK                         _______ _______ _______ _____ _____    ______ ____
ROOT
ATOM      1  C   UNL     1     -12.871   7.007  10.160  0.00  0.00    -0.017 C 
ATOM      2  C   UNL     1     -13.423   5.982  11.180  0.00  0.00    -0.045 C 
ATOM      3  C   UNL     1     -12.736   6.032  12.551  0.00  0.00    -0.022 C 
ATOM      4  C   UNL     1     -13.369   5.088  13.595  0.00  0.00    +0.079 C 
ATOM      5  C   UNL     1     -12.795   3.669  13.524  0.00  0.00    -0.048 C 
ATOM      6  C   UNL     1     -11.730   3.311  14.274  0.00  0.00    -0.082 C 
ATOM      7  C   UNL     1     -11.033   1.982  14.388  0.00  0.00    -0.032 C 
ATOM      8  C   UNL     1      -9.594   1.960  13.825  0.00  0.00    -0.038 C 
ATOM      9  C   UNL     1      -8.673   3.093  14.340  0.00  0.00    -0.020 C 
ATOM     10  C   UNL     1      -8.582   3.195  15.872  0.00  0.00    +0.077 C 
ATOM     11  C   UNL     1      -7.753   4.395  16.259  0.00  0.00    -0.059 C 
ATOM     12  C   UNL     1      -8.281   5.627  16.379  0.00  0.00    -0.082 C 
ATOM     13  C   UNL     1      -7.524   6.863  16.791  0.00  0.00    +0.003 C 
ATOM     14  C   UNL     1      -8.328   7.735  17.787  0.00  0.00    +0.112 C 
ATOM     15  O   UNL     1      -9.401   8.368  17.043  0.00  0.00    -0.458 OA
ATOM     16  C   UNL     1     -10.665   7.926  17.223  0.00  0.00    +0.332 C 
ATOM     17  O   UNL     1     -11.039   7.102  18.041  0.00  0.00    -0.246 OA
ATOM     18  C   UNL     1     -11.581   8.527  16.228  0.00  0.00    +0.022 C 
ATOM     19  C   UNL     1     -11.229   9.468  15.339  0.00  0.00    -0.055 C 
ATOM     20  C   UNL     1     -12.136   9.947  14.319  0.00  0.00    -0.065 C 
ATOM     21  C   UNL     1     -11.785  10.849  13.390  0.00  0.00    -0.081 C 
ATOM     22  C   UNL     1     -12.692  11.268  12.261  0.00  0.00    +0.003 C 
ATOM     23  C   UNL     1     -12.211  10.905  10.834  0.00  0.00    +0.111 C 
ATOM     24  C   UNL     1     -11.880   9.417  10.491  0.00  0.00    +0.020 C 
ATOM     25  C   UNL     1     -13.149   8.513  10.468  0.00  0.00    +0.064 C 
ATOM     26  H   UNL     1     -11.794   6.834  10.074  0.00  0.00    +0.032 HD
ATOM     27  H   UNL     1     -14.505   6.122  11.299  0.00  0.00    +0.027 HD
ATOM     28  H   UNL     1     -13.289   4.979  10.762  0.00  0.00    +0.027 HD
ATOM     29  H   UNL     1     -11.666   5.810  12.436  0.00  0.00    +0.029 HD
ATOM     30  H   UNL     1     -12.775   7.050  12.952  0.00  0.00    +0.029 HD
ATOM     31  H   UNL     1     -14.458   5.072  13.461  0.00  0.00    +0.064 HD
ATOM     32  H   UNL     1     -11.301   4.083  14.915  0.00  0.00    +0.057 HD
ATOM     33  H   UNL     1     -11.007   1.714  15.451  0.00  0.00    +0.031 HD
ATOM     34  H   UNL     1     -11.610   1.182  13.913  0.00  0.00    +0.031 HD
ATOM     35  H   UNL     1      -9.149   1.001  14.124  0.00  0.00    +0.030 HD
ATOM     36  H   UNL     1      -9.012   4.050  13.922  0.00  0.00    +0.030 HD
ATOM     37  H   UNL     1      -7.668   2.916  13.935  0.00  0.00    +0.030 HD
ATOM     38  H   UNL     1      -9.583   3.292  16.305  0.00  0.00    +0.064 HD
ATOM     39  H   UNL     1      -6.695   4.226  16.443  0.00  0.00    +0.059 HD
ATOM     40  H   UNL     1      -9.339   5.755  16.151  0.00  0.00    +0.057 HD
ATOM     41  H   UNL     1      -6.566   6.573  17.239  0.00  0.00    +0.034 HD
ATOM     42  H   UNL     1      -7.315   7.436  15.879  0.00  0.00    +0.034 HD
ATOM     43  H   UNL     1      -8.722   7.085  18.577  0.00  0.00    +0.074 HD
ATOM     44  H   UNL     1     -12.577   8.103  16.240  0.00  0.00    +0.069 HD
ATOM     45  H   UNL     1     -10.221   9.874  15.329  0.00  0.00    +0.062 HD
ATOM     46  H   UNL     1     -13.126   9.493  14.276  0.00  0.00    +0.061 HD
ATOM     47  H   UNL     1     -10.793  11.296  13.394  0.00  0.00    +0.057 HD
ATOM     48  H   UNL     1     -13.708  10.897  12.424  0.00  0.00    +0.034 HD
ATOM     49  H   UNL     1     -12.771  12.362  12.323  0.00  0.00    +0.034 HD
ATOM     50  H   UNL     1     -13.016  11.233  10.162  0.00  0.00    +0.074 HD
ATOM     51  H   UNL     1     -11.503   9.418   9.459  0.00  0.00    +0.036 HD
ATOM     52  H   UNL     1     -13.789   8.924   9.674  0.00  0.00    +0.060 HD
ENDROOT
BRANCH   1  53
ATOM     53  C   UNL     1     -13.431   6.672   8.765  0.00  0.00    -0.060 C 
ATOM     54  H   UNL     1     -13.247   5.625   8.504  0.00  0.00    +0.023 HD
ATOM     55  H   UNL     1     -14.511   6.852   8.725  0.00  0.00    +0.023 HD
ATOM     56  H   UNL     1     -12.966   7.301   7.998  0.00  0.00    +0.023 HD
ENDBRANCH   1  53
BRANCH   5  57
ATOM     57  C   UNL     1     -13.523   2.727  12.602  0.00  0.00    -0.041 C 
ATOM     58  H   UNL     1     -13.126   1.710  12.703  0.00  0.00    +0.028 HD
ATOM     59  H   UNL     1     -14.589   2.708  12.840  0.00  0.00    +0.028 HD
ATOM     60  H   UNL     1     -13.424   2.994  11.550  0.00  0.00    +0.028 HD
ENDBRANCH   5  57
BRANCH  24  61
ATOM     61  C   UNL     1     -10.707   8.856  11.308  0.00  0.00    -0.057 C 
ATOM     62  H   UNL     1      -9.763   8.980  10.767  0.00  0.00    +0.023 HD
ATOM     63  H   UNL     1     -10.818   7.792  11.517  0.00  0.00    +0.023 HD
ATOM     64  H   UNL     1     -10.580   9.389  12.254  0.00  0.00    +0.023 HD
ENDBRANCH  24  61
BRANCH   8  65
ATOM     65  C   UNL     1      -9.618   1.984  12.291  0.00  0.00    -0.062 C 
ATOM     66  H   UNL     1     -10.577   1.615  11.910  0.00  0.00    +0.023 HD
ATOM     67  H   UNL     1      -9.464   2.995  11.902  0.00  0.00    +0.023 HD
ATOM     68  H   UNL     1      -8.830   1.343  11.882  0.00  0.00    +0.023 HD
ENDBRANCH   8  65
BRANCH  14  69
ATOM     69  C   UNL     1      -7.442   8.869  18.407  0.00  0.00    +0.020 C 
ATOM     70  H   UNL     1      -8.103   9.504  19.012  0.00  0.00    +0.036 HD
BRANCH  69  71
ATOM     71  C   UNL     1      -6.365   8.276  19.323  0.00  0.00    -0.057 C 
ATOM     72  H   UNL     1      -6.184   7.219  19.121  0.00  0.00    +0.023 HD
ATOM     73  H   UNL     1      -6.635   8.370  20.379  0.00  0.00    +0.023 HD
ATOM     74  H   UNL     1      -5.405   8.783  19.179  0.00  0.00    +0.023 HD
ENDBRANCH  69  71
BRANCH  69  75
ATOM     75  C   UNL     1      -6.878   9.757  17.262  0.00  0.00    +0.064 C 
ATOM     76  H   UNL     1      -7.134   9.298  16.299  0.00  0.00    +0.060 HD
BRANCH  75  77
ATOM     77  C   UNL     1      -5.366  10.121  17.247  0.00  0.00    -0.017 C 
ATOM     78  H   UNL     1      -4.911   9.584  18.093  0.00  0.00    +0.032 HD
BRANCH  77  79
ATOM     79  C   UNL     1      -4.614   9.614  16.011  0.00  0.00    -0.060 C 
ATOM     80  H   UNL     1      -3.542   9.821  16.101  0.00  0.00    +0.023 HD
ATOM     81  H   UNL     1      -4.717   8.530  15.899  0.00  0.00    +0.023 HD
ATOM     82  H   UNL     1      -4.953  10.088  15.089  0.00  0.00    +0.023 HD
ENDBRANCH  77  79
BRANCH  77  83
ATOM     83  C   UNL     1      -5.150  11.619  17.558  0.00  0.00    -0.045 C 
ATOM     84  H   UNL     1      -6.061  12.156  17.263  0.00  0.00    +0.027 HD
ATOM     85  H   UNL     1      -4.343  12.023  16.945  0.00  0.00    +0.027 HD
BRANCH  83  86
ATOM     86  C   UNL     1      -4.848  11.918  19.028  0.00  0.00    -0.015 C 
ATOM     87  H   UNL     1      -3.785  11.733  19.233  0.00  0.00    +0.030 HD
ATOM     88  H   UNL     1      -5.388  11.208  19.667  0.00  0.00    +0.030 HD
BRANCH  86  89
ATOM     89  C   UNL     1      -5.232  13.335  19.500  0.00  0.00    +0.109 C 
ATOM     90  H   UNL     1      -5.770  13.809  18.669  0.00  0.00    +0.074 HD
BRANCH  89  91
ATOM     91  C   UNL     1      -4.059  14.275  19.889  0.00  0.00    +0.031 C 
ATOM     92  H   UNL     1      -3.142  13.820  19.495  0.00  0.00    +0.037 HD
BRANCH  91  93
ATOM     93  C   UNL     1      -3.913  14.408  21.413  0.00  0.00    -0.056 C 
ATOM     94  H   UNL     1      -3.590  15.415  21.694  0.00  0.00    +0.023 HD
ATOM     95  H   UNL     1      -3.178  13.699  21.806  0.00  0.00    +0.023 HD
ATOM     96  H   UNL     1      -4.853  14.204  21.934  0.00  0.00    +0.023 HD
ENDBRANCH  91  93
BRANCH  91  97
ATOM     97  C   UNL     1      -4.222  15.687  19.241  0.00  0.00    +0.115 C 
ATOM     98  H   UNL     1      -3.954  16.430  20.003  0.00  0.00    +0.074 HD
BRANCH  97  99
ATOM     99  C   UNL     1      -3.303  15.921  18.004  0.00  0.00    +0.013 C 
ATOM    100  H   UNL     1      -3.105  16.994  17.908  0.00  0.00    +0.038 HD
BRANCH  99 101
ATOM    101  C   UNL     1      -4.002  15.495  16.706  0.00  0.00    -0.056 C 
ATOM    102  H   UNL     1      -3.411  15.742  15.816  0.00  0.00    +0.024 HD
ATOM    103  H   UNL     1      -4.973  15.996  16.606  0.00  0.00    +0.024 HD
ATOM    104  H   UNL     1      -4.187  14.415  16.703  0.00  0.00    +0.024 HD
ENDBRANCH  99 101
BRANCH  99 105
ATOM    105  C   UNL     1      -1.989  15.167  18.108  0.00  0.00    -0.064 C 
ATOM    106  C   UNL     1      -0.941  15.589  18.826  0.00  0.00    -0.005 C 
ATOM    107  H   UNL     1      -1.949  14.246  17.534  0.00  0.00    +0.059 HD
ATOM    108  H   UNL     1      -1.030  16.522  19.385  0.00  0.00    +0.078 HD
BRANCH 106 109
ATOM    109  N   UNL     1       0.291  14.965  18.954  0.00  0.00    -0.284 N 
ATOM    110  C   UNL     1       0.932  14.231  17.964  0.00  0.00    +0.206 C 
ATOM    111  O   UNL     1       2.015  13.665  18.071  0.00  0.00    -0.279 OA
ATOM    112  H   UNL     1       0.383  14.189  17.013  0.00  0.00    +0.126 HD
BRANCH 109 113
ATOM    113  C   UNL     1       0.955  15.067  20.249  0.00  0.00    +0.007 C 
ATOM    114  H   UNL     1       1.739  15.827  20.255  0.00  0.00    +0.043 HD
ATOM    115  H   UNL     1       0.216  15.320  21.015  0.00  0.00    +0.043 HD
ATOM    116  H   UNL     1       1.400  14.094  20.473  0.00  0.00    +0.043 HD
ENDBRANCH 109 113
ENDBRANCH 106 109
ENDBRANCH  99 105
ENDBRANCH  97  99
BRANCH  97 117
ATOM    117  O   UNL     1      -5.597  15.866  18.823  0.00  0.00    -0.461 OA
BRANCH 117 118
ATOM    118  C   UNL     1      -6.227  17.010  19.204  0.00  0.00    +0.304 C 
ATOM    119  O   UNL     1      -6.538  17.933  18.465  0.00  0.00    -0.251 OA
BRANCH 118 120
ATOM    120  C   UNL     1      -6.513  16.971  20.673  0.00  0.00    +0.033 C 
ATOM    121  H   UNL     1      -7.332  17.654  20.908  0.00  0.00    +0.034 HD
ATOM    122  H   UNL     1      -6.765  15.952  20.976  0.00  0.00    +0.034 HD
ATOM    123  H   UNL     1      -5.623  17.287  21.223  0.00  0.00    +0.034 HD
ENDBRANCH 118 120
ENDBRANCH 117 118
ENDBRANCH  97 117
ENDBRANCH  91  97
ENDBRANCH  89  91
BRANCH  89 124
ATOM    124  O   UNL     1      -6.097  13.156  20.647  0.00  0.00    -0.460 OA
BRANCH 124 125
ATOM    125  C   UNL     1      -7.433  13.328  20.459  0.00  0.00    +0.324 C 
ATOM    126  O   UNL     1      -8.003  13.083  19.398  0.00  0.00    -0.249 OA
BRANCH 125 127
ATOM    127  C   UNL     1      -8.189  13.761  21.730  0.00  0.00    +0.105 C 
ATOM    128  H   UNL     1      -8.536  14.784  21.530  0.00  0.00    +0.058 HD
BRANCH 127 129
ATOM    129  C   UNL     1      -7.199  13.866  22.898  0.00  0.00    -0.039 C 
ATOM    130  H   UNL     1      -7.625  13.453  23.821  0.00  0.00    +0.025 HD
ATOM    131  H   UNL     1      -6.258  13.348  22.685  0.00  0.00    +0.025 HD
ATOM    132  H   UNL     1      -6.951  14.915  23.098  0.00  0.00    +0.025 HD
ENDBRANCH 127 129
BRANCH 127 133
ATOM    133  N   UNL     1      -9.375  12.964  22.140  0.00  0.00    -0.296 NA
BRANCH 133 134
ATOM    134  C   UNL     1     -10.656  13.471  21.664  0.00  0.00    -0.012 C 
ATOM    135  H   UNL     1     -10.561  13.993  20.706  0.00  0.00    +0.039 HD
ATOM    136  H   UNL     1     -11.135  14.144  22.378  0.00  0.00    +0.039 HD
ATOM    137  H   UNL     1     -11.347  12.638  21.483  0.00  0.00    +0.039 HD
ENDBRANCH 133 134
BRANCH 133 138
ATOM    138  C   UNL     1      -9.413  12.655  23.565  0.00  0.00    -0.012 C 
ATOM    139  H   UNL     1      -8.480  12.185  23.890  0.00  0.00    +0.039 HD
ATOM    140  H   UNL     1     -10.210  11.930  23.770  0.00  0.00    +0.039 HD
ATOM    141  H   UNL     1      -9.596  13.530  24.195  0.00  0.00    +0.039 HD
ENDBRANCH 133 138
ENDBRANCH 127 133
ENDBRANCH 125 127
ENDBRANCH 124 125
ENDBRANCH  89 124
ENDBRANCH  86  89
ENDBRANCH  83  86
ENDBRANCH  77  83
ENDBRANCH  75  77
BRANCH  75 142
ATOM    142  O   UNL     1      -7.598  11.002  17.297  0.00  0.00    -0.391 OA
ATOM    143  H   UNL     1      -8.239  11.012  16.567  0.00  0.00    +0.210 HD
ENDBRANCH  75 142
ENDBRANCH  69  75
ENDBRANCH  14  69
BRANCH  25 144
ATOM    144  O   UNL     1     -13.906   8.670  11.659  0.00  0.00    -0.391 OA
ATOM    145  H   UNL     1     -13.734   9.563  12.005  0.00  0.00    +0.210 HD
ENDBRANCH  25 144
BRANCH  23 146
ATOM    146  O   UNL     1     -11.051  11.743  10.577  0.00  0.00    -0.460 OA
BRANCH 146 147
ATOM    147  C   UNL     1     -11.275  13.044  10.252  0.00  0.00    +0.327 C 
ATOM    148  O   UNL     1     -10.687  13.989  10.773  0.00  0.00    -0.249 OA
BRANCH 147 149
ATOM    149  C   UNL     1     -12.329  13.229   9.144  0.00  0.00    +0.131 C 
ATOM    150  H   UNL     1     -13.105  12.492   9.397  0.00  0.00    +0.060 HD
BRANCH 149 151
ATOM    151  C   UNL     1     -11.678  12.804   7.808  0.00  0.00    +0.073 C 
ATOM    152  H   UNL     1     -11.667  11.712   7.705  0.00  0.00    +0.058 HD
ATOM    153  H   UNL     1     -12.263  13.200   6.968  0.00  0.00    +0.058 HD
BRANCH 151 154
ATOM    154  O   UNL     1     -10.347  13.322   7.701  0.00  0.00    -0.381 OA
BRANCH 154 155
ATOM    155  C   UNL     1     -10.055  13.753   6.379  0.00  0.00    +0.037 C 
ATOM    156  H   UNL     1     -10.147  12.924   5.672  0.00  0.00    +0.052 HD
ATOM    157  H   UNL     1      -9.048  14.178   6.334  0.00  0.00    +0.052 HD
ATOM    158  H   UNL     1     -10.773  14.529   6.103  0.00  0.00    +0.052 HD
ENDBRANCH 154 155
ENDBRANCH 151 154
ENDBRANCH 149 151
BRANCH 149 159
ATOM    159  N   UNL     1     -12.977  14.580   9.200  0.00  0.00    -0.294 NA
BRANCH 159 160
ATOM    160  C   UNL     1     -14.083  14.603  10.157  0.00  0.00    -0.012 C 
ATOM    161  H   UNL     1     -14.928  15.212   9.822  0.00  0.00    +0.039 HD
ATOM    162  H   UNL     1     -13.745  14.996  11.122  0.00  0.00    +0.039 HD
ATOM    163  H   UNL     1     -14.443  13.589  10.352  0.00  0.00    +0.039 HD
ENDBRANCH 159 160
BRANCH 159 164
ATOM    164  C   UNL     1     -13.417  15.077   7.900  0.00  0.00    -0.012 C 
ATOM    165  H   UNL     1     -12.581  15.070   7.190  0.00  0.00    +0.039 HD
ATOM    166  H   UNL     1     -13.801  16.101   7.948  0.00  0.00    +0.039 HD
ATOM    167  H   UNL     1     -14.193  14.436   7.470  0.00  0.00    +0.039 HD
ENDBRANCH 159 164
ENDBRANCH 149 159
ENDBRANCH 147 149
ENDBRANCH 146 147
ENDBRANCH  23 146
BRANCH   4 168
ATOM    168  O   UNL     1     -13.094   5.680  14.881  0.00  0.00    -0.376 OA
BRANCH 168 169
ATOM    169  C   UNL     1     -14.232   5.711  15.737  0.00  0.00    +0.037 C 
ATOM    170  H   UNL     1     -14.635   4.703  15.867  0.00  0.00    +0.052 HD
ATOM    171  H   UNL     1     -13.986   6.146  16.709  0.00  0.00    +0.052 HD
ATOM    172  H   UNL     1     -14.997   6.332  15.264  0.00  0.00    +0.052 HD
ENDBRANCH 168 169
ENDBRANCH   4 168
BRANCH  10 173
ATOM    173  O   UNL     1      -7.959   2.008  16.371  0.00  0.00    -0.376 OA
BRANCH 173 174
ATOM    174  C   UNL     1      -8.754   1.339  17.343  0.00  0.00    +0.037 C 
ATOM    175  H   UNL     1      -9.640   0.940  16.841  0.00  0.00    +0.052 HD
ATOM    176  H   UNL     1      -8.205   0.504  17.788  0.00  0.00    +0.052 HD
ATOM    177  H   UNL     1      -9.080   2.035  18.121  0.00  0.00    +0.052 HD
ENDBRANCH 173 174
ENDBRANCH  10 173
TORSDOF 45
ENDMDL
MODEL 5
REMARK VINA RESULT:      -5.0      4.672     13.561
REMARK  Name = Aplyronine A_conf2
REMARK  45 active torsions:
REMARK  status: ('A' for Active; 'I' for Inactive)
REMARK    1  A    between atoms: C_1  and  C_2
REMARK    2  A    between atoms: C_5  and  O_75
REMARK    3  A    between atoms: C_6  and  C_74
REMARK    4  A    between atoms: C_9  and  C_73
REMARK    5  A    between atoms: C_11  and  O_71
REMARK    6  A    between atoms: C_15  and  C_39
REMARK    7  A    between atoms: C_24  and  O_29
REMARK    8  A    between atoms: C_25  and  C_28
REMARK    9  A    between atoms: C_26  and  O_27
REMARK   10  A    between atoms: O_29  and  C_30
REMARK   11  A    between atoms: C_30  and  C_32
REMARK   12  A    between atoms: C_32  and  C_33
REMARK   13  A    between atoms: C_32  and  N_36
REMARK   14  A    between atoms: C_33  and  O_34
REMARK   15  A    between atoms: O_34  and  C_35
REMARK   16  A    between atoms: N_36  and  C_37
REMARK   17  A    between atoms: N_36  and  C_38
REMARK   18  A    between atoms: C_39  and  C_40
REMARK   19  A    between atoms: C_39  and  C_41
REMARK   20  A    between atoms: C_41  and  C_42
REMARK   21  A    between atoms: C_41  and  O_70
REMARK   22  A    between atoms: C_42  and  C_43
REMARK   23  A    between atoms: C_42  and  C_44
REMARK   24  A    between atoms: C_44  and  C_45
REMARK   25  A    between atoms: C_45  and  C_46
REMARK   26  A    between atoms: C_46  and  C_47
REMARK   27  A    between atoms: C_46  and  O_62
REMARK   28  A    between atoms: C_47  and  C_48
REMARK   29  A    between atoms: C_47  and  C_49
REMARK   30  A    between atoms: C_49  and  C_50
REMARK   31  A    between atoms: C_49  and  O_58
REMARK   32  A    between atoms: C_50  and  C_51
REMARK   33  A    between atoms: C_50  and  C_52
REMARK   34  A    between atoms: C_53  and  N_54
REMARK   35  A    between atoms: N_54  and  C_55
REMARK   36  A    between atoms: O_58  and  C_59
REMARK   37  A    between atoms: C_59  and  C_61
REMARK   38  A    between atoms: O_62  and  C_63
REMARK   39  A    between atoms: C_63  and  C_65
REMARK   40  A    between atoms: C_65  and  C_66
REMARK   41  A    between atoms: C_65  and  N_67
REMARK   42  A    between atoms: N_67  and  C_68
REMARK   43  A    between atoms: N_67  and  C_69
REMARK   44  A    between atoms: O_71  and  C_72
REMARK   45  A    between atoms: O_75  and  C_76
REMARK                            x       y       z     vdW  Elec       q    Type
REMARK                         _______ _______ _______ _____ _____    ______ ____
ROOT
ATOM      1  C   UNL     1      -8.989  16.355  24.606  0.00  0.00    -0.017 C 
ATOM      2  C   UNL     1      -9.364  16.930  23.218  0.00  0.00    -0.045 C 
ATOM      3  C   UNL     1      -9.024  16.003  22.044  0.00  0.00    -0.022 C 
ATOM      4  C   UNL     1      -9.506  16.534  20.678  0.00  0.00    +0.079 C 
ATOM      5  C   UNL     1      -8.492  17.483  20.030  0.00  0.00    -0.048 C 
ATOM      6  C   UNL     1      -7.544  17.017  19.187  0.00  0.00    -0.082 C 
ATOM      7  C   UNL     1      -6.484  17.763  18.421  0.00  0.00    -0.032 C 
ATOM      8  C   UNL     1      -5.037  17.477  18.881  0.00  0.00    -0.038 C 
ATOM      9  C   UNL     1      -4.668  15.977  18.983  0.00  0.00    -0.020 C 
ATOM     10  C   UNL     1      -4.927  15.166  17.702  0.00  0.00    +0.077 C 
ATOM     11  C   UNL     1      -4.640  13.705  17.951  0.00  0.00    -0.059 C 
ATOM     12  C   UNL     1      -5.559  12.868  18.464  0.00  0.00    -0.082 C 
ATOM     13  C   UNL     1      -5.355  11.395  18.709  0.00  0.00    +0.003 C 
ATOM     14  C   UNL     1      -6.586  10.555  18.286  0.00  0.00    +0.112 C 
ATOM     15  O   UNL     1      -7.634  10.800  19.259  0.00  0.00    -0.458 OA
ATOM     16  C   UNL     1      -8.688  11.565  18.899  0.00  0.00    +0.332 C 
ATOM     17  O   UNL     1      -8.925  12.001  17.784  0.00  0.00    -0.246 OA
ATOM     18  C   UNL     1      -9.530  11.887  20.072  0.00  0.00    +0.022 C 
ATOM     19  C   UNL     1      -9.339  11.398  21.307  0.00  0.00    -0.055 C 
ATOM     20  C   UNL     1     -10.126  11.827  22.441  0.00  0.00    -0.065 C 
ATOM     21  C   UNL     1      -9.914  11.386  23.691  0.00  0.00    -0.081 C 
ATOM     22  C   UNL     1     -10.660  11.913  24.890  0.00  0.00    +0.003 C 
ATOM     23  C   UNL     1      -9.808  12.664  25.944  0.00  0.00    +0.111 C 
ATOM     24  C   UNL     1      -8.941  13.886  25.500  0.00  0.00    +0.020 C 
ATOM     25  C   UNL     1      -9.806  15.114  25.088  0.00  0.00    +0.064 C 
ATOM     26  H   UNL     1      -7.921  16.114  24.581  0.00  0.00    +0.032 HD
ATOM     27  H   UNL     1     -10.431  17.184  23.199  0.00  0.00    +0.027 HD
ATOM     28  H   UNL     1      -8.823  17.872  23.083  0.00  0.00    +0.027 HD
ATOM     29  H   UNL     1      -7.942  15.818  22.021  0.00  0.00    +0.029 HD
ATOM     30  H   UNL     1      -9.478  15.019  22.201  0.00  0.00    +0.029 HD
ATOM     31  H   UNL     1     -10.477  17.030  20.799  0.00  0.00    +0.064 HD
ATOM     32  H   UNL     1      -7.535  15.941  19.008  0.00  0.00    +0.057 HD
ATOM     33  H   UNL     1      -6.586  17.487  17.364  0.00  0.00    +0.031 HD
ATOM     34  H   UNL     1      -6.655  18.844  18.444  0.00  0.00    +0.031 HD
ATOM     35  H   UNL     1      -4.369  17.939  18.141  0.00  0.00    +0.030 HD
ATOM     36  H   UNL     1      -5.213  15.529  19.825  0.00  0.00    +0.030 HD
ATOM     37  H   UNL     1      -3.601  15.912  19.235  0.00  0.00    +0.030 HD
ATOM     38  H   UNL     1      -5.970  15.281  17.387  0.00  0.00    +0.064 HD
ATOM     39  H   UNL     1      -3.646  13.348  17.694  0.00  0.00    +0.059 HD
ATOM     40  H   UNL     1      -6.530  13.278  18.738  0.00  0.00    +0.057 HD
ATOM     41  H   UNL     1      -4.466  11.054  18.164  0.00  0.00    +0.034 HD
ATOM     42  H   UNL     1      -5.167  11.266  19.783  0.00  0.00    +0.034 HD
ATOM     43  H   UNL     1      -6.893  10.873  17.282  0.00  0.00    +0.074 HD
ATOM     44  H   UNL     1     -10.311  12.609  19.865  0.00  0.00    +0.069 HD
ATOM     45  H   UNL     1      -8.542  10.685  21.504  0.00  0.00    +0.062 HD
ATOM     46  H   UNL     1     -10.880  12.595  22.266  0.00  0.00    +0.061 HD
ATOM     47  H   UNL     1      -9.148  10.641  23.897  0.00  0.00    +0.057 HD
ATOM     48  H   UNL     1     -11.507  12.532  24.577  0.00  0.00    +0.034 HD
ATOM     49  H   UNL     1     -11.108  11.037  25.379  0.00  0.00    +0.034 HD
ATOM     50  H   UNL     1     -10.523  13.017  26.700  0.00  0.00    +0.074 HD
ATOM     51  H   UNL     1      -8.385  14.205  26.393  0.00  0.00    +0.036 HD
ATOM     52  H   UNL     1     -10.371  15.391  25.989  0.00  0.00    +0.060 HD
ENDROOT
BRANCH   1  53
ATOM     53  C   UNL     1      -9.112  17.472  25.659  0.00  0.00    -0.060 C 
ATOM     54  H   UNL     1      -8.557  18.366  25.355  0.00  0.00    +0.023 HD
ATOM     55  H   UNL     1     -10.160  17.751  25.810  0.00  0.00    +0.023 HD
ATOM     56  H   UNL     1      -8.719  17.140  26.626  0.00  0.00    +0.023 HD
ENDBRANCH   1  53
BRANCH   5  57
ATOM     57  C   UNL     1      -8.665  18.939  20.372  0.00  0.00    -0.041 C 
ATOM     58  H   UNL     1      -9.676  19.126  20.749  0.00  0.00    +0.028 HD
ATOM     59  H   UNL     1      -7.947  19.239  21.140  0.00  0.00    +0.028 HD
ATOM     60  H   UNL     1      -8.526  19.600  19.516  0.00  0.00    +0.028 HD
ENDBRANCH   5  57
BRANCH  24  61
ATOM     61  C   UNL     1      -7.839  13.511  24.498  0.00  0.00    -0.057 C 
ATOM     62  H   UNL     1      -7.117  12.824  24.953  0.00  0.00    +0.023 HD
ATOM     63  H   UNL     1      -7.278  14.380  24.154  0.00  0.00    +0.023 HD
ATOM     64  H   UNL     1      -8.242  12.985  23.628  0.00  0.00    +0.023 HD
ENDBRANCH  24  61
BRANCH   8  65
ATOM     65  C   UNL     1      -4.757  18.161  20.226  0.00  0.00    -0.062 C 
ATOM     66  H   UNL     1      -4.370  17.441  20.956  0.00  0.00    +0.023 HD
ATOM     67  H   UNL     1      -4.025  18.968  20.122  0.00  0.00    +0.023 HD
ATOM     68  H   UNL     1      -5.675  18.590  20.639  0.00  0.00    +0.023 HD
ENDBRANCH   8  65
BRANCH  14  69
ATOM     69  C   UNL     1      -6.270   9.021  18.298  0.00  0.00    +0.020 C 
ATOM     70  H   UNL     1      -5.182   8.914  18.400  0.00  0.00    +0.036 HD
BRANCH  69  71
ATOM     71  C   UNL     1      -6.941   8.339  19.496  0.00  0.00    -0.057 C 
ATOM     72  H   UNL     1      -6.217   7.898  20.182  0.00  0.00    +0.023 HD
ATOM     73  H   UNL     1      -7.625   7.546  19.179  0.00  0.00    +0.023 HD
ATOM     74  H   UNL     1      -7.520   9.060  20.085  0.00  0.00    +0.023 HD
ENDBRANCH  69  71
BRANCH  69  75
ATOM     75  C   UNL     1      -6.664   8.411  16.922  0.00  0.00    +0.064 C 
ATOM     76  H   UNL     1      -6.128   8.948  16.130  0.00  0.00    +0.060 HD
BRANCH  75  77
ATOM     77  C   UNL     1      -8.164   8.315  16.526  0.00  0.00    -0.017 C 
ATOM     78  H   UNL     1      -8.739   8.590  17.424  0.00  0.00    +0.032 HD
BRANCH  77  79
ATOM     79  C   UNL     1      -8.594   9.332  15.461  0.00  0.00    -0.060 C 
ATOM     80  H   UNL     1      -9.083  10.194  15.927  0.00  0.00    +0.023 HD
ATOM     81  H   UNL     1      -7.732   9.719  14.909  0.00  0.00    +0.023 HD
ATOM     82  H   UNL     1      -9.301   8.915  14.743  0.00  0.00    +0.023 HD
ENDBRANCH  77  79
BRANCH  77  83
ATOM     83  C   UNL     1      -8.570   6.857  16.218  0.00  0.00    -0.045 C 
ATOM     84  H   UNL     1      -8.528   6.293  17.160  0.00  0.00    +0.027 HD
ATOM     85  H   UNL     1      -7.845   6.393  15.548  0.00  0.00    +0.027 HD
BRANCH  83  86
ATOM     86  C   UNL     1      -9.966   6.709  15.610  0.00  0.00    -0.015 C 
ATOM     87  H   UNL     1      -9.887   6.299  14.595  0.00  0.00    +0.030 HD
ATOM     88  H   UNL     1     -10.420   7.701  15.481  0.00  0.00    +0.030 HD
BRANCH  86  89
ATOM     89  C   UNL     1     -10.955   5.865  16.440  0.00  0.00    +0.109 C 
ATOM     90  H   UNL     1     -11.934   5.956  15.955  0.00  0.00    +0.074 HD
BRANCH  89  91
ATOM     91  C   UNL     1     -11.134   6.276  17.927  0.00  0.00    +0.031 C 
ATOM     92  H   UNL     1     -10.281   6.916  18.186  0.00  0.00    +0.037 HD
BRANCH  91  93
ATOM     93  C   UNL     1     -11.125   5.059  18.864  0.00  0.00    -0.056 C 
ATOM     94  H   UNL     1     -10.577   4.221  18.421  0.00  0.00    +0.023 HD
ATOM     95  H   UNL     1     -12.142   4.716  19.081  0.00  0.00    +0.023 HD
ATOM     96  H   UNL     1     -10.660   5.287  19.827  0.00  0.00    +0.023 HD
ENDBRANCH  91  93
BRANCH  91  97
ATOM     97  C   UNL     1     -12.444   7.103  18.134  0.00  0.00    +0.115 C 
ATOM     98  H   UNL     1     -13.060   6.562  18.863  0.00  0.00    +0.074 HD
BRANCH  97  99
ATOM     99  C   UNL     1     -12.201   8.539  18.689  0.00  0.00    +0.013 C 
ATOM    100  H   UNL     1     -13.168   8.996  18.923  0.00  0.00    +0.038 HD
BRANCH  99 101
ATOM    101  C   UNL     1     -11.546   9.438  17.630  0.00  0.00    -0.056 C 
ATOM    102  H   UNL     1     -11.533   8.969  16.639  0.00  0.00    +0.024 HD
ATOM    103  H   UNL     1     -10.506   9.663  17.902  0.00  0.00    +0.024 HD
ATOM    104  H   UNL     1     -12.079  10.391  17.549  0.00  0.00    +0.024 HD
ENDBRANCH  99 101
BRANCH  99 105
ATOM    105  C   UNL     1     -11.320   8.541  19.926  0.00  0.00    -0.064 C 
ATOM    106  C   UNL     1     -11.731   8.137  21.135  0.00  0.00    -0.005 C 
ATOM    107  H   UNL     1     -10.314   8.915  19.765  0.00  0.00    +0.059 HD
ATOM    108  H   UNL     1     -12.752   7.770  21.245  0.00  0.00    +0.078 HD
BRANCH 106 109
ATOM    109  N   UNL     1     -10.992   8.125  22.308  0.00  0.00    -0.284 N 
ATOM    110  C   UNL     1      -9.607   8.045  22.391  0.00  0.00    +0.206 C 
ATOM    111  O   UNL     1      -8.946   8.022  23.423  0.00  0.00    -0.279 OA
ATOM    112  H   UNL     1      -9.103   8.010  21.415  0.00  0.00    +0.126 HD
BRANCH 109 113
ATOM    113  C   UNL     1     -11.737   8.173  23.561  0.00  0.00    +0.007 C 
ATOM    114  H   UNL     1     -11.587   9.112  24.098  0.00  0.00    +0.043 HD
ATOM    115  H   UNL     1     -12.805   8.057  23.351  0.00  0.00    +0.043 HD
ATOM    116  H   UNL     1     -11.391   7.346  24.187  0.00  0.00    +0.043 HD
ENDBRANCH 109 113
ENDBRANCH 106 109
ENDBRANCH  99 105
ENDBRANCH  97  99
BRANCH  97 117
ATOM    117  O   UNL     1     -13.142   7.218  16.871  0.00  0.00    -0.461 OA
BRANCH 117 118
ATOM    118  C   UNL     1     -14.476   6.948  16.861  0.00  0.00    +0.304 C 
ATOM    119  O   UNL     1     -15.165   6.724  17.846  0.00  0.00    -0.251 OA
BRANCH 118 120
ATOM    120  C   UNL     1     -14.995   6.988  15.458  0.00  0.00    +0.033 C 
ATOM    121  H   UNL     1     -16.087   7.002  15.468  0.00  0.00    +0.034 HD
ATOM    122  H   UNL     1     -14.605   7.870  14.941  0.00  0.00    +0.034 HD
ATOM    123  H   UNL     1     -14.660   6.096  14.923  0.00  0.00    +0.034 HD
ENDBRANCH 118 120
ENDBRANCH 117 118
ENDBRANCH  97 117
ENDBRANCH  91  97
ENDBRANCH  89  91
BRANCH  89 124
ATOM    124  O   UNL     1     -10.468   4.503  16.381  0.00  0.00    -0.460 OA
BRANCH 124 125
ATOM    125  C   UNL     1     -10.490   3.880  15.173  0.00  0.00    +0.324 C 
ATOM    126  O   UNL     1     -11.489   3.829  14.458  0.00  0.00    -0.249 OA
BRANCH 125 127
ATOM    127  C   UNL     1      -9.121   3.331  14.730  0.00  0.00    +0.105 C 
ATOM    128  H   UNL     1      -8.407   3.676  15.492  0.00  0.00    +0.058 HD
BRANCH 127 129
ATOM    129  C   UNL     1      -8.704   4.007  13.416  0.00  0.00    -0.039 C 
ATOM    130  H   UNL     1      -7.629   4.224  13.402  0.00  0.00    +0.025 HD
ATOM    131  H   UNL     1      -8.947   3.391  12.544  0.00  0.00    +0.025 HD
ATOM    132  H   UNL     1      -9.229   4.962  13.293  0.00  0.00    +0.025 HD
ENDBRANCH 127 129
BRANCH 127 133
ATOM    133  N   UNL     1      -8.965   1.857  14.614  0.00  0.00    -0.296 NA
BRANCH 133 134
ATOM    134  C   UNL     1      -7.741   1.317  15.193  0.00  0.00    -0.012 C 
ATOM    135  H   UNL     1      -7.259   2.026  15.873  0.00  0.00    +0.039 HD
ATOM    136  H   UNL     1      -7.014   1.016  14.435  0.00  0.00    +0.039 HD
ATOM    137  H   UNL     1      -7.971   0.431  15.798  0.00  0.00    +0.039 HD
ENDBRANCH 133 134
BRANCH 133 138
ATOM    138  C   UNL     1      -9.198   1.344  13.269  0.00  0.00    -0.012 C 
ATOM    139  H   UNL     1      -9.916   0.517  13.283  0.00  0.00    +0.039 HD
ATOM    140  H   UNL     1      -8.268   0.936  12.856  0.00  0.00    +0.039 HD
ATOM    141  H   UNL     1      -9.562   2.103  12.571  0.00  0.00    +0.039 HD
ENDBRANCH 133 138
ENDBRANCH 127 133
ENDBRANCH 125 127
ENDBRANCH 124 125
ENDBRANCH  89 124
ENDBRANCH  86  89
ENDBRANCH  83  86
ENDBRANCH  77  83
ENDBRANCH  75  77
BRANCH  75 142
ATOM    142  O   UNL     1      -6.147   7.068  16.892  0.00  0.00    -0.391 OA
ATOM    143  H   UNL     1      -6.482   6.623  16.095  0.00  0.00    +0.210 HD
ENDBRANCH  75 142
ENDBRANCH  69  75
ENDBRANCH  14  69
BRANCH  25 144
ATOM    144  O   UNL     1     -10.796  14.742  24.141  0.00  0.00    -0.391 OA
ATOM    145  H   UNL     1     -10.775  15.393  23.417  0.00  0.00    +0.210 HD
ENDBRANCH  25 144
BRANCH  23 146
ATOM    146  O   UNL     1      -8.966  11.657  26.567  0.00  0.00    -0.460 OA
BRANCH 146 147
ATOM    147  C   UNL     1      -9.162  11.402  27.888  0.00  0.00    +0.327 C 
ATOM    148  O   UNL     1      -9.509  12.254  28.703  0.00  0.00    -0.249 OA
BRANCH 147 149
ATOM    149  C   UNL     1      -8.928   9.929  28.272  0.00  0.00    +0.131 C 
ATOM    150  H   UNL     1      -7.846   9.876  28.457  0.00  0.00    +0.060 HD
BRANCH 149 151
ATOM    151  C   UNL     1      -9.248   9.068  27.029  0.00  0.00    +0.073 C 
ATOM    152  H   UNL     1     -10.109   8.413  27.214  0.00  0.00    +0.058 HD
ATOM    153  H   UNL     1      -9.514   9.718  26.186  0.00  0.00    +0.058 HD
BRANCH 151 154
ATOM    154  O   UNL     1      -8.111   8.287  26.643  0.00  0.00    -0.381 OA
BRANCH 154 155
ATOM    155  C   UNL     1      -8.347   6.896  26.810  0.00  0.00    +0.037 C 
ATOM    156  H   UNL     1      -7.563   6.441  27.420  0.00  0.00    +0.052 HD
ATOM    157  H   UNL     1      -8.402   6.402  25.835  0.00  0.00    +0.052 HD
ATOM    158  H   UNL     1      -9.305   6.768  27.320  0.00  0.00    +0.052 HD
ENDBRANCH 154 155
ENDBRANCH 151 154
ENDBRANCH 149 151
BRANCH 149 159
ATOM    159  N   UNL     1      -9.608   9.566  29.558  0.00  0.00    -0.294 NA
BRANCH 159 160
ATOM    160  C   UNL     1      -8.637   9.315  30.624  0.00  0.00    -0.012 C 
ATOM    161  H   UNL     1      -7.899   8.551  30.362  0.00  0.00    +0.039 HD
ATOM    162  H   UNL     1      -9.149   8.993  31.538  0.00  0.00    +0.039 HD
ATOM    163  H   UNL     1      -8.106  10.236  30.883  0.00  0.00    +0.039 HD
ENDBRANCH 159 160
BRANCH 159 164
ATOM    164  C   UNL     1     -10.534   8.444  29.440  0.00  0.00    -0.012 C 
ATOM    165  H   UNL     1     -10.999   8.234  30.411  0.00  0.00    +0.039 HD
ATOM    166  H   UNL     1     -10.043   7.525  29.104  0.00  0.00    +0.039 HD
ATOM    167  H   UNL     1     -11.351   8.672  28.748  0.00  0.00    +0.039 HD
ENDBRANCH 159 164
ENDBRANCH 149 159
ENDBRANCH 147 149
ENDBRANCH 146 147
ENDBRANCH  23 146
BRANCH   4 168
ATOM    168  O   UNL     1      -9.709  15.370  19.850  0.00  0.00    -0.376 OA
BRANCH 168 169
ATOM    169  C   UNL     1     -10.971  15.366  19.191  0.00  0.00    +0.037 C 
ATOM    170  H   UNL     1     -10.865  14.983  18.172  0.00  0.00    +0.052 HD
ATOM    171  H   UNL     1     -11.705  14.772  19.742  0.00  0.00    +0.052 HD
ATOM    172  H   UNL     1     -11.330  16.397  19.137  0.00  0.00    +0.052 HD
ENDBRANCH 168 169
ENDBRANCH   4 168
BRANCH  10 173
ATOM    173  O   UNL     1      -4.062  15.652  16.673  0.00  0.00    -0.376 OA
BRANCH 173 174
ATOM    174  C   UNL     1      -4.702  15.723  15.405  0.00  0.00    +0.037 C 
ATOM    175  H   UNL     1      -5.638  16.274  15.528  0.00  0.00    +0.052 HD
ATOM    176  H   UNL     1      -4.079  16.257  14.682  0.00  0.00    +0.052 HD
ATOM    177  H   UNL     1      -4.937  14.721  15.035  0.00  0.00    +0.052 HD
ENDBRANCH 173 174
ENDBRANCH  10 173
TORSDOF 45
ENDMDL
MODEL 6
REMARK VINA RESULT:      -5.0      1.305      2.129
REMARK  Name = Aplyronine A_conf2
REMARK  45 active torsions:
REMARK  status: ('A' for Active; 'I' for Inactive)
REMARK    1  A    between atoms: C_1  and  C_2
REMARK    2  A    between atoms: C_5  and  O_75
REMARK    3  A    between atoms: C_6  and  C_74
REMARK    4  A    between atoms: C_9  and  C_73
REMARK    5  A    between atoms: C_11  and  O_71
REMARK    6  A    between atoms: C_15  and  C_39
REMARK    7  A    between atoms: C_24  and  O_29
REMARK    8  A    between atoms: C_25  and  C_28
REMARK    9  A    between atoms: C_26  and  O_27
REMARK   10  A    between atoms: O_29  and  C_30
REMARK   11  A    between atoms: C_30  and  C_32
REMARK   12  A    between atoms: C_32  and  C_33
REMARK   13  A    between atoms: C_32  and  N_36
REMARK   14  A    between atoms: C_33  and  O_34
REMARK   15  A    between atoms: O_34  and  C_35
REMARK   16  A    between atoms: N_36  and  C_37
REMARK   17  A    between atoms: N_36  and  C_38
REMARK   18  A    between atoms: C_39  and  C_40
REMARK   19  A    between atoms: C_39  and  C_41
REMARK   20  A    between atoms: C_41  and  C_42
REMARK   21  A    between atoms: C_41  and  O_70
REMARK   22  A    between atoms: C_42  and  C_43
REMARK   23  A    between atoms: C_42  and  C_44
REMARK   24  A    between atoms: C_44  and  C_45
REMARK   25  A    between atoms: C_45  and  C_46
REMARK   26  A    between atoms: C_46  and  C_47
REMARK   27  A    between atoms: C_46  and  O_62
REMARK   28  A    between atoms: C_47  and  C_48
REMARK   29  A    between atoms: C_47  and  C_49
REMARK   30  A    between atoms: C_49  and  C_50
REMARK   31  A    between atoms: C_49  and  O_58
REMARK   32  A    between atoms: C_50  and  C_51
REMARK   33  A    between atoms: C_50  and  C_52
REMARK   34  A    between atoms: C_53  and  N_54
REMARK   35  A    between atoms: N_54  and  C_55
REMARK   36  A    between atoms: O_58  and  C_59
REMARK   37  A    between atoms: C_59  and  C_61
REMARK   38  A    between atoms: O_62  and  C_63
REMARK   39  A    between atoms: C_63  and  C_65
REMARK   40  A    between atoms: C_65  and  C_66
REMARK   41  A    between atoms: C_65  and  N_67
REMARK   42  A    between atoms: N_67  and  C_68
REMARK   43  A    between atoms: N_67  and  C_69
REMARK   44  A    between atoms: O_71  and  C_72
REMARK   45  A    between atoms: O_75  and  C_76
REMARK                            x       y       z     vdW  Elec       q    Type
REMARK                         _______ _______ _______ _____ _____    ______ ____
ROOT
ATOM      1  C   UNL     1     -12.843   6.940  10.034  0.00  0.00    -0.017 C 
ATOM      2  C   UNL     1     -13.398   5.914  11.051  0.00  0.00    -0.045 C 
ATOM      3  C   UNL     1     -12.718   5.966  12.426  0.00  0.00    -0.022 C 
ATOM      4  C   UNL     1     -13.354   5.021  13.467  0.00  0.00    +0.079 C 
ATOM      5  C   UNL     1     -12.777   3.603  13.398  0.00  0.00    -0.048 C 
ATOM      6  C   UNL     1     -11.715   3.248  14.154  0.00  0.00    -0.082 C 
ATOM      7  C   UNL     1     -11.015   1.920  14.272  0.00  0.00    -0.032 C 
ATOM      8  C   UNL     1      -9.573   1.901  13.717  0.00  0.00    -0.038 C 
ATOM      9  C   UNL     1      -8.658   3.036  14.237  0.00  0.00    -0.020 C 
ATOM     10  C   UNL     1      -8.575   3.138  15.770  0.00  0.00    +0.077 C 
ATOM     11  C   UNL     1      -7.751   4.341  16.161  0.00  0.00    -0.059 C 
ATOM     12  C   UNL     1      -8.283   5.571  16.277  0.00  0.00    -0.082 C 
ATOM     13  C   UNL     1      -7.532   6.810  16.694  0.00  0.00    +0.003 C 
ATOM     14  C   UNL     1      -8.342   7.680  17.686  0.00  0.00    +0.112 C 
ATOM     15  O   UNL     1      -9.413   8.310  16.936  0.00  0.00    -0.458 OA
ATOM     16  C   UNL     1     -10.677   7.865  17.109  0.00  0.00    +0.332 C 
ATOM     17  O   UNL     1     -11.053   7.040  17.925  0.00  0.00    -0.246 OA
ATOM     18  C   UNL     1     -11.589   8.464  16.109  0.00  0.00    +0.022 C 
ATOM     19  C   UNL     1     -11.235   9.406  15.221  0.00  0.00    -0.055 C 
ATOM     20  C   UNL     1     -12.137   9.882  14.197  0.00  0.00    -0.065 C 
ATOM     21  C   UNL     1     -11.783  10.785  13.269  0.00  0.00    -0.081 C 
ATOM     22  C   UNL     1     -12.685  11.202  12.136  0.00  0.00    +0.003 C 
ATOM     23  C   UNL     1     -12.195  10.839  10.711  0.00  0.00    +0.111 C 
ATOM     24  C   UNL     1     -11.859   9.352  10.370  0.00  0.00    +0.020 C 
ATOM     25  C   UNL     1     -13.126   8.446  10.340  0.00  0.00    +0.064 C 
ATOM     26  H   UNL     1     -11.765   6.770   9.954  0.00  0.00    +0.032 HD
ATOM     27  H   UNL     1     -14.480   6.052  11.164  0.00  0.00    +0.027 HD
ATOM     28  H   UNL     1     -13.259   4.911  10.634  0.00  0.00    +0.027 HD
ATOM     29  H   UNL     1     -11.647   5.746  12.317  0.00  0.00    +0.029 HD
ATOM     30  H   UNL     1     -12.761   6.983  12.827  0.00  0.00    +0.029 HD
ATOM     31  H   UNL     1     -14.442   5.001  13.327  0.00  0.00    +0.064 HD
ATOM     32  H   UNL     1     -11.292   4.021  14.798  0.00  0.00    +0.057 HD
ATOM     33  H   UNL     1     -10.994   1.652  15.336  0.00  0.00    +0.031 HD
ATOM     34  H   UNL     1     -11.589   1.119  13.795  0.00  0.00    +0.031 HD
ATOM     35  H   UNL     1      -9.127   0.943  14.018  0.00  0.00    +0.030 HD
ATOM     36  H   UNL     1      -8.997   3.993  13.817  0.00  0.00    +0.030 HD
ATOM     37  H   UNL     1      -7.650   2.861  13.838  0.00  0.00    +0.030 HD
ATOM     38  H   UNL     1      -9.579   3.234  16.197  0.00  0.00    +0.064 HD
ATOM     39  H   UNL     1      -6.694   4.174  16.351  0.00  0.00    +0.059 HD
ATOM     40  H   UNL     1      -9.340   5.697  16.044  0.00  0.00    +0.057 HD
ATOM     41  H   UNL     1      -6.575   6.521  17.147  0.00  0.00    +0.034 HD
ATOM     42  H   UNL     1      -7.318   7.383  15.782  0.00  0.00    +0.034 HD
ATOM     43  H   UNL     1      -8.739   7.029  18.473  0.00  0.00    +0.074 HD
ATOM     44  H   UNL     1     -12.584   8.038  16.115  0.00  0.00    +0.069 HD
ATOM     45  H   UNL     1     -10.227   9.814  15.217  0.00  0.00    +0.062 HD
ATOM     46  H   UNL     1     -13.126   9.426  14.149  0.00  0.00    +0.061 HD
ATOM     47  H   UNL     1     -10.792  11.234  13.278  0.00  0.00    +0.057 HD
ATOM     48  H   UNL     1     -13.701  10.828  12.293  0.00  0.00    +0.034 HD
ATOM     49  H   UNL     1     -12.767  12.296  12.197  0.00  0.00    +0.034 HD
ATOM     50  H   UNL     1     -12.998  11.166  10.034  0.00  0.00    +0.074 HD
ATOM     51  H   UNL     1     -11.477   9.355   9.340  0.00  0.00    +0.036 HD
ATOM     52  H   UNL     1     -13.762   8.855   9.543  0.00  0.00    +0.060 HD
ENDROOT
BRANCH   1  53
ATOM     53  C   UNL     1     -13.395   6.604   8.635  0.00  0.00    -0.060 C 
ATOM     54  H   UNL     1     -13.239   7.433   7.938  0.00  0.00    +0.023 HD
ATOM     55  H   UNL     1     -12.905   5.713   8.227  0.00  0.00    +0.023 HD
ATOM     56  H   UNL     1     -14.469   6.394   8.682  0.00  0.00    +0.023 HD
ENDBRANCH   1  53
BRANCH   5  57
ATOM     57  C   UNL     1     -13.497   2.659  12.473  0.00  0.00    -0.041 C 
ATOM     58  H   UNL     1     -13.045   2.680  11.475  0.00  0.00    +0.028 HD
ATOM     59  H   UNL     1     -13.447   1.636  12.855  0.00  0.00    +0.028 HD
ATOM     60  H   UNL     1     -14.550   2.909  12.340  0.00  0.00    +0.028 HD
ENDBRANCH   5  57
BRANCH  24  61
ATOM     61  C   UNL     1     -10.689   8.795  11.193  0.00  0.00    -0.057 C 
ATOM     62  H   UNL     1      -9.967   8.284  10.547  0.00  0.00    +0.023 HD
ATOM     63  H   UNL     1     -11.015   8.071  11.941  0.00  0.00    +0.023 HD
ATOM     64  H   UNL     1     -10.130   9.590  11.694  0.00  0.00    +0.023 HD
ENDBRANCH  24  61
BRANCH   8  65
ATOM     65  C   UNL     1      -9.589   1.925  12.183  0.00  0.00    -0.062 C 
ATOM     66  H   UNL     1      -9.581   0.907  11.777  0.00  0.00    +0.023 HD
ATOM     67  H   UNL     1     -10.475   2.439  11.797  0.00  0.00    +0.023 HD
ATOM     68  H   UNL     1      -8.705   2.443  11.796  0.00  0.00    +0.023 HD
ENDBRANCH   8  65
BRANCH  14  69
ATOM     69  C   UNL     1      -7.463   8.815  18.310  0.00  0.00    +0.020 C 
ATOM     70  H   UNL     1      -8.128   9.449  18.911  0.00  0.00    +0.036 HD
BRANCH  69  71
ATOM     71  C   UNL     1      -6.390   8.225  19.233  0.00  0.00    -0.057 C 
ATOM     72  H   UNL     1      -6.152   7.190  18.983  0.00  0.00    +0.023 HD
ATOM     73  H   UNL     1      -6.699   8.251  20.282  0.00  0.00    +0.023 HD
ATOM     74  H   UNL     1      -5.450   8.783  19.150  0.00  0.00    +0.023 HD
ENDBRANCH  69  71
BRANCH  69  75
ATOM     75  C   UNL     1      -6.894   9.704  17.168  0.00  0.00    +0.064 C 
ATOM     76  H   UNL     1      -7.138   9.241  16.204  0.00  0.00    +0.060 HD
BRANCH  75  77
ATOM     77  C   UNL     1      -5.385  10.080  17.167  0.00  0.00    -0.017 C 
ATOM     78  H   UNL     1      -4.949   9.612  18.063  0.00  0.00    +0.032 HD
BRANCH  77  79
ATOM     79  C   UNL     1      -4.595   9.486  15.994  0.00  0.00    -0.060 C 
ATOM     80  H   UNL     1      -3.591   9.190  16.316  0.00  0.00    +0.023 HD
ATOM     81  H   UNL     1      -5.079   8.586  15.604  0.00  0.00    +0.023 HD
ATOM     82  H   UNL     1      -4.470  10.192  15.171  0.00  0.00    +0.023 HD
ENDBRANCH  77  79
BRANCH  77  83
ATOM     83  C   UNL     1      -5.186  11.599  17.368  0.00  0.00    -0.045 C 
ATOM     84  H   UNL     1      -6.106  12.101  17.040  0.00  0.00    +0.027 HD
ATOM     85  H   UNL     1      -4.387  11.967  16.724  0.00  0.00    +0.027 HD
BRANCH  83  86
ATOM     86  C   UNL     1      -4.883  12.005  18.812  0.00  0.00    -0.015 C 
ATOM     87  H   UNL     1      -3.796  12.043  18.965  0.00  0.00    +0.030 HD
ATOM     88  H   UNL     1      -5.240  11.227  19.498  0.00  0.00    +0.030 HD
BRANCH  86  89
ATOM     89  C   UNL     1      -5.522  13.335  19.265  0.00  0.00    +0.109 C 
ATOM     90  H   UNL     1      -6.008  13.768  18.382  0.00  0.00    +0.074 HD
BRANCH  89  91
ATOM     91  C   UNL     1      -4.554  14.406  19.836  0.00  0.00    +0.031 C 
ATOM     92  H   UNL     1      -3.611  13.894  20.066  0.00  0.00    +0.037 HD
BRANCH  91  93
ATOM     93  C   UNL     1      -5.092  15.031  21.131  0.00  0.00    -0.056 C 
ATOM     94  H   UNL     1      -4.828  14.425  22.004  0.00  0.00    +0.023 HD
ATOM     95  H   UNL     1      -6.182  15.124  21.107  0.00  0.00    +0.023 HD
ATOM     96  H   UNL     1      -4.696  16.038  21.296  0.00  0.00    +0.023 HD
ENDBRANCH  91  93
BRANCH  91  97
ATOM     97  C   UNL     1      -4.259  15.524  18.784  0.00  0.00    +0.115 C 
ATOM     98  H   UNL     1      -3.276  15.310  18.347  0.00  0.00    +0.074 HD
BRANCH  97  99
ATOM     99  C   UNL     1      -5.295  15.582  17.621  0.00  0.00    +0.013 C 
ATOM    100  H   UNL     1      -5.932  14.693  17.670  0.00  0.00    +0.038 HD
BRANCH  99 101
ATOM    101  C   UNL     1      -4.597  15.536  16.254  0.00  0.00    -0.056 C 
ATOM    102  H   UNL     1      -4.782  14.594  15.726  0.00  0.00    +0.024 HD
ATOM    103  H   UNL     1      -3.510  15.641  16.370  0.00  0.00    +0.024 HD
ATOM    104  H   UNL     1      -4.940  16.357  15.616  0.00  0.00    +0.024 HD
ENDBRANCH  99 101
BRANCH  99 105
ATOM    105  C   UNL     1      -6.155  16.832  17.674  0.00  0.00    -0.064 C 
ATOM    106  C   UNL     1      -6.132  17.795  16.744  0.00  0.00    -0.005 C 
ATOM    107  H   UNL     1      -6.797  16.902  18.547  0.00  0.00    +0.059 HD
ATOM    108  H   UNL     1      -5.468  17.678  15.886  0.00  0.00    +0.078 HD
BRANCH 106 109
ATOM    109  N   UNL     1      -6.873  18.967  16.734  0.00  0.00    -0.284 N 
ATOM    110  C   UNL     1      -6.442  20.191  16.238  0.00  0.00    +0.206 C 
ATOM    111  O   UNL     1      -7.085  21.236  16.235  0.00  0.00    -0.279 OA
ATOM    112  H   UNL     1      -5.430  20.169  15.811  0.00  0.00    +0.126 HD
BRANCH 109 113
ATOM    113  C   UNL     1      -8.208  18.912  17.320  0.00  0.00    +0.007 C 
ATOM    114  H   UNL     1      -8.249  18.267  18.200  0.00  0.00    +0.043 HD
ATOM    115  H   UNL     1      -8.516  19.921  17.611  0.00  0.00    +0.043 HD
ATOM    116  H   UNL     1      -8.890  18.522  16.560  0.00  0.00    +0.043 HD
ENDBRANCH 109 113
ENDBRANCH 106 109
ENDBRANCH  99 105
ENDBRANCH  97  99
BRANCH  97 117
ATOM    117  O   UNL     1      -4.248  16.812  19.445  0.00  0.00    -0.461 OA
BRANCH 117 118
ATOM    118  C   UNL     1      -3.106  17.548  19.373  0.00  0.00    +0.304 C 
ATOM    119  O   UNL     1      -1.971  17.118  19.517  0.00  0.00    -0.251 OA
BRANCH 118 120
ATOM    120  C   UNL     1      -3.436  18.976  19.065  0.00  0.00    +0.033 C 
ATOM    121  H   UNL     1      -3.988  19.032  18.124  0.00  0.00    +0.034 HD
ATOM    122  H   UNL     1      -4.023  19.406  19.880  0.00  0.00    +0.034 HD
ATOM    123  H   UNL     1      -2.509  19.547  18.964  0.00  0.00    +0.034 HD
ENDBRANCH 118 120
ENDBRANCH 117 118
ENDBRANCH  97 117
ENDBRANCH  91  97
ENDBRANCH  89  91
BRANCH  89 124
ATOM    124  O   UNL     1      -6.496  12.987  20.278  0.00  0.00    -0.460 OA
BRANCH 124 125
ATOM    125  C   UNL     1      -7.773  12.759  19.870  0.00  0.00    +0.324 C 
ATOM    126  O   UNL     1      -8.405  11.746  20.165  0.00  0.00    -0.249 OA
BRANCH 125 127
ATOM    127  C   UNL     1      -8.396  13.932  19.090  0.00  0.00    +0.105 C 
ATOM    128  H   UNL     1      -7.549  14.559  18.779  0.00  0.00    +0.058 HD
BRANCH 127 129
ATOM    129  C   UNL     1      -9.234  14.790  20.048  0.00  0.00    -0.039 C 
ATOM    130  H   UNL     1      -9.526  14.223  20.940  0.00  0.00    +0.025 HD
ATOM    131  H   UNL     1      -8.697  15.690  20.366  0.00  0.00    +0.025 HD
ATOM    132  H   UNL     1     -10.157  15.122  19.558  0.00  0.00    +0.025 HD
ENDBRANCH 127 129
BRANCH 127 133
ATOM    133  N   UNL     1      -9.185  13.617  17.870  0.00  0.00    -0.296 NA
BRANCH 133 134
ATOM    134  C   UNL     1      -8.768  14.322  16.665  0.00  0.00    -0.012 C 
ATOM    135  H   UNL     1      -8.434  13.634  15.881  0.00  0.00    +0.039 HD
ATOM    136  H   UNL     1      -7.971  15.044  16.853  0.00  0.00    +0.039 HD
ATOM    137  H   UNL     1      -9.616  14.872  16.238  0.00  0.00    +0.039 HD
ENDBRANCH 133 134
BRANCH 133 138
ATOM    138  C   UNL     1     -10.628  13.689  18.066  0.00  0.00    -0.012 C 
ATOM    139  H   UNL     1     -10.878  13.744  19.131  0.00  0.00    +0.039 HD
ATOM    140  H   UNL     1     -11.105  12.778  17.685  0.00  0.00    +0.039 HD
ATOM    141  H   UNL     1     -11.093  14.540  17.560  0.00  0.00    +0.039 HD
ENDBRANCH 133 138
ENDBRANCH 127 133
ENDBRANCH 125 127
ENDBRANCH 124 125
ENDBRANCH  89 124
ENDBRANCH  86  89
ENDBRANCH  83  86
ENDBRANCH  77  83
ENDBRANCH  75  77
BRANCH  75 142
ATOM    142  O   UNL     1      -7.623  10.945  17.192  0.00  0.00    -0.391 OA
ATOM    143  H   UNL     1      -7.366  11.472  16.418  0.00  0.00    +0.210 HD
ENDBRANCH  75 142
ENDBRANCH  69  75
ENDBRANCH  14  69
BRANCH  25 144
ATOM    144  O   UNL     1     -13.889   8.601  11.527  0.00  0.00    -0.391 OA
ATOM    145  H   UNL     1     -13.273   8.595  12.280  0.00  0.00    +0.210 HD
ENDBRANCH  25 144
BRANCH  23 146
ATOM    146  O   UNL     1     -11.036  11.681  10.461  0.00  0.00    -0.460 OA
BRANCH 146 147
ATOM    147  C   UNL     1     -11.259  12.995  10.190  0.00  0.00    +0.327 C 
ATOM    148  O   UNL     1     -10.676  13.917  10.757  0.00  0.00    -0.249 OA
BRANCH 147 149
ATOM    149  C   UNL     1     -12.303  13.226   9.082  0.00  0.00    +0.131 C 
ATOM    150  H   UNL     1     -13.079  12.477   9.294  0.00  0.00    +0.060 HD
BRANCH 149 151
ATOM    151  C   UNL     1     -11.639  12.864   7.734  0.00  0.00    +0.073 C 
ATOM    152  H   UNL     1     -11.604  11.776   7.592  0.00  0.00    +0.058 HD
ATOM    153  H   UNL     1     -12.229  13.277   6.906  0.00  0.00    +0.058 HD
BRANCH 151 154
ATOM    154  O   UNL     1     -10.319  13.412   7.652  0.00  0.00    -0.381 OA
BRANCH 154 155
ATOM    155  C   UNL     1      -9.971  13.750   6.316  0.00  0.00    +0.037 C 
ATOM    156  H   UNL     1      -9.348  14.648   6.293  0.00  0.00    +0.052 HD
ATOM    157  H   UNL     1     -10.874  13.901   5.716  0.00  0.00    +0.052 HD
ATOM    158  H   UNL     1      -9.404  12.919   5.887  0.00  0.00    +0.052 HD
ENDBRANCH 154 155
ENDBRANCH 151 154
ENDBRANCH 149 151
BRANCH 149 159
ATOM    159  N   UNL     1     -12.955  14.571   9.192  0.00  0.00    -0.294 NA
BRANCH 159 160
ATOM    160  C   UNL     1     -14.050  14.557  10.163  0.00  0.00    -0.012 C 
ATOM    161  H   UNL     1     -13.773  14.988  11.129  0.00  0.00    +0.039 HD
ATOM    162  H   UNL     1     -14.394  13.531  10.335  0.00  0.00    +0.039 HD
ATOM    163  H   UNL     1     -14.914  15.105   9.774  0.00  0.00    +0.039 HD
ENDBRANCH 159 160
BRANCH 159 164
ATOM    164  C   UNL     1     -13.414  15.111   7.915  0.00  0.00    -0.012 C 
ATOM    165  H   UNL     1     -14.210  14.479   7.503  0.00  0.00    +0.039 HD
ATOM    166  H   UNL     1     -12.615  15.164   7.169  0.00  0.00    +0.039 HD
ATOM    167  H   UNL     1     -13.843  16.110   8.035  0.00  0.00    +0.039 HD
ENDBRANCH 159 164
ENDBRANCH 149 159
ENDBRANCH 147 149
ENDBRANCH 146 147
ENDBRANCH  23 146
BRANCH   4 168
ATOM    168  O   UNL     1     -13.088   5.613  14.754  0.00  0.00    -0.376 OA
BRANCH 168 169
ATOM    169  C   UNL     1     -14.243   5.694  15.582  0.00  0.00    +0.037 C 
ATOM    170  H   UNL     1     -14.996   4.972  15.254  0.00  0.00    +0.052 HD
ATOM    171  H   UNL     1     -13.992   5.525  16.633  0.00  0.00    +0.052 HD
ATOM    172  H   UNL     1     -14.662   6.699  15.484  0.00  0.00    +0.052 HD
ENDBRANCH 168 169
ENDBRANCH   4 168
BRANCH  10 173
ATOM    173  O   UNL     1      -7.953   1.954  16.272  0.00  0.00    -0.376 OA
BRANCH 173 174
ATOM    174  C   UNL     1      -8.701   1.340  17.316  0.00  0.00    +0.037 C 
ATOM    175  H   UNL     1      -8.091   1.354  18.223  0.00  0.00    +0.052 HD
ATOM    176  H   UNL     1      -9.623   1.893  17.511  0.00  0.00    +0.052 HD
ATOM    177  H   UNL     1      -8.928   0.300  17.067  0.00  0.00    +0.052 HD
ENDBRANCH 173 174
ENDBRANCH  10 173
TORSDOF 45
ENDMDL
MODEL 7
REMARK VINA RESULT:      -4.9      5.601     14.433
REMARK  Name = Aplyronine A_conf2
REMARK  45 active torsions:
REMARK  status: ('A' for Active; 'I' for Inactive)
REMARK    1  A    between atoms: C_1  and  C_2
REMARK    2  A    between atoms: C_5  and  O_75
REMARK    3  A    between atoms: C_6  and  C_74
REMARK    4  A    between atoms: C_9  and  C_73
REMARK    5  A    between atoms: C_11  and  O_71
REMARK    6  A    between atoms: C_15  and  C_39
REMARK    7  A    between atoms: C_24  and  O_29
REMARK    8  A    between atoms: C_25  and  C_28
REMARK    9  A    between atoms: C_26  and  O_27
REMARK   10  A    between atoms: O_29  and  C_30
REMARK   11  A    between atoms: C_30  and  C_32
REMARK   12  A    between atoms: C_32  and  C_33
REMARK   13  A    between atoms: C_32  and  N_36
REMARK   14  A    between atoms: C_33  and  O_34
REMARK   15  A    between atoms: O_34  and  C_35
REMARK   16  A    between atoms: N_36  and  C_37
REMARK   17  A    between atoms: N_36  and  C_38
REMARK   18  A    between atoms: C_39  and  C_40
REMARK   19  A    between atoms: C_39  and  C_41
REMARK   20  A    between atoms: C_41  and  C_42
REMARK   21  A    between atoms: C_41  and  O_70
REMARK   22  A    between atoms: C_42  and  C_43
REMARK   23  A    between atoms: C_42  and  C_44
REMARK   24  A    between atoms: C_44  and  C_45
REMARK   25  A    between atoms: C_45  and  C_46
REMARK   26  A    between atoms: C_46  and  C_47
REMARK   27  A    between atoms: C_46  and  O_62
REMARK   28  A    between atoms: C_47  and  C_48
REMARK   29  A    between atoms: C_47  and  C_49
REMARK   30  A    between atoms: C_49  and  C_50
REMARK   31  A    between atoms: C_49  and  O_58
REMARK   32  A    between atoms: C_50  and  C_51
REMARK   33  A    between atoms: C_50  and  C_52
REMARK   34  A    between atoms: C_53  and  N_54
REMARK   35  A    between atoms: N_54  and  C_55
REMARK   36  A    between atoms: O_58  and  C_59
REMARK   37  A    between atoms: C_59  and  C_61
REMARK   38  A    between atoms: O_62  and  C_63
REMARK   39  A    between atoms: C_63  and  C_65
REMARK   40  A    between atoms: C_65  and  C_66
REMARK   41  A    between atoms: C_65  and  N_67
REMARK   42  A    between atoms: N_67  and  C_68
REMARK   43  A    between atoms: N_67  and  C_69
REMARK   44  A    between atoms: O_71  and  C_72
REMARK   45  A    between atoms: O_75  and  C_76
REMARK                            x       y       z     vdW  Elec       q    Type
REMARK                         _______ _______ _______ _____ _____    ______ ____
ROOT
ATOM      1  C   UNL     1      -9.921  11.738  23.716  0.00  0.00    -0.017 C 
ATOM      2  C   UNL     1      -9.990  12.512  22.377  0.00  0.00    -0.045 C 
ATOM      3  C   UNL     1      -9.870  11.622  21.133  0.00  0.00    -0.022 C 
ATOM      4  C   UNL     1     -10.055  12.386  19.805  0.00  0.00    +0.079 C 
ATOM      5  C   UNL     1      -8.749  13.012  19.304  0.00  0.00    -0.048 C 
ATOM      6  C   UNL     1      -7.932  12.338  18.465  0.00  0.00    -0.082 C 
ATOM      7  C   UNL     1      -6.637  12.765  17.828  0.00  0.00    -0.032 C 
ATOM      8  C   UNL     1      -5.392  11.998  18.325  0.00  0.00    -0.038 C 
ATOM      9  C   UNL     1      -5.520  10.456  18.293  0.00  0.00    -0.020 C 
ATOM     10  C   UNL     1      -5.921   9.875  16.927  0.00  0.00    +0.077 C 
ATOM     11  C   UNL     1      -6.124   8.384  17.041  0.00  0.00    -0.059 C 
ATOM     12  C   UNL     1      -7.296   7.844  17.424  0.00  0.00    -0.082 C 
ATOM     13  C   UNL     1      -7.582   6.368  17.529  0.00  0.00    +0.003 C 
ATOM     14  C   UNL     1      -8.977   6.001  16.966  0.00  0.00    +0.112 C 
ATOM     15  O   UNL     1      -9.968   6.489  17.909  0.00  0.00    -0.458 OA
ATOM     16  C   UNL     1     -10.699   7.575  17.579  0.00  0.00    +0.332 C 
ATOM     17  O   UNL     1     -10.702   8.152  16.503  0.00  0.00    -0.246 OA
ATOM     18  C   UNL     1     -11.485   8.054  18.737  0.00  0.00    +0.022 C 
ATOM     19  C   UNL     1     -11.551   7.432  19.924  0.00  0.00    -0.055 C 
ATOM     20  C   UNL     1     -12.249   7.997  21.057  0.00  0.00    -0.065 C 
ATOM     21  C   UNL     1     -12.281   7.413  22.265  0.00  0.00    -0.081 C 
ATOM     22  C   UNL     1     -12.915   8.052  23.474  0.00  0.00    +0.003 C 
ATOM     23  C   UNL     1     -11.953   8.406  24.637  0.00  0.00    +0.111 C 
ATOM     24  C   UNL     1     -10.717   9.319  24.359  0.00  0.00    +0.020 C 
ATOM     25  C   UNL     1     -11.120  10.788  24.032  0.00  0.00    +0.064 C 
ATOM     26  H   UNL     1      -8.984  11.173  23.717  0.00  0.00    +0.032 HD
ATOM     27  H   UNL     1     -10.920  13.093  22.333  0.00  0.00    +0.027 HD
ATOM     28  H   UNL     1      -9.173  13.241  22.362  0.00  0.00    +0.027 HD
ATOM     29  H   UNL     1      -8.900  11.105  21.142  0.00  0.00    +0.029 HD
ATOM     30  H   UNL     1     -10.619  10.825  21.168  0.00  0.00    +0.029 HD
ATOM     31  H   UNL     1     -10.828  13.155  19.930  0.00  0.00    +0.064 HD
ATOM     32  H   UNL     1      -8.246  11.333  18.179  0.00  0.00    +0.057 HD
ATOM     33  H   UNL     1      -6.740  12.622  16.745  0.00  0.00    +0.031 HD
ATOM     34  H   UNL     1      -6.463  13.839  17.951  0.00  0.00    +0.031 HD
ATOM     35  H   UNL     1      -4.559  12.281  17.667  0.00  0.00    +0.030 HD
ATOM     36  H   UNL     1      -6.240  10.138  19.059  0.00  0.00    +0.030 HD
ATOM     37  H   UNL     1      -4.549  10.034  18.587  0.00  0.00    +0.030 HD
ATOM     38  H   UNL     1      -6.848  10.341  16.576  0.00  0.00    +0.064 HD
ATOM     39  H   UNL     1      -5.276   7.750  16.796  0.00  0.00    +0.059 HD
ATOM     40  H   UNL     1      -8.108   8.519  17.692  0.00  0.00    +0.057 HD
ATOM     41  H   UNL     1      -6.805   5.806  16.995  0.00  0.00    +0.034 HD
ATOM     42  H   UNL     1      -7.526   6.101  18.592  0.00  0.00    +0.034 HD
ATOM     43  H   UNL     1      -9.093   6.480  15.987  0.00  0.00    +0.074 HD
ATOM     44  H   UNL     1     -11.982   9.001  18.566  0.00  0.00    +0.069 HD
ATOM     45  H   UNL     1     -11.035   6.489  20.086  0.00  0.00    +0.062 HD
ATOM     46  H   UNL     1     -12.709   8.977  20.924  0.00  0.00    +0.061 HD
ATOM     47  H   UNL     1     -11.806   6.449  22.431  0.00  0.00    +0.057 HD
ATOM     48  H   UNL     1     -13.499   8.931  23.185  0.00  0.00    +0.034 HD
ATOM     49  H   UNL     1     -13.650   7.328  23.852  0.00  0.00    +0.034 HD
ATOM     50  H   UNL     1     -12.578   8.906  25.391  0.00  0.00    +0.074 HD
ATOM     51  H   UNL     1     -10.159   9.372  25.305  0.00  0.00    +0.036 HD
ATOM     52  H   UNL     1     -11.637  11.157  24.928  0.00  0.00    +0.060 HD
ENDROOT
BRANCH   1  53
ATOM     53  C   UNL     1      -9.768  12.748  24.868  0.00  0.00    -0.060 C 
ATOM     54  H   UNL     1      -9.276  13.666  24.529  0.00  0.00    +0.023 HD
ATOM     55  H   UNL     1     -10.746  13.015  25.285  0.00  0.00    +0.023 HD
ATOM     56  H   UNL     1      -9.171  12.322  25.682  0.00  0.00    +0.023 HD
ENDBRANCH   1  53
BRANCH   5  57
ATOM     57  C   UNL     1      -8.483  14.415  19.782  0.00  0.00    -0.041 C 
ATOM     58  H   UNL     1      -8.978  14.592  20.743  0.00  0.00    +0.028 HD
ATOM     59  H   UNL     1      -7.410  14.578  19.910  0.00  0.00    +0.028 HD
ATOM     60  H   UNL     1      -8.852  15.179  19.098  0.00  0.00    +0.028 HD
ENDBRANCH   5  57
BRANCH  24  61
ATOM     61  C   UNL     1      -9.714   8.694  23.378  0.00  0.00    -0.057 C 
ATOM     62  H   UNL     1      -9.574   9.337  22.503  0.00  0.00    +0.023 HD
ATOM     63  H   UNL     1     -10.045   7.722  23.010  0.00  0.00    +0.023 HD
ATOM     64  H   UNL     1      -8.723   8.581  23.826  0.00  0.00    +0.023 HD
ENDBRANCH  24  61
BRANCH   8  65
ATOM     65  C   UNL     1      -5.015  12.447  19.743  0.00  0.00    -0.062 C 
ATOM     66  H   UNL     1      -4.741  11.587  20.364  0.00  0.00    +0.023 HD
ATOM     67  H   UNL     1      -4.172  13.144  19.734  0.00  0.00    +0.023 HD
ATOM     68  H   UNL     1      -5.861  12.948  20.226  0.00  0.00    +0.023 HD
ENDBRANCH   8  65
BRANCH  14  69
ATOM     69  C   UNL     1      -9.160   4.451  16.840  0.00  0.00    +0.020 C 
ATOM     70  H   UNL     1      -9.002   4.022  17.838  0.00  0.00    +0.036 HD
BRANCH  69  71
ATOM     71  C   UNL     1     -10.582   4.108  16.382  0.00  0.00    -0.057 C 
ATOM     72  H   UNL     1     -11.253   3.914  17.221  0.00  0.00    +0.023 HD
ATOM     73  H   UNL     1     -10.598   3.226  15.735  0.00  0.00    +0.023 HD
ATOM     74  H   UNL     1     -11.026   4.939  15.822  0.00  0.00    +0.023 HD
ENDBRANCH  69  71
BRANCH  69  75
ATOM     75  C   UNL     1      -8.045   3.882  15.916  0.00  0.00    +0.064 C 
ATOM     76  H   UNL     1      -7.420   4.711  15.562  0.00  0.00    +0.060 HD
BRANCH  75  77
ATOM     77  C   UNL     1      -8.436   3.002  14.695  0.00  0.00    -0.017 C 
ATOM     78  H   UNL     1      -9.468   2.665  14.874  0.00  0.00    +0.032 HD
BRANCH  77  79
ATOM     79  C   UNL     1      -8.500   3.770  13.368  0.00  0.00    -0.060 C 
ATOM     80  H   UNL     1      -9.177   3.270  12.667  0.00  0.00    +0.023 HD
ATOM     81  H   UNL     1      -8.889   4.783  13.514  0.00  0.00    +0.023 HD
ATOM     82  H   UNL     1      -7.529   3.843  12.877  0.00  0.00    +0.023 HD
ENDBRANCH  77  79
BRANCH  77  83
ATOM     83  C   UNL     1      -7.592   1.709  14.644  0.00  0.00    -0.045 C 
ATOM     84  H   UNL     1      -7.711   1.196  15.608  0.00  0.00    +0.027 HD
ATOM     85  H   UNL     1      -6.532   1.949  14.551  0.00  0.00    +0.027 HD
BRANCH  83  86
ATOM     86  C   UNL     1      -7.981   0.751  13.516  0.00  0.00    -0.015 C 
ATOM     87  H   UNL     1      -8.270   1.324  12.626  0.00  0.00    +0.030 HD
ATOM     88  H   UNL     1      -8.883   0.193  13.800  0.00  0.00    +0.030 HD
BRANCH  86  89
ATOM     89  C   UNL     1      -6.905  -0.290  13.143  0.00  0.00    +0.109 C 
ATOM     90  H   UNL     1      -7.410  -1.075  12.568  0.00  0.00    +0.074 HD
BRANCH  89  91
ATOM     91  C   UNL     1      -6.171  -0.978  14.325  0.00  0.00    +0.031 C 
ATOM     92  H   UNL     1      -6.584  -0.552  15.248  0.00  0.00    +0.037 HD
BRANCH  91  93
ATOM     93  C   UNL     1      -4.660  -0.702  14.302  0.00  0.00    -0.056 C 
ATOM     94  H   UNL     1      -4.323  -0.422  13.298  0.00  0.00    +0.023 HD
ATOM     95  H   UNL     1      -4.089  -1.582  14.612  0.00  0.00    +0.023 HD
ATOM     96  H   UNL     1      -4.381   0.108  14.982  0.00  0.00    +0.023 HD
ENDBRANCH  91  93
BRANCH  91  97
ATOM     97  C   UNL     1      -6.433  -2.519  14.338  0.00  0.00    +0.115 C 
ATOM     98  H   UNL     1      -5.603  -2.988  14.879  0.00  0.00    +0.074 HD
BRANCH  97  99
ATOM     99  C   UNL     1      -7.757  -2.925  15.053  0.00  0.00    +0.013 C 
ATOM    100  H   UNL     1      -7.591  -3.859  15.600  0.00  0.00    +0.038 HD
BRANCH  99 101
ATOM    101  C   UNL     1      -8.870  -3.215  14.035  0.00  0.00    -0.056 C 
ATOM    102  H   UNL     1      -8.474  -3.399  13.030  0.00  0.00    +0.024 HD
ATOM    103  H   UNL     1      -9.563  -2.367  13.967  0.00  0.00    +0.024 HD
ATOM    104  H   UNL     1      -9.452  -4.092  14.338  0.00  0.00    +0.024 HD
ENDBRANCH  99 101
BRANCH  99 105
ATOM    105  C   UNL     1      -8.252  -1.854  16.008  0.00  0.00    -0.064 C 
ATOM    106  C   UNL     1      -8.134  -1.929  17.340  0.00  0.00    -0.005 C 
ATOM    107  H   UNL     1      -8.734  -1.008  15.528  0.00  0.00    +0.059 HD
ATOM    108  H   UNL     1      -7.643  -2.801  17.774  0.00  0.00    +0.078 HD
BRANCH 106 109
ATOM    109  N   UNL     1      -8.575  -1.002  18.272  0.00  0.00    -0.284 N 
ATOM    110  C   UNL     1      -8.953   0.306  17.995  0.00  0.00    +0.206 C 
ATOM    111  O   UNL     1      -9.333   1.137  18.813  0.00  0.00    -0.279 OA
ATOM    112  H   UNL     1      -8.899   0.571  16.929  0.00  0.00    +0.126 HD
BRANCH 109 113
ATOM    113  C   UNL     1      -8.617  -1.431  19.665  0.00  0.00    +0.007 C 
ATOM    114  H   UNL     1      -7.879  -2.205  19.884  0.00  0.00    +0.043 HD
ATOM    115  H   UNL     1      -8.426  -0.572  20.314  0.00  0.00    +0.043 HD
ATOM    116  H   UNL     1      -9.617  -1.827  19.862  0.00  0.00    +0.043 HD
ENDBRANCH 109 113
ENDBRANCH 106 109
ENDBRANCH  99 105
ENDBRANCH  97  99
BRANCH  97 117
ATOM    117  O   UNL     1      -6.487  -3.006  12.975  0.00  0.00    -0.461 OA
BRANCH 117 118
ATOM    118  C   UNL     1      -5.585  -3.957  12.610  0.00  0.00    +0.304 C 
ATOM    119  O   UNL     1      -5.645  -5.144  12.896  0.00  0.00    -0.251 OA
BRANCH 118 120
ATOM    120  C   UNL     1      -4.504  -3.342  11.776  0.00  0.00    +0.033 C 
ATOM    121  H   UNL     1      -4.577  -3.706  10.749  0.00  0.00    +0.034 HD
ATOM    122  H   UNL     1      -4.587  -2.252  11.804  0.00  0.00    +0.034 HD
ATOM    123  H   UNL     1      -3.529  -3.626  12.182  0.00  0.00    +0.034 HD
ENDBRANCH 118 120
ENDBRANCH 117 118
ENDBRANCH  97 117
ENDBRANCH  91  97
ENDBRANCH  89  91
BRANCH  89 124
ATOM    124  O   UNL     1      -5.935   0.411  12.327  0.00  0.00    -0.460 OA
BRANCH 124 125
ATOM    125  C   UNL     1      -6.123   0.401  10.980  0.00  0.00    +0.324 C 
ATOM    126  O   UNL     1      -6.180  -0.631  10.314  0.00  0.00    -0.249 OA
BRANCH 125 127
ATOM    127  C   UNL     1      -6.364   1.797  10.375  0.00  0.00    +0.105 C 
ATOM    128  H   UNL     1      -6.058   2.510  11.154  0.00  0.00    +0.058 HD
BRANCH 127 129
ATOM    129  C   UNL     1      -7.870   2.008  10.169  0.00  0.00    -0.039 C 
ATOM    130  H   UNL     1      -8.368   1.076   9.875  0.00  0.00    +0.025 HD
ATOM    131  H   UNL     1      -8.356   2.394  11.071  0.00  0.00    +0.025 HD
ATOM    132  H   UNL     1      -8.050   2.738   9.370  0.00  0.00    +0.025 HD
ENDBRANCH 127 129
BRANCH 127 133
ATOM    133  N   UNL     1      -5.627   2.155   9.135  0.00  0.00    -0.296 NA
BRANCH 133 134
ATOM    134  C   UNL     1      -5.168   3.536   9.064  0.00  0.00    -0.012 C 
ATOM    135  H   UNL     1      -4.976   3.957  10.057  0.00  0.00    +0.039 HD
ATOM    136  H   UNL     1      -5.872   4.189   8.543  0.00  0.00    +0.039 HD
ATOM    137  H   UNL     1      -4.212   3.589   8.527  0.00  0.00    +0.039 HD
ENDBRANCH 133 134
BRANCH 133 138
ATOM    138  C   UNL     1      -6.305   1.749   7.909  0.00  0.00    -0.012 C 
ATOM    139  H   UNL     1      -5.583   1.517   7.119  0.00  0.00    +0.039 HD
ATOM    140  H   UNL     1      -6.920   2.573   7.529  0.00  0.00    +0.039 HD
ATOM    141  H   UNL     1      -6.959   0.883   8.041  0.00  0.00    +0.039 HD
ENDBRANCH 133 138
ENDBRANCH 127 133
ENDBRANCH 125 127
ENDBRANCH 124 125
ENDBRANCH  89 124
ENDBRANCH  86  89
ENDBRANCH  83  86
ENDBRANCH  77  83
ENDBRANCH  75  77
BRANCH  75 142
ATOM    142  O   UNL     1      -7.182   3.077  16.740  0.00  0.00    -0.391 OA
ATOM    143  H   UNL     1      -7.670   2.284  17.019  0.00  0.00    +0.210 HD
ENDBRANCH  75 142
ENDBRANCH  69  75
ENDBRANCH  14  69
BRANCH  25 144
ATOM    144  O   UNL     1     -12.101  10.828  23.007  0.00  0.00    -0.391 OA
ATOM    145  H   UNL     1     -12.179   9.933  22.634  0.00  0.00    +0.210 HD
ENDBRANCH  25 144
BRANCH  23 146
ATOM    146  O   UNL     1     -11.519   7.136  25.196  0.00  0.00    -0.460 OA
BRANCH 146 147
ATOM    147  C   UNL     1     -11.628   6.970  26.541  0.00  0.00    +0.327 C 
ATOM    148  O   UNL     1     -12.685   7.078  27.158  0.00  0.00    -0.249 OA
BRANCH 147 149
ATOM    149  C   UNL     1     -10.297   6.609  27.226  0.00  0.00    +0.131 C 
ATOM    150  H   UNL     1     -10.081   7.486  27.853  0.00  0.00    +0.060 HD
BRANCH 149 151
ATOM    151  C   UNL     1      -9.215   6.525  26.125  0.00  0.00    +0.073 C 
ATOM    152  H   UNL     1      -8.755   5.529  26.101  0.00  0.00    +0.058 HD
ATOM    153  H   UNL     1      -9.672   6.691  25.142  0.00  0.00    +0.058 HD
BRANCH 151 154
ATOM    154  O   UNL     1      -8.210   7.526  26.320  0.00  0.00    -0.381 OA
BRANCH 154 155
ATOM    155  C   UNL     1      -8.576   8.449  27.336  0.00  0.00    +0.037 C 
ATOM    156  H   UNL     1      -7.970   8.297  28.234  0.00  0.00    +0.052 HD
ATOM    157  H   UNL     1      -9.639   8.346  27.576  0.00  0.00    +0.052 HD
ATOM    158  H   UNL     1      -8.399   9.461  26.963  0.00  0.00    +0.052 HD
ENDBRANCH 154 155
ENDBRANCH 151 154
ENDBRANCH 149 151
BRANCH 149 159
ATOM    159  N   UNL     1     -10.436   5.437  28.150  0.00  0.00    -0.294 NA
BRANCH 159 160
ATOM    160  C   UNL     1     -10.070   5.790  29.522  0.00  0.00    -0.012 C 
ATOM    161  H   UNL     1     -10.764   5.392  30.268  0.00  0.00    +0.039 HD
ATOM    162  H   UNL     1     -10.034   6.879  29.639  0.00  0.00    +0.039 HD
ATOM    163  H   UNL     1      -9.065   5.427  29.756  0.00  0.00    +0.039 HD
ENDBRANCH 159 160
BRANCH 159 164
ATOM    164  C   UNL     1      -9.701   4.253  27.716  0.00  0.00    -0.012 C 
ATOM    165  H   UNL     1     -10.372   3.386  27.673  0.00  0.00    +0.039 HD
ATOM    166  H   UNL     1      -8.877   3.998  28.389  0.00  0.00    +0.039 HD
ATOM    167  H   UNL     1      -9.297   4.381  26.707  0.00  0.00    +0.039 HD
ENDBRANCH 159 164
ENDBRANCH 149 159
ENDBRANCH 147 149
ENDBRANCH 146 147
ENDBRANCH  23 146
BRANCH   4 168
ATOM    168  O   UNL     1     -10.548  11.419  18.857  0.00  0.00    -0.376 OA
BRANCH 168 169
ATOM    169  C   UNL     1     -11.673  11.882  18.119  0.00  0.00    +0.037 C 
ATOM    170  H   UNL     1     -11.747  12.972  18.184  0.00  0.00    +0.052 HD
ATOM    171  H   UNL     1     -11.618  11.571  17.072  0.00  0.00    +0.052 HD
ATOM    172  H   UNL     1     -12.573  11.448  18.562  0.00  0.00    +0.052 HD
ENDBRANCH 168 169
ENDBRANCH   4 168
BRANCH  10 173
ATOM    173  O   UNL     1      -4.871  10.140  15.994  0.00  0.00    -0.376 OA
BRANCH 173 174
ATOM    174  C   UNL     1      -4.096   8.984  15.696  0.00  0.00    +0.037 C 
ATOM    175  H   UNL     1      -4.277   8.243  16.479  0.00  0.00    +0.052 HD
ATOM    176  H   UNL     1      -4.392   8.553  14.736  0.00  0.00    +0.052 HD
ATOM    177  H   UNL     1      -3.029   9.226  15.690  0.00  0.00    +0.052 HD
ENDBRANCH 173 174
ENDBRANCH  10 173
TORSDOF 45
ENDMDL
MODEL 8
REMARK VINA RESULT:      -4.9      4.977     10.802
REMARK  Name = Aplyronine A_conf2
REMARK  45 active torsions:
REMARK  status: ('A' for Active; 'I' for Inactive)
REMARK    1  A    between atoms: C_1  and  C_2
REMARK    2  A    between atoms: C_5  and  O_75
REMARK    3  A    between atoms: C_6  and  C_74
REMARK    4  A    between atoms: C_9  and  C_73
REMARK    5  A    between atoms: C_11  and  O_71
REMARK    6  A    between atoms: C_15  and  C_39
REMARK    7  A    between atoms: C_24  and  O_29
REMARK    8  A    between atoms: C_25  and  C_28
REMARK    9  A    between atoms: C_26  and  O_27
REMARK   10  A    between atoms: O_29  and  C_30
REMARK   11  A    between atoms: C_30  and  C_32
REMARK   12  A    between atoms: C_32  and  C_33
REMARK   13  A    between atoms: C_32  and  N_36
REMARK   14  A    between atoms: C_33  and  O_34
REMARK   15  A    between atoms: O_34  and  C_35
REMARK   16  A    between atoms: N_36  and  C_37
REMARK   17  A    between atoms: N_36  and  C_38
REMARK   18  A    between atoms: C_39  and  C_40
REMARK   19  A    between atoms: C_39  and  C_41
REMARK   20  A    between atoms: C_41  and  C_42
REMARK   21  A    between atoms: C_41  and  O_70
REMARK   22  A    between atoms: C_42  and  C_43
REMARK   23  A    between atoms: C_42  and  C_44
REMARK   24  A    between atoms: C_44  and  C_45
REMARK   25  A    between atoms: C_45  and  C_46
REMARK   26  A    between atoms: C_46  and  C_47
REMARK   27  A    between atoms: C_46  and  O_62
REMARK   28  A    between atoms: C_47  and  C_48
REMARK   29  A    between atoms: C_47  and  C_49
REMARK   30  A    between atoms: C_49  and  C_50
REMARK   31  A    between atoms: C_49  and  O_58
REMARK   32  A    between atoms: C_50  and  C_51
REMARK   33  A    between atoms: C_50  and  C_52
REMARK   34  A    between atoms: C_53  and  N_54
REMARK   35  A    between atoms: N_54  and  C_55
REMARK   36  A    between atoms: O_58  and  C_59
REMARK   37  A    between atoms: C_59  and  C_61
REMARK   38  A    between atoms: O_62  and  C_63
REMARK   39  A    between atoms: C_63  and  C_65
REMARK   40  A    between atoms: C_65  and  C_66
REMARK   41  A    between atoms: C_65  and  N_67
REMARK   42  A    between atoms: N_67  and  C_68
REMARK   43  A    between atoms: N_67  and  C_69
REMARK   44  A    between atoms: O_71  and  C_72
REMARK   45  A    between atoms: O_75  and  C_76
REMARK                            x       y       z     vdW  Elec       q    Type
REMARK                         _______ _______ _______ _____ _____    ______ ____
ROOT
ATOM      1  C   UNL     1     -13.050   1.497  23.140  0.00  0.00    -0.017 C 
ATOM      2  C   UNL     1     -13.874   2.805  23.050  0.00  0.00    -0.045 C 
ATOM      3  C   UNL     1     -13.214   3.903  22.207  0.00  0.00    -0.022 C 
ATOM      4  C   UNL     1     -14.094   5.159  22.029  0.00  0.00    +0.079 C 
ATOM      5  C   UNL     1     -13.934   6.153  23.184  0.00  0.00    -0.048 C 
ATOM      6  C   UNL     1     -13.017   7.144  23.127  0.00  0.00    -0.082 C 
ATOM      7  C   UNL     1     -12.715   8.238  24.115  0.00  0.00    -0.032 C 
ATOM      8  C   UNL     1     -11.333   8.126  24.797  0.00  0.00    -0.038 C 
ATOM      9  C   UNL     1     -10.141   7.938  23.828  0.00  0.00    -0.020 C 
ATOM     10  C   UNL     1     -10.040   9.002  22.722  0.00  0.00    +0.077 C 
ATOM     11  C   UNL     1      -8.916   8.658  21.776  0.00  0.00    -0.059 C 
ATOM     12  C   UNL     1      -9.085   7.830  20.729  0.00  0.00    -0.082 C 
ATOM     13  C   UNL     1      -8.020   7.466  19.726  0.00  0.00    +0.003 C 
ATOM     14  C   UNL     1      -8.561   7.459  18.275  0.00  0.00    +0.112 C 
ATOM     15  O   UNL     1      -9.410   6.290  18.134  0.00  0.00    -0.458 OA
ATOM     16  C   UNL     1     -10.749   6.463  18.075  0.00  0.00    +0.332 C 
ATOM     17  O   UNL     1     -11.344   7.526  18.019  0.00  0.00    -0.246 OA
ATOM     18  C   UNL     1     -11.452   5.164  18.159  0.00  0.00    +0.022 C 
ATOM     19  C   UNL     1     -10.846   3.967  18.178  0.00  0.00    -0.055 C 
ATOM     20  C   UNL     1     -11.574   2.733  18.366  0.00  0.00    -0.065 C 
ATOM     21  C   UNL     1     -10.978   1.533  18.440  0.00  0.00    -0.081 C 
ATOM     22  C   UNL     1     -11.722   0.258  18.746  0.00  0.00    +0.003 C 
ATOM     23  C   UNL     1     -11.345  -0.446  20.074  0.00  0.00    +0.111 C 
ATOM     24  C   UNL     1     -11.435   0.348  21.416  0.00  0.00    +0.020 C 
ATOM     25  C   UNL     1     -12.904   0.676  21.819  0.00  0.00    +0.064 C 
ATOM     26  H   UNL     1     -12.062   1.761  23.529  0.00  0.00    +0.032 HD
ATOM     27  H   UNL     1     -14.876   2.585  22.661  0.00  0.00    +0.027 HD
ATOM     28  H   UNL     1     -14.018   3.187  24.066  0.00  0.00    +0.027 HD
ATOM     29  H   UNL     1     -12.246   4.177  22.650  0.00  0.00    +0.029 HD
ATOM     30  H   UNL     1     -12.974   3.518  21.211  0.00  0.00    +0.029 HD
ATOM     31  H   UNL     1     -15.144   4.858  21.922  0.00  0.00    +0.064 HD
ATOM     32  H   UNL     1     -12.398   7.186  22.229  0.00  0.00    +0.057 HD
ATOM     33  H   UNL     1     -12.775   9.193  23.578  0.00  0.00    +0.031 HD
ATOM     34  H   UNL     1     -13.487   8.305  24.889  0.00  0.00    +0.031 HD
ATOM     35  H   UNL     1     -11.173   9.062  25.350  0.00  0.00    +0.030 HD
ATOM     36  H   UNL     1     -10.197   6.937  23.378  0.00  0.00    +0.030 HD
ATOM     37  H   UNL     1      -9.219   7.957  24.425  0.00  0.00    +0.030 HD
ATOM     38  H   UNL     1     -10.980   9.056  22.163  0.00  0.00    +0.064 HD
ATOM     39  H   UNL     1      -7.948   9.111  21.974  0.00  0.00    +0.059 HD
ATOM     40  H   UNL     1     -10.063   7.372  20.590  0.00  0.00    +0.057 HD
ATOM     41  H   UNL     1      -7.184   8.171  19.808  0.00  0.00    +0.034 HD
ATOM     42  H   UNL     1      -7.651   6.467  19.991  0.00  0.00    +0.034 HD
ATOM     43  H   UNL     1      -9.128   8.383  18.112  0.00  0.00    +0.074 HD
ATOM     44  H   UNL     1     -12.528   5.255  18.254  0.00  0.00    +0.069 HD
ATOM     45  H   UNL     1      -9.764   3.892  18.096  0.00  0.00    +0.062 HD
ATOM     46  H   UNL     1     -12.651   2.805  18.522  0.00  0.00    +0.061 HD
ATOM     47  H   UNL     1      -9.901   1.437  18.317  0.00  0.00    +0.057 HD
ATOM     48  H   UNL     1     -12.803   0.421  18.697  0.00  0.00    +0.034 HD
ATOM     49  H   UNL     1     -11.496  -0.432  17.921  0.00  0.00    +0.034 HD
ATOM     50  H   UNL     1     -12.022  -1.310  20.148  0.00  0.00    +0.074 HD
ATOM     51  H   UNL     1     -11.062  -0.330  22.196  0.00  0.00    +0.036 HD
ATOM     52  H   UNL     1     -13.397  -0.297  21.951  0.00  0.00    +0.060 HD
ENDROOT
BRANCH   1  53
ATOM     53  C   UNL     1     -13.667   0.592  24.223  0.00  0.00    -0.060 C 
ATOM     54  H   UNL     1     -12.944  -0.149  24.579  0.00  0.00    +0.023 HD
ATOM     55  H   UNL     1     -14.004   1.185  25.080  0.00  0.00    +0.023 HD
ATOM     56  H   UNL     1     -14.539   0.057  23.832  0.00  0.00    +0.023 HD
ENDBRANCH   1  53
BRANCH   5  57
ATOM     57  C   UNL     1     -14.884   5.959  24.336  0.00  0.00    -0.041 C 
ATOM     58  H   UNL     1     -15.261   6.926  24.688  0.00  0.00    +0.028 HD
ATOM     59  H   UNL     1     -15.735   5.346  24.030  0.00  0.00    +0.028 HD
ATOM     60  H   UNL     1     -14.423   5.476  25.197  0.00  0.00    +0.028 HD
ENDBRANCH   5  57
BRANCH  24  61
ATOM     61  C   UNL     1     -10.471   1.541  21.475  0.00  0.00    -0.057 C 
ATOM     62  H   UNL     1     -10.588   2.089  22.417  0.00  0.00    +0.023 HD
ATOM     63  H   UNL     1     -10.643   2.255  20.668  0.00  0.00    +0.023 HD
ATOM     64  H   UNL     1      -9.426   1.221  21.445  0.00  0.00    +0.023 HD
ENDBRANCH  24  61
BRANCH   8  65
ATOM     65  C   UNL     1     -11.333   6.990  25.828  0.00  0.00    -0.062 C 
ATOM     66  H   UNL     1     -11.839   6.103  25.430  0.00  0.00    +0.023 HD
ATOM     67  H   UNL     1     -10.316   6.704  26.113  0.00  0.00    +0.023 HD
ATOM     68  H   UNL     1     -11.864   7.294  26.736  0.00  0.00    +0.023 HD
ENDBRANCH   8  65
BRANCH  14  69
ATOM     69  C   UNL     1      -7.403   7.338  17.227  0.00  0.00    +0.020 C 
ATOM     70  H   UNL     1      -6.537   6.910  17.748  0.00  0.00    +0.036 HD
BRANCH  69  71
ATOM     71  C   UNL     1      -7.800   6.394  16.086  0.00  0.00    -0.057 C 
ATOM     72  H   UNL     1      -7.140   6.485  15.223  0.00  0.00    +0.023 HD
ATOM     73  H   UNL     1      -8.823   6.580  15.744  0.00  0.00    +0.023 HD
ATOM     74  H   UNL     1      -7.744   5.347  16.406  0.00  0.00    +0.023 HD
ENDBRANCH  69  71
BRANCH  69  75
ATOM     75  C   UNL     1      -6.996   8.763  16.754  0.00  0.00    +0.064 C 
ATOM     76  H   UNL     1      -7.177   8.844  15.676  0.00  0.00    +0.060 HD
BRANCH  75  77
ATOM     77  C   UNL     1      -5.565   9.291  17.056  0.00  0.00    -0.017 C 
ATOM     78  H   UNL     1      -5.002   8.440  17.470  0.00  0.00    +0.032 HD
BRANCH  77  79
ATOM     79  C   UNL     1      -4.778   9.708  15.806  0.00  0.00    -0.060 C 
ATOM     80  H   UNL     1      -3.960   9.006  15.614  0.00  0.00    +0.023 HD
ATOM     81  H   UNL     1      -5.414   9.702  14.916  0.00  0.00    +0.023 HD
ATOM     82  H   UNL     1      -4.332  10.699  15.902  0.00  0.00    +0.023 HD
ENDBRANCH  77  79
BRANCH  77  83
ATOM     83  C   UNL     1      -5.584  10.349  18.182  0.00  0.00    -0.045 C 
ATOM     84  H   UNL     1      -5.020   9.941  19.031  0.00  0.00    +0.027 HD
ATOM     85  H   UNL     1      -6.603  10.510  18.536  0.00  0.00    +0.027 HD
BRANCH  83  86
ATOM     86  C   UNL     1      -4.982  11.698  17.784  0.00  0.00    -0.015 C 
ATOM     87  H   UNL     1      -5.200  11.904  16.728  0.00  0.00    +0.030 HD
ATOM     88  H   UNL     1      -3.887  11.646  17.844  0.00  0.00    +0.030 HD
BRANCH  86  89
ATOM     89  C   UNL     1      -5.426  12.893  18.653  0.00  0.00    +0.109 C 
ATOM     90  H   UNL     1      -5.974  13.577  17.994  0.00  0.00    +0.074 HD
BRANCH  89  91
ATOM     91  C   UNL     1      -4.294  13.710  19.333  0.00  0.00    +0.031 C 
ATOM     92  H   UNL     1      -3.343  13.262  19.016  0.00  0.00    +0.037 HD
BRANCH  91  93
ATOM     93  C   UNL     1      -4.374  13.638  20.865  0.00  0.00    -0.056 C 
ATOM     94  H   UNL     1      -4.464  14.636  21.305  0.00  0.00    +0.023 HD
ATOM     95  H   UNL     1      -3.484  13.164  21.289  0.00  0.00    +0.023 HD
ATOM     96  H   UNL     1      -5.232  13.049  21.202  0.00  0.00    +0.023 HD
ENDBRANCH  91  93
BRANCH  91  97
ATOM     97  C   UNL     1      -4.310  15.202  18.865  0.00  0.00    +0.115 C 
ATOM     98  H   UNL     1      -5.279  15.625  19.156  0.00  0.00    +0.074 HD
BRANCH  97  99
ATOM     99  C   UNL     1      -3.194  16.076  19.513  0.00  0.00    +0.013 C 
ATOM    100  H   UNL     1      -3.217  15.932  20.598  0.00  0.00    +0.038 HD
BRANCH  99 101
ATOM    101  C   UNL     1      -3.451  17.570  19.272  0.00  0.00    -0.056 C 
ATOM    102  H   UNL     1      -2.531  18.115  19.031  0.00  0.00    +0.024 HD
ATOM    103  H   UNL     1      -3.887  18.037  20.165  0.00  0.00    +0.024 HD
ATOM    104  H   UNL     1      -4.157  17.713  18.448  0.00  0.00    +0.024 HD
ENDBRANCH  99 101
BRANCH  99 105
ATOM    105  C   UNL     1      -1.812  15.738  18.982  0.00  0.00    -0.064 C 
ATOM    106  C   UNL     1      -0.711  15.693  19.741  0.00  0.00    -0.005 C 
ATOM    107  H   UNL     1      -1.773  15.546  17.914  0.00  0.00    +0.059 HD
ATOM    108  H   UNL     1      -0.802  15.896  20.810  0.00  0.00    +0.078 HD
BRANCH 106 109
ATOM    109  N   UNL     1       0.581  15.410  19.326  0.00  0.00    -0.284 N 
ATOM    110  C   UNL     1       1.743  15.917  19.896  0.00  0.00    +0.206 C 
ATOM    111  O   UNL     1       2.890  15.683  19.528  0.00  0.00    -0.279 OA
ATOM    112  H   UNL     1       1.567  16.577  20.757  0.00  0.00    +0.126 HD
BRANCH 109 113
ATOM    113  C   UNL     1       0.729  14.527  18.174  0.00  0.00    +0.007 C 
ATOM    114  H   UNL     1       1.672  13.976  18.192  0.00  0.00    +0.043 HD
ATOM    115  H   UNL     1      -0.096  13.809  18.162  0.00  0.00    +0.043 HD
ATOM    116  H   UNL     1       0.695  15.145  17.273  0.00  0.00    +0.043 HD
ENDBRANCH 109 113
ENDBRANCH 106 109
ENDBRANCH  99 105
ENDBRANCH  97  99
BRANCH  97 117
ATOM    117  O   UNL     1      -4.147  15.254  17.427  0.00  0.00    -0.461 OA
BRANCH 117 118
ATOM    118  C   UNL     1      -5.163  15.792  16.697  0.00  0.00    +0.304 C 
ATOM    119  O   UNL     1      -6.072  16.479  17.140  0.00  0.00    -0.251 OA
BRANCH 118 120
ATOM    120  C   UNL     1      -4.997  15.438  15.253  0.00  0.00    +0.033 C 
ATOM    121  H   UNL     1      -4.023  14.969  15.096  0.00  0.00    +0.034 HD
ATOM    122  H   UNL     1      -5.801  14.766  14.940  0.00  0.00    +0.034 HD
ATOM    123  H   UNL     1      -5.050  16.348  14.649  0.00  0.00    +0.034 HD
ENDBRANCH 118 120
ENDBRANCH 117 118
ENDBRANCH  97 117
ENDBRANCH  91  97
ENDBRANCH  89  91
BRANCH  89 124
ATOM    124  O   UNL     1      -6.294  12.346  19.675  0.00  0.00    -0.460 OA
BRANCH 124 125
ATOM    125  C   UNL     1      -7.614  12.666  19.615  0.00  0.00    +0.324 C 
ATOM    126  O   UNL     1      -8.499  11.976  20.117  0.00  0.00    -0.249 OA
BRANCH 125 127
ATOM    127  C   UNL     1      -7.895  14.027  18.950  0.00  0.00    +0.105 C 
ATOM    128  H   UNL     1      -7.018  14.230  18.319  0.00  0.00    +0.058 HD
BRANCH 127 129
ATOM    129  C   UNL     1      -7.911  15.123  20.025  0.00  0.00    -0.039 C 
ATOM    130  H   UNL     1      -7.749  14.703  21.025  0.00  0.00    +0.025 HD
ATOM    131  H   UNL     1      -7.150  15.889  19.840  0.00  0.00    +0.025 HD
ATOM    132  H   UNL     1      -8.883  15.632  20.040  0.00  0.00    +0.025 HD
ENDBRANCH 127 129
BRANCH 127 133
ATOM    133  N   UNL     1      -9.099  14.146  18.087  0.00  0.00    -0.296 NA
BRANCH 133 134
ATOM    134  C   UNL     1      -8.828  14.272  16.660  0.00  0.00    -0.012 C 
ATOM    135  H   UNL     1      -9.234  15.200  16.245  0.00  0.00    +0.039 HD
ATOM    136  H   UNL     1      -9.220  13.433  16.081  0.00  0.00    +0.039 HD
ATOM    137  H   UNL     1      -7.745  14.315  16.485  0.00  0.00    +0.039 HD
ENDBRANCH 133 134
BRANCH 133 138
ATOM    138  C   UNL     1     -10.056  15.146  18.545  0.00  0.00    -0.012 C 
ATOM    139  H   UNL     1     -10.174  15.109  19.633  0.00  0.00    +0.039 HD
ATOM    140  H   UNL     1     -11.047  14.939  18.122  0.00  0.00    +0.039 HD
ATOM    141  H   UNL     1      -9.786  16.167  18.263  0.00  0.00    +0.039 HD
ENDBRANCH 133 138
ENDBRANCH 127 133
ENDBRANCH 125 127
ENDBRANCH 124 125
ENDBRANCH  89 124
ENDBRANCH  86  89
ENDBRANCH  83  86
ENDBRANCH  77  83
ENDBRANCH  75  77
BRANCH  75 142
ATOM    142  O   UNL     1      -7.910   9.690  17.367  0.00  0.00    -0.391 OA
ATOM    143  H   UNL     1      -8.791   9.281  17.404  0.00  0.00    +0.210 HD
ENDBRANCH  75 142
ENDBRANCH  69  75
ENDBRANCH  14  69
BRANCH  25 144
ATOM    144  O   UNL     1     -13.600   1.289  20.744  0.00  0.00    -0.391 OA
ATOM    145  H   UNL     1     -14.507   0.936  20.736  0.00  0.00    +0.210 HD
ENDBRANCH  25 144
BRANCH  23 146
ATOM    146  O   UNL     1      -9.997  -0.956  19.887  0.00  0.00    -0.460 OA
BRANCH 146 147
ATOM    147  C   UNL     1      -9.852  -2.291  19.672  0.00  0.00    +0.327 C 
ATOM    148  O   UNL     1     -10.035  -2.830  18.582  0.00  0.00    -0.249 OA
BRANCH 147 149
ATOM    149  C   UNL     1      -9.415  -3.072  20.924  0.00  0.00    +0.131 C 
ATOM    150  H   UNL     1     -10.332  -3.131  21.528  0.00  0.00    +0.060 HD
BRANCH 149 151
ATOM    151  C   UNL     1      -8.392  -2.197  21.685  0.00  0.00    +0.073 C 
ATOM    152  H   UNL     1      -7.483  -2.766  21.917  0.00  0.00    +0.058 HD
ATOM    153  H   UNL     1      -8.090  -1.349  21.057  0.00  0.00    +0.058 HD
BRANCH 151 154
ATOM    154  O   UNL     1      -8.965  -1.673  22.888  0.00  0.00    -0.381 OA
BRANCH 154 155
ATOM    155  C   UNL     1      -9.988  -2.518  23.396  0.00  0.00    +0.037 C 
ATOM    156  H   UNL     1      -9.920  -3.516  22.954  0.00  0.00    +0.052 HD
ATOM    157  H   UNL     1     -10.972  -2.083  23.196  0.00  0.00    +0.052 HD
ATOM    158  H   UNL     1      -9.858  -2.605  24.478  0.00  0.00    +0.052 HD
ENDBRANCH 154 155
ENDBRANCH 151 154
ENDBRANCH 149 151
BRANCH 149 159
ATOM    159  N   UNL     1      -9.015  -4.480  20.601  0.00  0.00    -0.294 NA
BRANCH 159 160
ATOM    160  C   UNL     1     -10.035  -5.438  21.028  0.00  0.00    -0.012 C 
ATOM    161  H   UNL     1     -10.550  -5.918  20.192  0.00  0.00    +0.039 HD
ATOM    162  H   UNL     1     -10.788  -4.941  21.650  0.00  0.00    +0.039 HD
ATOM    163  H   UNL     1      -9.591  -6.217  21.655  0.00  0.00    +0.039 HD
ENDBRANCH 159 160
BRANCH 159 164
ATOM    164  C   UNL     1      -7.708  -4.858  21.130  0.00  0.00    -0.012 C 
ATOM    165  H   UNL     1      -6.919  -4.274  20.641  0.00  0.00    +0.039 HD
ATOM    166  H   UNL     1      -7.480  -5.917  20.973  0.00  0.00    +0.039 HD
ATOM    167  H   UNL     1      -7.633  -4.644  22.201  0.00  0.00    +0.039 HD
ENDBRANCH 159 164
ENDBRANCH 149 159
ENDBRANCH 147 149
ENDBRANCH 146 147
ENDBRANCH  23 146
BRANCH   4 168
ATOM    168  O   UNL     1     -13.680   5.759  20.785  0.00  0.00    -0.376 OA
BRANCH 168 169
ATOM    169  C   UNL     1     -14.773   6.185  19.979  0.00  0.00    +0.037 C 
ATOM    170  H   UNL     1     -15.578   6.575  20.607  0.00  0.00    +0.052 HD
ATOM    171  H   UNL     1     -14.461   6.942  19.254  0.00  0.00    +0.052 HD
ATOM    172  H   UNL     1     -15.150   5.317  19.431  0.00  0.00    +0.052 HD
ENDBRANCH 168 169
ENDBRANCH   4 168
BRANCH  10 173
ATOM    173  O   UNL     1      -9.775  10.268  23.332  0.00  0.00    -0.376 OA
BRANCH 173 174
ATOM    174  C   UNL     1     -10.600  11.308  22.820  0.00  0.00    +0.037 C 
ATOM    175  H   UNL     1     -11.310  11.594  23.602  0.00  0.00    +0.052 HD
ATOM    176  H   UNL     1     -10.004  12.186  22.558  0.00  0.00    +0.052 HD
ATOM    177  H   UNL     1     -11.165  10.960  21.951  0.00  0.00    +0.052 HD
ENDBRANCH 173 174
ENDBRANCH  10 173
TORSDOF 45
ENDMDL
MODEL 9
REMARK VINA RESULT:      -4.8      4.612     13.654
REMARK  Name = Aplyronine A_conf2
REMARK  45 active torsions:
REMARK  status: ('A' for Active; 'I' for Inactive)
REMARK    1  A    between atoms: C_1  and  C_2
REMARK    2  A    between atoms: C_5  and  O_75
REMARK    3  A    between atoms: C_6  and  C_74
REMARK    4  A    between atoms: C_9  and  C_73
REMARK    5  A    between atoms: C_11  and  O_71
REMARK    6  A    between atoms: C_15  and  C_39
REMARK    7  A    between atoms: C_24  and  O_29
REMARK    8  A    between atoms: C_25  and  C_28
REMARK    9  A    between atoms: C_26  and  O_27
REMARK   10  A    between atoms: O_29  and  C_30
REMARK   11  A    between atoms: C_30  and  C_32
REMARK   12  A    between atoms: C_32  and  C_33
REMARK   13  A    between atoms: C_32  and  N_36
REMARK   14  A    between atoms: C_33  and  O_34
REMARK   15  A    between atoms: O_34  and  C_35
REMARK   16  A    between atoms: N_36  and  C_37
REMARK   17  A    between atoms: N_36  and  C_38
REMARK   18  A    between atoms: C_39  and  C_40
REMARK   19  A    between atoms: C_39  and  C_41
REMARK   20  A    between atoms: C_41  and  C_42
REMARK   21  A    between atoms: C_41  and  O_70
REMARK   22  A    between atoms: C_42  and  C_43
REMARK   23  A    between atoms: C_42  and  C_44
REMARK   24  A    between atoms: C_44  and  C_45
REMARK   25  A    between atoms: C_45  and  C_46
REMARK   26  A    between atoms: C_46  and  C_47
REMARK   27  A    between atoms: C_46  and  O_62
REMARK   28  A    between atoms: C_47  and  C_48
REMARK   29  A    between atoms: C_47  and  C_49
REMARK   30  A    between atoms: C_49  and  C_50
REMARK   31  A    between atoms: C_49  and  O_58
REMARK   32  A    between atoms: C_50  and  C_51
REMARK   33  A    between atoms: C_50  and  C_52
REMARK   34  A    between atoms: C_53  and  N_54
REMARK   35  A    between atoms: N_54  and  C_55
REMARK   36  A    between atoms: O_58  and  C_59
REMARK   37  A    between atoms: C_59  and  C_61
REMARK   38  A    between atoms: O_62  and  C_63
REMARK   39  A    between atoms: C_63  and  C_65
REMARK   40  A    between atoms: C_65  and  C_66
REMARK   41  A    between atoms: C_65  and  N_67
REMARK   42  A    between atoms: N_67  and  C_68
REMARK   43  A    between atoms: N_67  and  C_69
REMARK   44  A    between atoms: O_71  and  C_72
REMARK   45  A    between atoms: O_75  and  C_76
REMARK                            x       y       z     vdW  Elec       q    Type
REMARK                         _______ _______ _______ _____ _____    ______ ____
ROOT
ATOM      1  C   UNL     1      -9.663  15.935  24.405  0.00  0.00    -0.017 C 
ATOM      2  C   UNL     1     -10.017  16.507  23.011  0.00  0.00    -0.045 C 
ATOM      3  C   UNL     1      -9.532  15.643  21.839  0.00  0.00    -0.022 C 
ATOM      4  C   UNL     1      -9.989  16.161  20.459  0.00  0.00    +0.079 C 
ATOM      5  C   UNL     1      -9.036  17.215  19.885  0.00  0.00    -0.048 C 
ATOM      6  C   UNL     1      -8.006  16.860  19.086  0.00  0.00    -0.082 C 
ATOM      7  C   UNL     1      -6.982  17.719  18.394  0.00  0.00    -0.032 C 
ATOM      8  C   UNL     1      -5.540  17.556  18.926  0.00  0.00    -0.038 C 
ATOM      9  C   UNL     1      -5.039  16.095  19.018  0.00  0.00    -0.020 C 
ATOM     10  C   UNL     1      -5.154  15.296  17.709  0.00  0.00    +0.077 C 
ATOM     11  C   UNL     1      -4.744  13.862  17.944  0.00  0.00    -0.059 C 
ATOM     12  C   UNL     1      -5.607  12.931  18.391  0.00  0.00    -0.082 C 
ATOM     13  C   UNL     1      -5.278  11.477  18.618  0.00  0.00    +0.003 C 
ATOM     14  C   UNL     1      -6.402  10.538  18.112  0.00  0.00    +0.112 C 
ATOM     15  O   UNL     1      -7.518  10.661  19.031  0.00  0.00    -0.458 OA
ATOM     16  C   UNL     1      -8.619  11.334  18.630  0.00  0.00    +0.332 C 
ATOM     17  O   UNL     1      -8.837  11.774  17.513  0.00  0.00    -0.246 OA
ATOM     18  C   UNL     1      -9.547  11.548  19.762  0.00  0.00    +0.022 C 
ATOM     19  C   UNL     1      -9.375  11.048  20.995  0.00  0.00    -0.055 C 
ATOM     20  C   UNL     1     -10.258  11.375  22.093  0.00  0.00    -0.065 C 
ATOM     21  C   UNL     1     -10.071  10.926  23.344  0.00  0.00    -0.081 C 
ATOM     22  C   UNL     1     -10.924  11.352  24.511  0.00  0.00    +0.003 C 
ATOM     23  C   UNL     1     -10.202  12.152  25.624  0.00  0.00    +0.111 C 
ATOM     24  C   UNL     1      -9.431  13.459  25.251  0.00  0.00    +0.020 C 
ATOM     25  C   UNL     1     -10.385  14.612  24.818  0.00  0.00    +0.064 C 
ATOM     26  H   UNL     1      -8.578  15.794  24.433  0.00  0.00    +0.032 HD
ATOM     27  H   UNL     1     -11.101  16.661  22.938  0.00  0.00    +0.027 HD
ATOM     28  H   UNL     1      -9.561  17.498  22.923  0.00  0.00    +0.027 HD
ATOM     29  H   UNL     1      -8.437  15.560  21.870  0.00  0.00    +0.029 HD
ATOM     30  H   UNL     1      -9.900  14.619  21.951  0.00  0.00    +0.029 HD
ATOM     31  H   UNL     1     -11.007  16.563  20.537  0.00  0.00    +0.064 HD
ATOM     32  H   UNL     1      -7.887  15.794  18.887  0.00  0.00    +0.057 HD
ATOM     33  H   UNL     1      -7.003  17.460  17.328  0.00  0.00    +0.031 HD
ATOM     34  H   UNL     1      -7.255  18.778  18.428  0.00  0.00    +0.031 HD
ATOM     35  H   UNL     1      -4.881  18.096  18.232  0.00  0.00    +0.030 HD
ATOM     36  H   UNL     1      -5.583  15.578  19.820  0.00  0.00    +0.030 HD
ATOM     37  H   UNL     1      -3.985  16.123  19.326  0.00  0.00    +0.030 HD
ATOM     38  H   UNL     1      -6.185  15.321  17.340  0.00  0.00    +0.064 HD
ATOM     39  H   UNL     1      -3.709  13.604  17.735  0.00  0.00    +0.059 HD
ATOM     40  H   UNL     1      -6.625  13.243  18.620  0.00  0.00    +0.057 HD
ATOM     41  H   UNL     1      -4.334  11.233  18.115  0.00  0.00    +0.034 HD
ATOM     42  H   UNL     1      -5.136  11.340  19.697  0.00  0.00    +0.034 HD
ATOM     43  H   UNL     1      -6.685  10.851  17.100  0.00  0.00    +0.074 HD
ATOM     44  H   UNL     1     -10.380  12.200  19.527  0.00  0.00    +0.069 HD
ATOM     45  H   UNL     1      -8.527  10.408  21.221  0.00  0.00    +0.062 HD
ATOM     46  H   UNL     1     -11.070  12.074  21.892  0.00  0.00    +0.061 HD
ATOM     47  H   UNL     1      -9.250  10.249  23.576  0.00  0.00    +0.057 HD
ATOM     48  H   UNL     1     -11.807  11.897  24.164  0.00  0.00    +0.034 HD
ATOM     49  H   UNL     1     -11.313  10.426  24.958  0.00  0.00    +0.034 HD
ATOM     50  H   UNL     1     -10.986  12.419  26.347  0.00  0.00    +0.074 HD
ATOM     51  H   UNL     1      -8.955  13.806  26.179  0.00  0.00    +0.036 HD
ATOM     52  H   UNL     1     -11.019  14.814  25.691  0.00  0.00    +0.060 HD
ENDROOT
BRANCH   1  53
ATOM     53  C   UNL     1      -9.945  17.010  25.471  0.00  0.00    -0.060 C 
ATOM     54  H   UNL     1     -10.472  17.867  25.040  0.00  0.00    +0.023 HD
ATOM     55  H   UNL     1     -10.555  16.601  26.284  0.00  0.00    +0.023 HD
ATOM     56  H   UNL     1      -9.010  17.372  25.914  0.00  0.00    +0.023 HD
ENDBRANCH   1  53
BRANCH   5  57
ATOM     57  C   UNL     1      -9.362  18.640  20.246  0.00  0.00    -0.041 C 
ATOM     58  H   UNL     1      -8.487  19.283  20.096  0.00  0.00    +0.028 HD
ATOM     59  H   UNL     1     -10.178  19.016  19.624  0.00  0.00    +0.028 HD
ATOM     60  H   UNL     1      -9.659  18.762  21.287  0.00  0.00    +0.028 HD
ENDBRANCH   5  57
BRANCH  24  61
ATOM     61  C   UNL     1      -8.249  13.212  24.304  0.00  0.00    -0.057 C 
ATOM     62  H   UNL     1      -8.122  14.052  23.613  0.00  0.00    +0.023 HD
ATOM     63  H   UNL     1      -8.384  12.316  23.696  0.00  0.00    +0.023 HD
ATOM     64  H   UNL     1      -7.303  13.128  24.847  0.00  0.00    +0.023 HD
ENDBRANCH  24  61
BRANCH   8  65
ATOM     65  C   UNL     1      -5.396  18.230  20.297  0.00  0.00    -0.062 C 
ATOM     66  H   UNL     1      -5.387  17.484  21.099  0.00  0.00    +0.023 HD
ATOM     67  H   UNL     1      -4.473  18.814  20.363  0.00  0.00    +0.023 HD
ATOM     68  H   UNL     1      -6.236  18.907  20.485  0.00  0.00    +0.023 HD
ENDBRANCH   8  65
BRANCH  14  69
ATOM     69  C   UNL     1      -5.945   9.040  18.111  0.00  0.00    +0.020 C 
ATOM     70  H   UNL     1      -4.847   9.034  18.117  0.00  0.00    +0.036 HD
BRANCH  69  71
ATOM     71  C   UNL     1      -6.442   8.321  19.371  0.00  0.00    -0.057 C 
ATOM     72  H   UNL     1      -7.162   8.918  19.933  0.00  0.00    +0.023 HD
ATOM     73  H   UNL     1      -5.618   8.072  20.046  0.00  0.00    +0.023 HD
ATOM     74  H   UNL     1      -6.954   7.387  19.114  0.00  0.00    +0.023 HD
ENDBRANCH  69  71
BRANCH  69  75
ATOM     75  C   UNL     1      -6.400   8.371  16.782  0.00  0.00    +0.064 C 
ATOM     76  H   UNL     1      -6.163   9.043  15.948  0.00  0.00    +0.060 HD
BRANCH  75  77
ATOM     77  C   UNL     1      -7.871   7.893  16.628  0.00  0.00    -0.017 C 
ATOM     78  H   UNL     1      -8.332   7.985  17.624  0.00  0.00    +0.032 HD
BRANCH  77  79
ATOM     79  C   UNL     1      -8.725   8.784  15.718  0.00  0.00    -0.060 C 
ATOM     80  H   UNL     1      -9.067   8.224  14.841  0.00  0.00    +0.023 HD
ATOM     81  H   UNL     1      -9.623   9.137  16.235  0.00  0.00    +0.023 HD
ATOM     82  H   UNL     1      -8.179   9.653  15.348  0.00  0.00    +0.023 HD
ENDBRANCH  77  79
BRANCH  77  83
ATOM     83  C   UNL     1      -7.937   6.386  16.291  0.00  0.00    -0.045 C 
ATOM     84  H   UNL     1      -7.816   5.830  17.230  0.00  0.00    +0.027 HD
ATOM     85  H   UNL     1      -7.100   6.101  15.653  0.00  0.00    +0.027 HD
BRANCH  83  86
ATOM     86  C   UNL     1      -9.240   5.951  15.617  0.00  0.00    -0.015 C 
ATOM     87  H   UNL     1      -9.024   5.550  14.618  0.00  0.00    +0.030 HD
ATOM     88  H   UNL     1      -9.875   6.829  15.440  0.00  0.00    +0.030 HD
BRANCH  86  89
ATOM     89  C   UNL     1     -10.084   4.937  16.418  0.00  0.00    +0.109 C 
ATOM     90  H   UNL     1      -9.432   4.534  17.203  0.00  0.00    +0.074 HD
BRANCH  89  91
ATOM     91  C   UNL     1     -10.652   3.732  15.621  0.00  0.00    +0.031 C 
ATOM     92  H   UNL     1     -10.405   3.902  14.566  0.00  0.00    +0.037 HD
BRANCH  91  93
ATOM     93  C   UNL     1     -12.179   3.630  15.749  0.00  0.00    -0.056 C 
ATOM     94  H   UNL     1     -12.599   2.971  14.981  0.00  0.00    +0.023 HD
ATOM     95  H   UNL     1     -12.654   4.610  15.644  0.00  0.00    +0.023 HD
ATOM     96  H   UNL     1     -12.484   3.238  16.724  0.00  0.00    +0.023 HD
ENDBRANCH  91  93
BRANCH  91  97
ATOM     97  C   UNL     1      -9.986   2.390  16.068  0.00  0.00    +0.115 C 
ATOM     98  H   UNL     1     -10.697   1.584  15.851  0.00  0.00    +0.074 HD
BRANCH  97  99
ATOM     99  C   UNL     1      -8.658   2.068  15.320  0.00  0.00    +0.013 C 
ATOM    100  H   UNL     1      -8.523   0.982  15.290  0.00  0.00    +0.038 HD
BRANCH  99 101
ATOM    101  C   UNL     1      -7.446   2.630  16.077  0.00  0.00    -0.056 C 
ATOM    102  H   UNL     1      -6.531   2.060  15.876  0.00  0.00    +0.024 HD
ATOM    103  H   UNL     1      -7.619   2.604  17.161  0.00  0.00    +0.024 HD
ATOM    104  H   UNL     1      -7.265   3.673  15.797  0.00  0.00    +0.024 HD
ENDBRANCH  99 101
BRANCH  99 105
ATOM    105  C   UNL     1      -8.638   2.625  13.908  0.00  0.00    -0.064 C 
ATOM    106  C   UNL     1      -7.820   2.186  12.943  0.00  0.00    -0.005 C 
ATOM    107  H   UNL     1      -9.339   3.436  13.732  0.00  0.00    +0.059 HD
ATOM    108  H   UNL     1      -7.133   1.369  13.171  0.00  0.00    +0.078 HD
BRANCH 106 109
ATOM    109  N   UNL     1      -7.734   2.655  11.641  0.00  0.00    -0.284 N 
ATOM    110  C   UNL     1      -6.733   2.336  10.732  0.00  0.00    +0.206 C 
ATOM    111  O   UNL     1      -6.642   2.755   9.583  0.00  0.00    -0.279 OA
ATOM    112  H   UNL     1      -5.983   1.634  11.121  0.00  0.00    +0.126 HD
BRANCH 109 113
ATOM    113  C   UNL     1      -8.769   3.584  11.201  0.00  0.00    +0.007 C 
ATOM    114  H   UNL     1      -9.768   3.147  11.251  0.00  0.00    +0.043 HD
ATOM    115  H   UNL     1      -8.746   4.477  11.833  0.00  0.00    +0.043 HD
ATOM    116  H   UNL     1      -8.552   3.859  10.166  0.00  0.00    +0.043 HD
ENDBRANCH 109 113
ENDBRANCH 106 109
ENDBRANCH  99 105
ENDBRANCH  97  99
BRANCH  97 117
ATOM    117  O   UNL     1      -9.704   2.445  17.488  0.00  0.00    -0.461 OA
BRANCH 117 118
ATOM    118  C   UNL     1     -10.055   1.369  18.242  0.00  0.00    +0.304 C 
ATOM    119  O   UNL     1      -9.344   0.404  18.481  0.00  0.00    -0.251 OA
BRANCH 118 120
ATOM    120  C   UNL     1     -11.447   1.543  18.766  0.00  0.00    +0.033 C 
ATOM    121  H   UNL     1     -11.491   1.228  19.811  0.00  0.00    +0.034 HD
ATOM    122  H   UNL     1     -11.753   2.588  18.667  0.00  0.00    +0.034 HD
ATOM    123  H   UNL     1     -12.133   0.924  18.182  0.00  0.00    +0.034 HD
ENDBRANCH 118 120
ENDBRANCH 117 118
ENDBRANCH  97 117
ENDBRANCH  91  97
ENDBRANCH  89  91
BRANCH  89 124
ATOM    124  O   UNL     1     -11.182   5.689  16.987  0.00  0.00    -0.460 OA
BRANCH 124 125
ATOM    125  C   UNL     1     -11.119   5.986  18.313  0.00  0.00    +0.324 C 
ATOM    126  O   UNL     1     -11.196   5.138  19.199  0.00  0.00    -0.249 OA
BRANCH 125 127
ATOM    127  C   UNL     1     -10.839   7.473  18.605  0.00  0.00    +0.105 C 
ATOM    128  H   UNL     1     -10.225   7.825  17.764  0.00  0.00    +0.058 HD
BRANCH 127 129
ATOM    129  C   UNL     1      -9.957   7.586  19.856  0.00  0.00    -0.039 C 
ATOM    130  H   UNL     1     -10.527   7.370  20.768  0.00  0.00    +0.025 HD
ATOM    131  H   UNL     1      -9.097   6.909  19.814  0.00  0.00    +0.025 HD
ATOM    132  H   UNL     1      -9.561   8.604  19.955  0.00  0.00    +0.025 HD
ENDBRANCH 127 129
BRANCH 127 133
ATOM    133  N   UNL     1     -12.002   8.392  18.719  0.00  0.00    -0.296 NA
BRANCH 133 134
ATOM    134  C   UNL     1     -12.000   9.511  17.786  0.00  0.00    -0.012 C 
ATOM    135  H   UNL     1     -11.702   9.205  16.777  0.00  0.00    +0.039 HD
ATOM    136  H   UNL     1     -11.347  10.326  18.107  0.00  0.00    +0.039 HD
ATOM    137  H   UNL     1     -13.013   9.921  17.688  0.00  0.00    +0.039 HD
ENDBRANCH 133 134
BRANCH 133 138
ATOM    138  C   UNL     1     -12.277   8.827  20.083  0.00  0.00    -0.012 C 
ATOM    139  H   UNL     1     -12.288   7.977  20.773  0.00  0.00    +0.039 HD
ATOM    140  H   UNL     1     -13.275   9.279  20.139  0.00  0.00    +0.039 HD
ATOM    141  H   UNL     1     -11.562   9.564  20.457  0.00  0.00    +0.039 HD
ENDBRANCH 133 138
ENDBRANCH 127 133
ENDBRANCH 125 127
ENDBRANCH 124 125
ENDBRANCH  89 124
ENDBRANCH  86  89
ENDBRANCH  83  86
ENDBRANCH  77  83
ENDBRANCH  75  77
BRANCH  75 142
ATOM    142  O   UNL     1      -5.571   7.211  16.587  0.00  0.00    -0.391 OA
ATOM    143  H   UNL     1      -4.923   7.166  17.309  0.00  0.00    +0.210 HD
ENDBRANCH  75 142
ENDBRANCH  69  75
ENDBRANCH  14  69
BRANCH  25 144
ATOM    144  O   UNL     1     -11.285  14.174  23.811  0.00  0.00    -0.391 OA
ATOM    145  H   UNL     1     -10.888  13.402  23.372  0.00  0.00    +0.210 HD
ENDBRANCH  25 144
BRANCH  23 146
ATOM    146  O   UNL     1      -9.303  11.212  26.272  0.00  0.00    -0.460 OA
BRANCH 146 147
ATOM    147  C   UNL     1      -9.412  11.063  27.620  0.00  0.00    +0.327 C 
ATOM    148  O   UNL     1      -9.793  11.955  28.375  0.00  0.00    -0.249 OA
BRANCH 147 149
ATOM    149  C   UNL     1      -9.031   9.657  28.117  0.00  0.00    +0.131 C 
ATOM    150  H   UNL     1      -7.940   9.712  28.243  0.00  0.00    +0.060 HD
BRANCH 149 151
ATOM    151  C   UNL     1      -9.334   8.661  26.973  0.00  0.00    +0.073 C 
ATOM    152  H   UNL     1     -10.111   7.946  27.270  0.00  0.00    +0.058 HD
ATOM    153  H   UNL     1      -9.715   9.205  26.099  0.00  0.00    +0.058 HD
BRANCH 151 154
ATOM    154  O   UNL     1      -8.149   7.963  26.577  0.00  0.00    -0.381 OA
BRANCH 154 155
ATOM    155  C   UNL     1      -8.196   6.593  26.952  0.00  0.00    +0.037 C 
ATOM    156  H   UNL     1      -9.162   6.347  27.400  0.00  0.00    +0.052 HD
ATOM    157  H   UNL     1      -7.386   6.364  27.651  0.00  0.00    +0.052 HD
ATOM    158  H   UNL     1      -8.062   5.985  26.053  0.00  0.00    +0.052 HD
ENDBRANCH 154 155
ENDBRANCH 151 154
ENDBRANCH 149 151
BRANCH 149 159
ATOM    159  N   UNL     1      -9.611   9.358  29.466  0.00  0.00    -0.294 NA
BRANCH 159 160
ATOM    160  C   UNL     1      -8.571   9.281  30.491  0.00  0.00    -0.012 C 
ATOM    161  H   UNL     1      -7.617   8.908  30.108  0.00  0.00    +0.039 HD
ATOM    162  H   UNL     1      -8.888   8.625  31.309  0.00  0.00    +0.039 HD
ATOM    163  H   UNL     1      -8.402  10.264  30.941  0.00  0.00    +0.039 HD
ENDBRANCH 159 160
BRANCH 159 164
ATOM    164  C   UNL     1     -10.446   8.160  29.497  0.00  0.00    -0.012 C 
ATOM    165  H   UNL     1     -11.297   8.311  30.172  0.00  0.00    +0.039 HD
ATOM    166  H   UNL     1      -9.901   7.277  29.845  0.00  0.00    +0.039 HD
ATOM    167  H   UNL     1     -10.866   7.941  28.511  0.00  0.00    +0.039 HD
ENDBRANCH 159 164
ENDBRANCH 149 159
ENDBRANCH 147 149
ENDBRANCH 146 147
ENDBRANCH  23 146
BRANCH   4 168
ATOM    168  O   UNL     1     -10.039  15.004  19.599  0.00  0.00    -0.376 OA
BRANCH 168 169
ATOM    169  C   UNL     1     -11.252  14.909  18.859  0.00  0.00    +0.037 C 
ATOM    170  H   UNL     1     -11.726  13.939  19.031  0.00  0.00    +0.052 HD
ATOM    171  H   UNL     1     -11.941  15.717  19.121  0.00  0.00    +0.052 HD
ATOM    172  H   UNL     1     -11.009  14.992  17.796  0.00  0.00    +0.052 HD
ENDBRANCH 168 169
ENDBRANCH   4 168
BRANCH  10 173
ATOM    173  O   UNL     1      -4.285  15.884  16.739  0.00  0.00    -0.376 OA
BRANCH 173 174
ATOM    174  C   UNL     1      -4.820  15.836  15.421  0.00  0.00    +0.037 C 
ATOM    175  H   UNL     1      -5.889  16.062  15.481  0.00  0.00    +0.052 HD
ATOM    176  H   UNL     1      -4.345  16.582  14.780  0.00  0.00    +0.052 HD
ATOM    177  H   UNL     1      -4.702  14.837  14.993  0.00  0.00    +0.052 HD
ENDBRANCH 173 174
ENDBRANCH  10 173
TORSDOF 45
ENDMDL
MODEL 10
REMARK VINA RESULT:      -4.8      5.399     10.735
REMARK  Name = Aplyronine A_conf2
REMARK  45 active torsions:
REMARK  status: ('A' for Active; 'I' for Inactive)
REMARK    1  A    between atoms: C_1  and  C_2
REMARK    2  A    between atoms: C_5  and  O_75
REMARK    3  A    between atoms: C_6  and  C_74
REMARK    4  A    between atoms: C_9  and  C_73
REMARK    5  A    between atoms: C_11  and  O_71
REMARK    6  A    between atoms: C_15  and  C_39
REMARK    7  A    between atoms: C_24  and  O_29
REMARK    8  A    between atoms: C_25  and  C_28
REMARK    9  A    between atoms: C_26  and  O_27
REMARK   10  A    between atoms: O_29  and  C_30
REMARK   11  A    between atoms: C_30  and  C_32
REMARK   12  A    between atoms: C_32  and  C_33
REMARK   13  A    between atoms: C_32  and  N_36
REMARK   14  A    between atoms: C_33  and  O_34
REMARK   15  A    between atoms: O_34  and  C_35
REMARK   16  A    between atoms: N_36  and  C_37
REMARK   17  A    between atoms: N_36  and  C_38
REMARK   18  A    between atoms: C_39  and  C_40
REMARK   19  A    between atoms: C_39  and  C_41
REMARK   20  A    between atoms: C_41  and  C_42
REMARK   21  A    between atoms: C_41  and  O_70
REMARK   22  A    between atoms: C_42  and  C_43
REMARK   23  A    between atoms: C_42  and  C_44
REMARK   24  A    between atoms: C_44  and  C_45
REMARK   25  A    between atoms: C_45  and  C_46
REMARK   26  A    between atoms: C_46  and  C_47
REMARK   27  A    between atoms: C_46  and  O_62
REMARK   28  A    between atoms: C_47  and  C_48
REMARK   29  A    between atoms: C_47  and  C_49
REMARK   30  A    between atoms: C_49  and  C_50
REMARK   31  A    between atoms: C_49  and  O_58
REMARK   32  A    between atoms: C_50  and  C_51
REMARK   33  A    between atoms: C_50  and  C_52
REMARK   34  A    between atoms: C_53  and  N_54
REMARK   35  A    between atoms: N_54  and  C_55
REMARK   36  A    between atoms: O_58  and  C_59
REMARK   37  A    between atoms: C_59  and  C_61
REMARK   38  A    between atoms: O_62  and  C_63
REMARK   39  A    between atoms: C_63  and  C_65
REMARK   40  A    between atoms: C_65  and  C_66
REMARK   41  A    between atoms: C_65  and  N_67
REMARK   42  A    between atoms: N_67  and  C_68
REMARK   43  A    between atoms: N_67  and  C_69
REMARK   44  A    between atoms: O_71  and  C_72
REMARK   45  A    between atoms: O_75  and  C_76
REMARK                            x       y       z     vdW  Elec       q    Type
REMARK                         _______ _______ _______ _____ _____    ______ ____
ROOT
ATOM      1  C   UNL     1     -13.151   1.686  23.351  0.00  0.00    -0.017 C 
ATOM      2  C   UNL     1     -13.974   2.990  23.216  0.00  0.00    -0.045 C 
ATOM      3  C   UNL     1     -13.302   4.066  22.353  0.00  0.00    -0.022 C 
ATOM      4  C   UNL     1     -14.179   5.316  22.129  0.00  0.00    +0.079 C 
ATOM      5  C   UNL     1     -14.036   6.341  23.260  0.00  0.00    -0.048 C 
ATOM      6  C   UNL     1     -13.118   7.330  23.188  0.00  0.00    -0.082 C 
ATOM      7  C   UNL     1     -12.831   8.450  24.152  0.00  0.00    -0.032 C 
ATOM      8  C   UNL     1     -11.458   8.358  24.855  0.00  0.00    -0.038 C 
ATOM      9  C   UNL     1     -10.253   8.144  23.908  0.00  0.00    -0.020 C 
ATOM     10  C   UNL     1     -10.137   9.179  22.777  0.00  0.00    +0.077 C 
ATOM     11  C   UNL     1      -8.999   8.810  21.856  0.00  0.00    -0.059 C 
ATOM     12  C   UNL     1      -9.153   7.955  20.829  0.00  0.00    -0.082 C 
ATOM     13  C   UNL     1      -8.074   7.564  19.851  0.00  0.00    +0.003 C 
ATOM     14  C   UNL     1      -8.595   7.518  18.393  0.00  0.00    +0.112 C 
ATOM     15  O   UNL     1      -9.442   6.346  18.271  0.00  0.00    -0.458 OA
ATOM     16  C   UNL     1     -10.780   6.516  18.189  0.00  0.00    +0.332 C 
ATOM     17  O   UNL     1     -11.374   7.578  18.096  0.00  0.00    -0.246 OA
ATOM     18  C   UNL     1     -11.484   5.219  18.297  0.00  0.00    +0.022 C 
ATOM     19  C   UNL     1     -10.877   4.024  18.357  0.00  0.00    -0.055 C 
ATOM     20  C   UNL     1     -11.608   2.795  18.568  0.00  0.00    -0.065 C 
ATOM     21  C   UNL     1     -11.013   1.597  18.682  0.00  0.00    -0.081 C 
ATOM     22  C   UNL     1     -11.761   0.331  19.011  0.00  0.00    +0.003 C 
ATOM     23  C   UNL     1     -11.403  -0.338  20.363  0.00  0.00    +0.111 C 
ATOM     24  C   UNL     1     -11.512   0.492  21.681  0.00  0.00    +0.020 C 
ATOM     25  C   UNL     1     -12.986   0.830  22.055  0.00  0.00    +0.064 C 
ATOM     26  H   UNL     1     -12.168   1.960  23.747  0.00  0.00    +0.032 HD
ATOM     27  H   UNL     1     -14.970   2.760  22.818  0.00  0.00    +0.027 HD
ATOM     28  H   UNL     1     -14.132   3.399  24.219  0.00  0.00    +0.027 HD
ATOM     29  H   UNL     1     -12.341   4.352  22.801  0.00  0.00    +0.029 HD
ATOM     30  H   UNL     1     -13.048   3.655  21.371  0.00  0.00    +0.029 HD
ATOM     31  H   UNL     1     -15.228   5.012  22.015  0.00  0.00    +0.064 HD
ATOM     32  H   UNL     1     -12.487   7.349  22.298  0.00  0.00    +0.057 HD
ATOM     33  H   UNL     1     -12.884   9.391  23.589  0.00  0.00    +0.031 HD
ATOM     34  H   UNL     1     -13.613   8.538  24.913  0.00  0.00    +0.031 HD
ATOM     35  H   UNL     1     -11.306   9.308  25.385  0.00  0.00    +0.030 HD
ATOM     36  H   UNL     1     -10.303   7.132  23.485  0.00  0.00    +0.030 HD
ATOM     37  H   UNL     1      -9.340   8.180  24.518  0.00  0.00    +0.030 HD
ATOM     38  H   UNL     1     -11.069   9.217  22.202  0.00  0.00    +0.064 HD
ATOM     39  H   UNL     1      -8.034   9.269  22.055  0.00  0.00    +0.059 HD
ATOM     40  H   UNL     1     -10.130   7.493  20.688  0.00  0.00    +0.057 HD
ATOM     41  H   UNL     1      -7.240   8.272  19.926  0.00  0.00    +0.034 HD
ATOM     42  H   UNL     1      -7.709   6.573  20.148  0.00  0.00    +0.034 HD
ATOM     43  H   UNL     1      -9.160   8.438  18.197  0.00  0.00    +0.074 HD
ATOM     44  H   UNL     1     -12.561   5.312  18.376  0.00  0.00    +0.069 HD
ATOM     45  H   UNL     1      -9.795   3.947  18.292  0.00  0.00    +0.062 HD
ATOM     46  H   UNL     1     -12.687   2.870  18.706  0.00  0.00    +0.061 HD
ATOM     47  H   UNL     1      -9.934   1.499  18.577  0.00  0.00    +0.057 HD
ATOM     48  H   UNL     1     -12.841   0.491  18.942  0.00  0.00    +0.034 HD
ATOM     49  H   UNL     1     -11.523  -0.381  18.208  0.00  0.00    +0.034 HD
ATOM     50  H   UNL     1     -12.080  -1.199  20.451  0.00  0.00    +0.074 HD
ATOM     51  H   UNL     1     -11.149  -0.164  22.485  0.00  0.00    +0.036 HD
ATOM     52  H   UNL     1     -13.481  -0.140  22.206  0.00  0.00    +0.060 HD
ENDROOT
BRANCH   1  53
ATOM     53  C   UNL     1     -13.782   0.810  24.450  0.00  0.00    -0.060 C 
ATOM     54  H   UNL     1     -13.599   1.228  25.445  0.00  0.00    +0.023 HD
ATOM     55  H   UNL     1     -14.865   0.725  24.306  0.00  0.00    +0.023 HD
ATOM     56  H   UNL     1     -13.368  -0.204  24.424  0.00  0.00    +0.023 HD
ENDBRANCH   1  53
BRANCH   5  57
ATOM     57  C   UNL     1     -15.002   6.178  24.402  0.00  0.00    -0.041 C 
ATOM     58  H   UNL     1     -15.814   5.496  24.123  0.00  0.00    +0.028 HD
ATOM     59  H   UNL     1     -14.493   5.770  25.279  0.00  0.00    +0.028 HD
ATOM     60  H   UNL     1     -15.475   7.113  24.702  0.00  0.00    +0.028 HD
ENDBRANCH   5  57
BRANCH  24  61
ATOM     61  C   UNL     1     -10.549   1.687  21.723  0.00  0.00    -0.057 C 
ATOM     62  H   UNL     1      -9.553   1.373  22.054  0.00  0.00    +0.023 HD
ATOM     63  H   UNL     1     -10.883   2.466  22.410  0.00  0.00    +0.023 HD
ATOM     64  H   UNL     1     -10.407   2.130  20.733  0.00  0.00    +0.023 HD
ENDBRANCH  24  61
BRANCH   8  65
ATOM     65  C   UNL     1     -11.473   7.250  25.916  0.00  0.00    -0.062 C 
ATOM     66  H   UNL     1     -10.496   7.165  26.405  0.00  0.00    +0.023 HD
ATOM     67  H   UNL     1     -12.225   7.442  26.688  0.00  0.00    +0.023 HD
ATOM     68  H   UNL     1     -11.700   6.281  25.459  0.00  0.00    +0.023 HD
ENDBRANCH   8  65
BRANCH  14  69
ATOM     69  C   UNL     1      -7.423   7.371  17.365  0.00  0.00    +0.020 C 
ATOM     70  H   UNL     1      -6.562   6.960  17.910  0.00  0.00    +0.036 HD
BRANCH  69  71
ATOM     71  C   UNL     1      -7.802   6.393  16.247  0.00  0.00    -0.057 C 
ATOM     72  H   UNL     1      -8.070   5.407  16.630  0.00  0.00    +0.023 HD
ATOM     73  H   UNL     1      -6.985   6.260  15.531  0.00  0.00    +0.023 HD
ATOM     74  H   UNL     1      -8.675   6.752  15.691  0.00  0.00    +0.023 HD
ENDBRANCH  69  71
BRANCH  69  75
ATOM     75  C   UNL     1      -7.012   8.782  16.857  0.00  0.00    +0.064 C 
ATOM     76  H   UNL     1      -7.123   8.813  15.767  0.00  0.00    +0.060 HD
BRANCH  75  77
ATOM     77  C   UNL     1      -5.614   9.353  17.227  0.00  0.00    -0.017 C 
ATOM     78  H   UNL     1      -5.045   8.519  17.665  0.00  0.00    +0.032 HD
BRANCH  77  79
ATOM     79  C   UNL     1      -4.783   9.801  16.018  0.00  0.00    -0.060 C 
ATOM     80  H   UNL     1      -4.061   9.026  15.739  0.00  0.00    +0.023 HD
ATOM     81  H   UNL     1      -5.416   9.971  15.142  0.00  0.00    +0.023 HD
ATOM     82  H   UNL     1      -4.214  10.711  16.212  0.00  0.00    +0.023 HD
ENDBRANCH  77  79
BRANCH  77  83
ATOM     83  C   UNL     1      -5.719  10.405  18.355  0.00  0.00    -0.045 C 
ATOM     84  H   UNL     1      -5.426   9.916  19.294  0.00  0.00    +0.027 HD
ATOM     85  H   UNL     1      -6.754  10.724  18.483  0.00  0.00    +0.027 HD
BRANCH  83  86
ATOM     86  C   UNL     1      -4.845  11.643  18.141  0.00  0.00    -0.015 C 
ATOM     87  H   UNL     1      -4.489  11.669  17.103  0.00  0.00    +0.030 HD
ATOM     88  H   UNL     1      -3.937  11.564  18.752  0.00  0.00    +0.030 HD
BRANCH  86  89
ATOM     89  C   UNL     1      -5.516  12.985  18.499  0.00  0.00    +0.109 C 
ATOM     90  H   UNL     1      -4.757  13.592  19.008  0.00  0.00    +0.074 HD
BRANCH  89  91
ATOM     91  C   UNL     1      -6.754  12.910  19.433  0.00  0.00    +0.031 C 
ATOM     92  H   UNL     1      -6.736  11.921  19.907  0.00  0.00    +0.037 HD
BRANCH  91  93
ATOM     93  C   UNL     1      -8.070  13.047  18.653  0.00  0.00    -0.056 C 
ATOM     94  H   UNL     1      -8.559  12.076  18.525  0.00  0.00    +0.023 HD
ATOM     95  H   UNL     1      -7.900  13.469  17.657  0.00  0.00    +0.023 HD
ATOM     96  H   UNL     1      -8.778  13.712  19.156  0.00  0.00    +0.023 HD
ENDBRANCH  91  93
BRANCH  91  97
ATOM     97  C   UNL     1      -6.684  13.992  20.558  0.00  0.00    +0.115 C 
ATOM     98  H   UNL     1      -6.425  14.945  20.081  0.00  0.00    +0.074 HD
BRANCH  97  99
ATOM     99  C   UNL     1      -8.026  14.192  21.324  0.00  0.00    +0.013 C 
ATOM    100  H   UNL     1      -8.796  13.568  20.857  0.00  0.00    +0.038 HD
BRANCH  99 101
ATOM    101  C   UNL     1      -8.520  15.641  21.208  0.00  0.00    -0.056 C 
ATOM    102  H   UNL     1      -8.458  16.177  22.162  0.00  0.00    +0.024 HD
ATOM    103  H   UNL     1      -9.568  15.669  20.881  0.00  0.00    +0.024 HD
ATOM    104  H   UNL     1      -7.930  16.193  20.469  0.00  0.00    +0.024 HD
ENDBRANCH  99 101
BRANCH  99 105
ATOM    105  C   UNL     1      -7.911  13.845  22.797  0.00  0.00    -0.064 C 
ATOM    106  C   UNL     1      -8.614  14.447  23.764  0.00  0.00    -0.005 C 
ATOM    107  H   UNL     1      -7.189  13.065  23.023  0.00  0.00    +0.059 HD
ATOM    108  H   UNL     1      -9.325  15.227  23.486  0.00  0.00    +0.078 HD
BRANCH 106 109
ATOM    109  N   UNL     1      -8.550  14.196  25.126  0.00  0.00    -0.284 N 
ATOM    110  C   UNL     1      -8.772  12.965  25.732  0.00  0.00    +0.206 C 
ATOM    111  O   UNL     1      -8.730  12.735  26.936  0.00  0.00    -0.279 OA
ATOM    112  H   UNL     1      -8.994  12.153  25.026  0.00  0.00    +0.126 HD
BRANCH 109 113
ATOM    113  C   UNL     1      -8.250  15.328  25.996  0.00  0.00    +0.007 C 
ATOM    114  H   UNL     1      -7.638  16.083  25.499  0.00  0.00    +0.043 HD
ATOM    115  H   UNL     1      -9.186  15.792  26.320  0.00  0.00    +0.043 HD
ATOM    116  H   UNL     1      -7.707  14.945  26.865  0.00  0.00    +0.043 HD
ENDBRANCH 109 113
ENDBRANCH 106 109
ENDBRANCH  99 105
ENDBRANCH  97  99
BRANCH  97 117
ATOM    117  O   UNL     1      -5.667  13.618  21.519  0.00  0.00    -0.461 OA
BRANCH 117 118
ATOM    118  C   UNL     1      -4.511  14.336  21.526  0.00  0.00    +0.304 C 
ATOM    119  O   UNL     1      -3.435  13.958  21.084  0.00  0.00    -0.251 OA
BRANCH 118 120
ATOM    120  C   UNL     1      -4.747  15.681  22.139  0.00  0.00    +0.033 C 
ATOM    121  H   UNL     1      -5.779  15.992  21.961  0.00  0.00    +0.034 HD
ATOM    122  H   UNL     1      -4.538  15.643  23.211  0.00  0.00    +0.034 HD
ATOM    123  H   UNL     1      -4.076  16.411  21.679  0.00  0.00    +0.034 HD
ENDBRANCH 118 120
ENDBRANCH 117 118
ENDBRANCH  97 117
ENDBRANCH  91  97
ENDBRANCH  89  91
BRANCH  89 124
ATOM    124  O   UNL     1      -5.907  13.587  17.241  0.00  0.00    -0.460 OA
BRANCH 124 125
ATOM    125  C   UNL     1      -5.271  14.729  16.867  0.00  0.00    +0.324 C 
ATOM    126  O   UNL     1      -5.151  15.082  15.695  0.00  0.00    -0.249 OA
BRANCH 125 127
ATOM    127  C   UNL     1      -4.802  15.597  18.050  0.00  0.00    +0.105 C 
ATOM    128  H   UNL     1      -4.888  14.953  18.937  0.00  0.00    +0.058 HD
BRANCH 127 129
ATOM    129  C   UNL     1      -5.796  16.748  18.259  0.00  0.00    -0.039 C 
ATOM    130  H   UNL     1      -6.088  16.837  19.313  0.00  0.00    +0.025 HD
ATOM    131  H   UNL     1      -5.387  17.708  17.927  0.00  0.00    +0.025 HD
ATOM    132  H   UNL     1      -6.713  16.572  17.684  0.00  0.00    +0.025 HD
ENDBRANCH 127 129
BRANCH 127 133
ATOM    133  N   UNL     1      -3.413  16.126  18.020  0.00  0.00    -0.296 NA
BRANCH 133 134
ATOM    134  C   UNL     1      -2.368  15.115  17.926  0.00  0.00    -0.012 C 
ATOM    135  H   UNL     1      -2.068  14.740  18.910  0.00  0.00    +0.039 HD
ATOM    136  H   UNL     1      -1.478  15.477  17.407  0.00  0.00    +0.039 HD
ATOM    137  H   UNL     1      -2.738  14.241  17.373  0.00  0.00    +0.039 HD
ENDBRANCH 133 134
BRANCH 133 138
ATOM    138  C   UNL     1      -3.130  17.098  19.069  0.00  0.00    -0.012 C 
ATOM    139  H   UNL     1      -4.040  17.629  19.370  0.00  0.00    +0.039 HD
ATOM    140  H   UNL     1      -2.439  17.863  18.696  0.00  0.00    +0.039 HD
ATOM    141  H   UNL     1      -2.680  16.656  19.962  0.00  0.00    +0.039 HD
ENDBRANCH 133 138
ENDBRANCH 127 133
ENDBRANCH 125 127
ENDBRANCH 124 125
ENDBRANCH  89 124
ENDBRANCH  86  89
ENDBRANCH  83  86
ENDBRANCH  77  83
ENDBRANCH  75  77
BRANCH  75 142
ATOM    142  O   UNL     1      -7.982   9.715  17.368  0.00  0.00    -0.391 OA
ATOM    143  H   UNL     1      -8.855   9.485  17.008  0.00  0.00    +0.210 HD
ENDBRANCH  75 142
ENDBRANCH  69  75
ENDBRANCH  14  69
BRANCH  25 144
ATOM    144  O   UNL     1     -13.667   1.414  20.955  0.00  0.00    -0.391 OA
ATOM    145  H   UNL     1     -13.252   2.274  20.771  0.00  0.00    +0.210 HD
ENDBRANCH  25 144
BRANCH  23 146
ATOM    146  O   UNL     1     -10.052  -0.851  20.208  0.00  0.00    -0.460 OA
BRANCH 146 147
ATOM    147  C   UNL     1      -9.741  -2.009  20.850  0.00  0.00    +0.327 C 
ATOM    148  O   UNL     1     -10.309  -3.079  20.640  0.00  0.00    -0.249 OA
BRANCH 147 149
ATOM    149  C   UNL     1      -8.588  -1.863  21.860  0.00  0.00    +0.131 C 
ATOM    150  H   UNL     1      -8.398  -0.780  21.884  0.00  0.00    +0.060 HD
BRANCH 149 151
ATOM    151  C   UNL     1      -7.347  -2.557  21.253  0.00  0.00    +0.073 C 
ATOM    152  H   UNL     1      -6.528  -2.605  21.981  0.00  0.00    +0.058 HD
ATOM    153  H   UNL     1      -7.597  -3.591  20.981  0.00  0.00    +0.058 HD
BRANCH 151 154
ATOM    154  O   UNL     1      -6.913  -1.881  20.068  0.00  0.00    -0.381 OA
BRANCH 154 155
ATOM    155  C   UNL     1      -6.334  -2.780  19.132  0.00  0.00    +0.037 C 
ATOM    156  H   UNL     1      -6.281  -2.324  18.139  0.00  0.00    +0.052 HD
ATOM    157  H   UNL     1      -6.912  -3.708  19.091  0.00  0.00    +0.052 HD
ATOM    158  H   UNL     1      -5.319  -3.016  19.463  0.00  0.00    +0.052 HD
ENDBRANCH 154 155
ENDBRANCH 151 154
ENDBRANCH 149 151
BRANCH 149 159
ATOM    159  N   UNL     1      -8.997  -2.264  23.246  0.00  0.00    -0.294 NA
BRANCH 159 160
ATOM    160  C   UNL     1      -8.616  -3.646  23.537  0.00  0.00    -0.012 C 
ATOM    161  H   UNL     1      -8.979  -3.996  24.507  0.00  0.00    +0.039 HD
ATOM    162  H   UNL     1      -7.525  -3.752  23.525  0.00  0.00    +0.039 HD
ATOM    163  H   UNL     1      -8.994  -4.319  22.762  0.00  0.00    +0.039 HD
ENDBRANCH 159 160
BRANCH 159 164
ATOM    164  C   UNL     1     -10.415  -2.056  23.526  0.00  0.00    -0.012 C 
ATOM    165  H   UNL     1     -10.972  -2.986  23.360  0.00  0.00    +0.039 HD
ATOM    166  H   UNL     1     -10.861  -1.286  22.889  0.00  0.00    +0.039 HD
ATOM    167  H   UNL     1     -10.579  -1.779  24.571  0.00  0.00    +0.039 HD
ENDBRANCH 159 164
ENDBRANCH 149 159
ENDBRANCH 147 149
ENDBRANCH 146 147
ENDBRANCH  23 146
BRANCH   4 168
ATOM    168  O   UNL     1     -13.749   5.883  20.875  0.00  0.00    -0.376 OA
BRANCH 168 169
ATOM    169  C   UNL     1     -14.824   6.141  19.979  0.00  0.00    +0.037 C 
ATOM    170  H   UNL     1     -14.470   6.717  19.119  0.00  0.00    +0.052 HD
ATOM    171  H   UNL     1     -15.292   5.212  19.642  0.00  0.00    +0.052 HD
ATOM    172  H   UNL     1     -15.574   6.734  20.509  0.00  0.00    +0.052 HD
ENDBRANCH 168 169
ENDBRANCH   4 168
BRANCH  10 173
ATOM    173  O   UNL     1      -9.881  10.461  23.356  0.00  0.00    -0.376 OA
BRANCH 173 174
ATOM    174  C   UNL     1     -10.757  11.470  22.867  0.00  0.00    +0.037 C 
ATOM    175  H   UNL     1     -11.783  11.105  22.967  0.00  0.00    +0.052 HD
ATOM    176  H   UNL     1     -10.658  12.389  23.451  0.00  0.00    +0.052 HD
ATOM    177  H   UNL     1     -10.562  11.670  21.810  0.00  0.00    +0.052 HD
ENDBRANCH 173 174
ENDBRANCH  10 173
TORSDOF 45
ENDMDL
