MODEL 1
REMARK VINA RESULT:      -5.0      0.000      0.000
REMARK  Name = Aplyronine A_conf1
REMARK  45 active torsions:
REMARK  status: ('A' for Active; 'I' for Inactive)
REMARK    1  A    between atoms: C_1  and  C_2
REMARK    2  A    between atoms: C_5  and  O_75
REMARK    3  A    between atoms: C_6  and  C_74
REMARK    4  A    between atoms: C_9  and  C_73
REMARK    5  A    between atoms: C_11  and  O_71
REMARK    6  A    between atoms: C_15  and  C_39
REMARK    7  A    between atoms: C_24  and  O_29
REMARK    8  A    between atoms: C_25  and  C_28
REMARK    9  A    between atoms: C_26  and  O_27
REMARK   10  A    between atoms: O_29  and  C_30
REMARK   11  A    between atoms: C_30  and  C_32
REMARK   12  A    between atoms: C_32  and  C_33
REMARK   13  A    between atoms: C_32  and  N_36
REMARK   14  A    between atoms: C_33  and  O_34
REMARK   15  A    between atoms: O_34  and  C_35
REMARK   16  A    between atoms: N_36  and  C_37
REMARK   17  A    between atoms: N_36  and  C_38
REMARK   18  A    between atoms: C_39  and  C_40
REMARK   19  A    between atoms: C_39  and  C_41
REMARK   20  A    between atoms: C_41  and  C_42
REMARK   21  A    between atoms: C_41  and  O_70
REMARK   22  A    between atoms: C_42  and  C_43
REMARK   23  A    between atoms: C_42  and  C_44
REMARK   24  A    between atoms: C_44  and  C_45
REMARK   25  A    between atoms: C_45  and  C_46
REMARK   26  A    between atoms: C_46  and  C_47
REMARK   27  A    between atoms: C_46  and  O_62
REMARK   28  A    between atoms: C_47  and  C_48
REMARK   29  A    between atoms: C_47  and  C_49
REMARK   30  A    between atoms: C_49  and  C_50
REMARK   31  A    between atoms: C_49  and  O_58
REMARK   32  A    between atoms: C_50  and  C_51
REMARK   33  A    between atoms: C_50  and  C_52
REMARK   34  A    between atoms: C_53  and  N_54
REMARK   35  A    between atoms: N_54  and  C_55
REMARK   36  A    between atoms: O_58  and  C_59
REMARK   37  A    between atoms: C_59  and  C_61
REMARK   38  A    between atoms: O_62  and  C_63
REMARK   39  A    between atoms: C_63  and  C_65
REMARK   40  A    between atoms: C_65  and  C_66
REMARK   41  A    between atoms: C_65  and  N_67
REMARK   42  A    between atoms: N_67  and  C_68
REMARK   43  A    between atoms: N_67  and  C_69
REMARK   44  A    between atoms: O_71  and  C_72
REMARK   45  A    between atoms: O_75  and  C_76
REMARK                            x       y       z     vdW  Elec       q    Type
REMARK                         _______ _______ _______ _____ _____    ______ ____
ROOT
ATOM      1  C   UNL     1      -6.915  11.179  18.355  0.00  0.00    -0.017 C 
ATOM      2  C   UNL     1      -6.747  10.103  19.447  0.00  0.00    -0.045 C 
ATOM      3  C   UNL     1      -6.205   8.729  18.999  0.00  0.00    -0.022 C 
ATOM      4  C   UNL     1      -6.934   7.954  17.880  0.00  0.00    +0.079 C 
ATOM      5  C   UNL     1      -8.424   7.647  18.061  0.00  0.00    -0.048 C 
ATOM      6  C   UNL     1      -9.023   7.591  19.271  0.00  0.00    -0.082 C 
ATOM      7  C   UNL     1     -10.460   7.260  19.578  0.00  0.00    -0.032 C 
ATOM      8  C   UNL     1     -11.337   8.509  19.789  0.00  0.00    -0.038 C 
ATOM      9  C   UNL     1     -10.982   9.377  21.023  0.00  0.00    -0.020 C 
ATOM     10  C   UNL     1     -10.978   8.645  22.382  0.00  0.00    +0.077 C 
ATOM     11  C   UNL     1     -11.071   9.650  23.506  0.00  0.00    -0.059 C 
ATOM     12  C   UNL     1     -12.038   9.661  24.442  0.00  0.00    -0.082 C 
ATOM     13  C   UNL     1     -12.134  10.646  25.587  0.00  0.00    +0.003 C 
ATOM     14  C   UNL     1     -10.984  10.625  26.633  0.00  0.00    +0.112 C 
ATOM     15  O   UNL     1      -9.863  11.251  25.961  0.00  0.00    -0.458 OA
ATOM     16  C   UNL     1      -9.184  12.217  26.629  0.00  0.00    +0.332 C 
ATOM     17  O   UNL     1      -9.218  12.440  27.827  0.00  0.00    -0.246 OA
ATOM     18  C   UNL     1      -8.410  13.045  25.681  0.00  0.00    +0.022 C 
ATOM     19  C   UNL     1      -8.941  13.365  24.492  0.00  0.00    -0.055 C 
ATOM     20  C   UNL     1      -8.375  14.269  23.524  0.00  0.00    -0.065 C 
ATOM     21  C   UNL     1      -7.139  14.197  23.016  0.00  0.00    -0.081 C 
ATOM     22  C   UNL     1      -6.685  15.107  21.897  0.00  0.00    +0.003 C 
ATOM     23  C   UNL     1      -6.188  14.371  20.627  0.00  0.00    +0.111 C 
ATOM     24  C   UNL     1      -7.064  13.179  20.125  0.00  0.00    +0.020 C 
ATOM     25  C   UNL     1      -6.425  12.573  18.844  0.00  0.00    +0.064 C 
ATOM     26  H   UNL     1      -6.251  10.934  17.514  0.00  0.00    +0.032 HD
ATOM     27  H   UNL     1      -7.683   9.978  19.998  0.00  0.00    +0.027 HD
ATOM     28  H   UNL     1      -6.025  10.463  20.193  0.00  0.00    +0.027 HD
ATOM     29  H   UNL     1      -5.167   8.891  18.681  0.00  0.00    +0.029 HD
ATOM     30  H   UNL     1      -6.147   8.089  19.890  0.00  0.00    +0.029 HD
ATOM     31  H   UNL     1      -6.447   6.972  17.794  0.00  0.00    +0.064 HD
ATOM     32  H   UNL     1      -8.433   7.775  20.165  0.00  0.00    +0.057 HD
ATOM     33  H   UNL     1     -10.490   6.611  20.459  0.00  0.00    +0.031 HD
ATOM     34  H   UNL     1     -10.886   6.644  18.782  0.00  0.00    +0.031 HD
ATOM     35  H   UNL     1     -11.210   9.157  18.910  0.00  0.00    +0.030 HD
ATOM     36  H   UNL     1     -11.698  10.209  21.057  0.00  0.00    +0.030 HD
ATOM     37  H   UNL     1      -9.996   9.830  20.856  0.00  0.00    +0.030 HD
ATOM     38  H   UNL     1     -11.812   7.937  22.426  0.00  0.00    +0.064 HD
ATOM     39  H   UNL     1     -10.273  10.390  23.538  0.00  0.00    +0.059 HD
ATOM     40  H   UNL     1     -12.821   8.906  24.405  0.00  0.00    +0.057 HD
ATOM     41  H   UNL     1     -13.099  10.483  26.080  0.00  0.00    +0.034 HD
ATOM     42  H   UNL     1     -12.203  11.651  25.150  0.00  0.00    +0.034 HD
ATOM     43  H   UNL     1     -11.294  11.262  27.472  0.00  0.00    +0.074 HD
ATOM     44  H   UNL     1      -7.478  13.459  26.047  0.00  0.00    +0.069 HD
ATOM     45  H   UNL     1      -9.931  12.998  24.226  0.00  0.00    +0.062 HD
ATOM     46  H   UNL     1      -9.078  15.004  23.128  0.00  0.00    +0.061 HD
ATOM     47  H   UNL     1      -6.424  13.454  23.366  0.00  0.00    +0.057 HD
ATOM     48  H   UNL     1      -5.876  15.733  22.297  0.00  0.00    +0.034 HD
ATOM     49  H   UNL     1      -7.492  15.791  21.613  0.00  0.00    +0.034 HD
ATOM     50  H   UNL     1      -6.148  15.112  19.816  0.00  0.00    +0.074 HD
ATOM     51  H   UNL     1      -7.055  12.409  20.904  0.00  0.00    +0.036 HD
ATOM     52  H   UNL     1      -5.350  12.450  19.021  0.00  0.00    +0.060 HD
ENDROOT
BRANCH   1  53
ATOM     53  C   UNL     1      -8.337  11.199  17.776  0.00  0.00    -0.060 C 
ATOM     54  H   UNL     1      -8.683  12.221  17.619  0.00  0.00    +0.023 HD
ATOM     55  H   UNL     1      -9.062  10.728  18.445  0.00  0.00    +0.023 HD
ATOM     56  H   UNL     1      -8.392  10.699  16.807  0.00  0.00    +0.023 HD
ENDBRANCH   1  53
BRANCH   5  57
ATOM     57  C   UNL     1      -9.152   7.360  16.767  0.00  0.00    -0.041 C 
ATOM     58  H   UNL     1      -8.553   6.815  16.034  0.00  0.00    +0.028 HD
ATOM     59  H   UNL     1     -10.043   6.751  16.951  0.00  0.00    +0.028 HD
ATOM     60  H   UNL     1      -9.462   8.298  16.293  0.00  0.00    +0.028 HD
ENDBRANCH   5  57
BRANCH  24  61
ATOM     61  C   UNL     1      -8.515  13.625  19.898  0.00  0.00    -0.057 C 
ATOM     62  H   UNL     1      -8.903  14.166  20.764  0.00  0.00    +0.023 HD
ATOM     63  H   UNL     1      -9.179  12.777  19.694  0.00  0.00    +0.023 HD
ATOM     64  H   UNL     1      -8.614  14.316  19.059  0.00  0.00    +0.023 HD
ENDBRANCH  24  61
BRANCH   8  65
ATOM     65  C   UNL     1     -12.816   8.107  19.815  0.00  0.00    -0.062 C 
ATOM     66  H   UNL     1     -13.471   8.973  19.676  0.00  0.00    +0.023 HD
ATOM     67  H   UNL     1     -13.039   7.380  19.026  0.00  0.00    +0.023 HD
ATOM     68  H   UNL     1     -13.074   7.644  20.773  0.00  0.00    +0.023 HD
ENDBRANCH   8  65
BRANCH  14  69
ATOM     69  C   UNL     1     -10.625   9.210  27.161  0.00  0.00    +0.020 C 
ATOM     70  H   UNL     1     -10.947   8.481  26.412  0.00  0.00    +0.036 HD
BRANCH  69  71
ATOM     71  C   UNL     1      -9.107   8.996  27.284  0.00  0.00    -0.057 C 
ATOM     72  H   UNL     1      -8.702   8.499  26.396  0.00  0.00    +0.023 HD
ATOM     73  H   UNL     1      -8.577   9.949  27.379  0.00  0.00    +0.023 HD
ATOM     74  H   UNL     1      -8.864   8.375  28.151  0.00  0.00    +0.023 HD
ENDBRANCH  69  71
BRANCH  69  75
ATOM     75  C   UNL     1     -11.296   8.863  28.524  0.00  0.00    +0.064 C 
ATOM     76  H   UNL     1     -10.489   8.674  29.243  0.00  0.00    +0.060 HD
BRANCH  75  77
ATOM     77  C   UNL     1     -12.199   7.597  28.462  0.00  0.00    -0.017 C 
ATOM     78  H   UNL     1     -13.203   7.899  28.785  0.00  0.00    +0.032 HD
BRANCH  77  79
ATOM     79  C   UNL     1     -12.359   7.114  27.013  0.00  0.00    -0.060 C 
ATOM     80  H   UNL     1     -12.783   6.108  26.954  0.00  0.00    +0.023 HD
ATOM     81  H   UNL     1     -11.387   7.092  26.509  0.00  0.00    +0.023 HD
ATOM     82  H   UNL     1     -13.008   7.790  26.447  0.00  0.00    +0.023 HD
ENDBRANCH  77  79
BRANCH  77  83
ATOM     83  C   UNL     1     -11.791   6.419  29.391  0.00  0.00    -0.045 C 
ATOM     84  H   UNL     1     -12.580   6.311  30.144  0.00  0.00    +0.027 HD
ATOM     85  H   UNL     1     -10.887   6.690  29.945  0.00  0.00    +0.027 HD
BRANCH  83  86
ATOM     86  C   UNL     1     -11.561   5.053  28.722  0.00  0.00    -0.015 C 
ATOM     87  H   UNL     1     -12.287   4.337  29.121  0.00  0.00    +0.030 HD
ATOM     88  H   UNL     1     -11.722   5.149  27.646  0.00  0.00    +0.030 HD
BRANCH  86  89
ATOM     89  C   UNL     1     -10.131   4.508  28.943  0.00  0.00    +0.109 C 
ATOM     90  H   UNL     1      -9.530   5.300  29.407  0.00  0.00    +0.074 HD
BRANCH  89  91
ATOM     91  C   UNL     1      -9.445   4.105  27.602  0.00  0.00    +0.031 C 
ATOM     92  H   UNL     1      -8.550   3.532  27.883  0.00  0.00    +0.037 HD
BRANCH  91  93
ATOM     93  C   UNL     1      -8.993   5.332  26.797  0.00  0.00    -0.056 C 
ATOM     94  H   UNL     1      -9.695   6.165  26.904  0.00  0.00    +0.023 HD
ATOM     95  H   UNL     1      -8.903   5.099  25.730  0.00  0.00    +0.023 HD
ATOM     96  H   UNL     1      -8.027   5.709  27.143  0.00  0.00    +0.023 HD
ENDBRANCH  91  93
BRANCH  91  97
ATOM     97  C   UNL     1     -10.371   3.185  26.741  0.00  0.00    +0.115 C 
ATOM     98  H   UNL     1     -11.365   3.183  27.208  0.00  0.00    +0.074 HD
BRANCH  97  99
ATOM     99  C   UNL     1     -10.531   3.656  25.262  0.00  0.00    +0.013 C 
ATOM    100  H   UNL     1      -9.897   4.540  25.122  0.00  0.00    +0.038 HD
BRANCH  99 101
ATOM    101  C   UNL     1     -11.961   4.109  24.935  0.00  0.00    -0.056 C 
ATOM    102  H   UNL     1     -12.689   3.520  25.505  0.00  0.00    +0.024 HD
ATOM    103  H   UNL     1     -12.129   5.163  25.184  0.00  0.00    +0.024 HD
ATOM    104  H   UNL     1     -12.179   3.963  23.872  0.00  0.00    +0.024 HD
ENDBRANCH  99 101
BRANCH  99 105
ATOM    105  C   UNL     1     -10.125   2.585  24.270  0.00  0.00    -0.064 C 
ATOM    106  C   UNL     1     -11.010   1.835  23.597  0.00  0.00    -0.005 C 
ATOM    107  H   UNL     1      -9.057   2.468  24.116  0.00  0.00    +0.059 HD
ATOM    108  H   UNL     1     -12.077   1.972  23.774  0.00  0.00    +0.078 HD
BRANCH 106 109
ATOM    109  N   UNL     1     -10.698   0.859  22.660  0.00  0.00    -0.284 N 
ATOM    110  C   UNL     1     -10.424  -0.441  23.081  0.00  0.00    +0.206 C 
ATOM    111  O   UNL     1     -10.437  -0.855  24.236  0.00  0.00    -0.279 OA
ATOM    112  H   UNL     1     -10.182  -1.115  22.243  0.00  0.00    +0.126 HD
BRANCH 109 113
ATOM    113  C   UNL     1     -10.659   1.162  21.238  0.00  0.00    +0.007 C 
ATOM    114  H   UNL     1     -10.503   2.237  21.100  0.00  0.00    +0.043 HD
ATOM    115  H   UNL     1      -9.841   0.630  20.740  0.00  0.00    +0.043 HD
ATOM    116  H   UNL     1     -11.601   0.854  20.772  0.00  0.00    +0.043 HD
ENDBRANCH 109 113
ENDBRANCH 106 109
ENDBRANCH  99 105
ENDBRANCH  97  99
BRANCH  97 117
ATOM    117  O   UNL     1      -9.808   1.846  26.761  0.00  0.00    -0.461 OA
BRANCH 117 118
ATOM    118  C   UNL     1     -10.553   0.873  27.357  0.00  0.00    +0.304 C 
ATOM    119  O   UNL     1     -10.129  -0.194  27.777  0.00  0.00    -0.251 OA
BRANCH 118 120
ATOM    120  C   UNL     1     -11.978   1.313  27.477  0.00  0.00    +0.033 C 
ATOM    121  H   UNL     1     -12.588   0.833  26.705  0.00  0.00    +0.034 HD
ATOM    122  H   UNL     1     -12.367   1.008  28.452  0.00  0.00    +0.034 HD
ATOM    123  H   UNL     1     -12.033   2.400  27.396  0.00  0.00    +0.034 HD
ENDBRANCH 118 120
ENDBRANCH 117 118
ENDBRANCH  97 117
ENDBRANCH  91  97
ENDBRANCH  89  91
BRANCH  89 124
ATOM    124  O   UNL     1     -10.202   3.338  29.784  0.00  0.00    -0.460 OA
BRANCH 124 125
ATOM    125  C   UNL     1     -10.207   3.518  31.135  0.00  0.00    +0.324 C 
ATOM    126  O   UNL     1      -9.676   4.467  31.707  0.00  0.00    -0.249 OA
BRANCH 125 127
ATOM    127  C   UNL     1     -10.897   2.363  31.887  0.00  0.00    +0.105 C 
ATOM    128  H   UNL     1     -10.434   2.312  32.882  0.00  0.00    +0.058 HD
BRANCH 127 129
ATOM    129  C   UNL     1     -10.547   1.083  31.121  0.00  0.00    -0.039 C 
ATOM    130  H   UNL     1     -10.881   0.194  31.663  0.00  0.00    +0.025 HD
ATOM    131  H   UNL     1     -11.032   1.080  30.140  0.00  0.00    +0.025 HD
ATOM    132  H   UNL     1      -9.471   0.995  30.938  0.00  0.00    +0.025 HD
ENDBRANCH 127 129
BRANCH 127 133
ATOM    133  N   UNL     1     -12.367   2.583  32.059  0.00  0.00    -0.296 NA
BRANCH 133 134
ATOM    134  C   UNL     1     -13.124   1.964  30.962  0.00  0.00    -0.012 C 
ATOM    135  H   UNL     1     -12.750   0.963  30.727  0.00  0.00    +0.039 HD
ATOM    136  H   UNL     1     -13.087   2.570  30.050  0.00  0.00    +0.039 HD
ATOM    137  H   UNL     1     -14.176   1.836  31.249  0.00  0.00    +0.039 HD
ENDBRANCH 133 134
BRANCH 133 138
ATOM    138  C   UNL     1     -12.711   4.006  32.128  0.00  0.00    -0.012 C 
ATOM    139  H   UNL     1     -11.890   4.584  32.569  0.00  0.00    +0.039 HD
ATOM    140  H   UNL     1     -12.865   4.428  31.128  0.00  0.00    +0.039 HD
ATOM    141  H   UNL     1     -13.612   4.181  32.729  0.00  0.00    +0.039 HD
ENDBRANCH 133 138
ENDBRANCH 127 133
ENDBRANCH 125 127
ENDBRANCH 124 125
ENDBRANCH  89 124
ENDBRANCH  86  89
ENDBRANCH  83  86
ENDBRANCH  77  83
ENDBRANCH  75  77
BRANCH  75 142
ATOM    142  O   UNL     1     -12.011   9.971  29.053  0.00  0.00    -0.391 OA
ATOM    143  H   UNL     1     -12.194  10.587  28.322  0.00  0.00    +0.210 HD
ENDBRANCH  75 142
ENDBRANCH  69  75
ENDBRANCH  14  69
BRANCH  25 144
ATOM    144  O   UNL     1      -6.522  13.526  17.776  0.00  0.00    -0.391 OA
ATOM    145  H   UNL     1      -5.704  13.474  17.256  0.00  0.00    +0.210 HD
ENDBRANCH  25 144
BRANCH  23 146
ATOM    146  O   UNL     1      -4.850  13.879  20.914  0.00  0.00    -0.460 OA
BRANCH 146 147
ATOM    147  C   UNL     1      -3.828  14.712  20.542  0.00  0.00    +0.327 C 
ATOM    148  O   UNL     1      -2.702  14.696  21.034  0.00  0.00    -0.249 OA
BRANCH 147 149
ATOM    149  C   UNL     1      -4.291  15.691  19.452  0.00  0.00    +0.131 C 
ATOM    150  H   UNL     1      -5.333  15.446  19.209  0.00  0.00    +0.060 HD
BRANCH 149 151
ATOM    151  C   UNL     1      -3.466  15.408  18.184  0.00  0.00    +0.073 C 
ATOM    152  H   UNL     1      -2.958  16.324  17.859  0.00  0.00    +0.058 HD
ATOM    153  H   UNL     1      -2.710  14.634  18.356  0.00  0.00    +0.058 HD
BRANCH 151 154
ATOM    154  O   UNL     1      -4.352  15.003  17.131  0.00  0.00    -0.381 OA
BRANCH 154 155
ATOM    155  C   UNL     1      -4.811  16.116  16.375  0.00  0.00    +0.037 C 
ATOM    156  H   UNL     1      -3.967  16.676  15.961  0.00  0.00    +0.052 HD
ATOM    157  H   UNL     1      -5.373  16.776  17.041  0.00  0.00    +0.052 HD
ATOM    158  H   UNL     1      -5.476  15.787  15.572  0.00  0.00    +0.052 HD
ENDBRANCH 154 155
ENDBRANCH 151 154
ENDBRANCH 149 151
BRANCH 149 159
ATOM    159  N   UNL     1      -4.190  17.128  19.857  0.00  0.00    -0.294 NA
BRANCH 159 160
ATOM    160  C   UNL     1      -3.063  17.791  19.206  0.00  0.00    -0.012 C 
ATOM    161  H   UNL     1      -3.357  18.686  18.653  0.00  0.00    +0.039 HD
ATOM    162  H   UNL     1      -2.570  17.100  18.519  0.00  0.00    +0.039 HD
ATOM    163  H   UNL     1      -2.303  18.080  19.939  0.00  0.00    +0.039 HD
ENDBRANCH 159 160
BRANCH 159 164
ATOM    164  C   UNL     1      -5.427  17.884  19.660  0.00  0.00    -0.012 C 
ATOM    165  H   UNL     1      -6.316  17.243  19.652  0.00  0.00    +0.039 HD
ATOM    166  H   UNL     1      -5.397  18.416  18.703  0.00  0.00    +0.039 HD
ATOM    167  H   UNL     1      -5.554  18.649  20.432  0.00  0.00    +0.039 HD
ENDBRANCH 159 164
ENDBRANCH 149 159
ENDBRANCH 147 149
ENDBRANCH 146 147
ENDBRANCH  23 146
BRANCH   4 168
ATOM    168  O   UNL     1      -6.745   8.664  16.646  0.00  0.00    -0.376 OA
BRANCH 168 169
ATOM    169  C   UNL     1      -5.376   8.840  16.301  0.00  0.00    +0.037 C 
ATOM    170  H   UNL     1      -4.791   8.093  16.843  0.00  0.00    +0.052 HD
ATOM    171  H   UNL     1      -5.040   9.835  16.605  0.00  0.00    +0.052 HD
ATOM    172  H   UNL     1      -5.217   8.696  15.229  0.00  0.00    +0.052 HD
ENDBRANCH 168 169
ENDBRANCH   4 168
BRANCH  10 173
ATOM    173  O   UNL     1      -9.737   7.943  22.501  0.00  0.00    -0.376 OA
BRANCH 173 174
ATOM    174  C   UNL     1      -9.456   7.511  23.829  0.00  0.00    +0.037 C 
ATOM    175  H   UNL     1      -9.942   6.544  23.982  0.00  0.00    +0.052 HD
ATOM    176  H   UNL     1      -8.380   7.379  23.971  0.00  0.00    +0.052 HD
ATOM    177  H   UNL     1      -9.854   8.219  24.563  0.00  0.00    +0.052 HD
ENDBRANCH 173 174
ENDBRANCH  10 173
TORSDOF 45
ENDMDL
MODEL 2
REMARK VINA RESULT:      -4.9      2.327     13.826
REMARK  Name = Aplyronine A_conf1
REMARK  45 active torsions:
REMARK  status: ('A' for Active; 'I' for Inactive)
REMARK    1  A    between atoms: C_1  and  C_2
REMARK    2  A    between atoms: C_5  and  O_75
REMARK    3  A    between atoms: C_6  and  C_74
REMARK    4  A    between atoms: C_9  and  C_73
REMARK    5  A    between atoms: C_11  and  O_71
REMARK    6  A    between atoms: C_15  and  C_39
REMARK    7  A    between atoms: C_24  and  O_29
REMARK    8  A    between atoms: C_25  and  C_28
REMARK    9  A    between atoms: C_26  and  O_27
REMARK   10  A    between atoms: O_29  and  C_30
REMARK   11  A    between atoms: C_30  and  C_32
REMARK   12  A    between atoms: C_32  and  C_33
REMARK   13  A    between atoms: C_32  and  N_36
REMARK   14  A    between atoms: C_33  and  O_34
REMARK   15  A    between atoms: O_34  and  C_35
REMARK   16  A    between atoms: N_36  and  C_37
REMARK   17  A    between atoms: N_36  and  C_38
REMARK   18  A    between atoms: C_39  and  C_40
REMARK   19  A    between atoms: C_39  and  C_41
REMARK   20  A    between atoms: C_41  and  C_42
REMARK   21  A    between atoms: C_41  and  O_70
REMARK   22  A    between atoms: C_42  and  C_43
REMARK   23  A    between atoms: C_42  and  C_44
REMARK   24  A    between atoms: C_44  and  C_45
REMARK   25  A    between atoms: C_45  and  C_46
REMARK   26  A    between atoms: C_46  and  C_47
REMARK   27  A    between atoms: C_46  and  O_62
REMARK   28  A    between atoms: C_47  and  C_48
REMARK   29  A    between atoms: C_47  and  C_49
REMARK   30  A    between atoms: C_49  and  C_50
REMARK   31  A    between atoms: C_49  and  O_58
REMARK   32  A    between atoms: C_50  and  C_51
REMARK   33  A    between atoms: C_50  and  C_52
REMARK   34  A    between atoms: C_53  and  N_54
REMARK   35  A    between atoms: N_54  and  C_55
REMARK   36  A    between atoms: O_58  and  C_59
REMARK   37  A    between atoms: C_59  and  C_61
REMARK   38  A    between atoms: O_62  and  C_63
REMARK   39  A    between atoms: C_63  and  C_65
REMARK   40  A    between atoms: C_65  and  C_66
REMARK   41  A    between atoms: C_65  and  N_67
REMARK   42  A    between atoms: N_67  and  C_68
REMARK   43  A    between atoms: N_67  and  C_69
REMARK   44  A    between atoms: O_71  and  C_72
REMARK   45  A    between atoms: O_75  and  C_76
REMARK                            x       y       z     vdW  Elec       q    Type
REMARK                         _______ _______ _______ _____ _____    ______ ____
ROOT
ATOM      1  C   UNL     1     -12.693   5.450  25.889  0.00  0.00    -0.017 C 
ATOM      2  C   UNL     1     -11.254   5.876  25.535  0.00  0.00    -0.045 C 
ATOM      3  C   UNL     1     -10.320   6.230  26.712  0.00  0.00    -0.022 C 
ATOM      4  C   UNL     1     -10.748   7.316  27.721  0.00  0.00    +0.079 C 
ATOM      5  C   UNL     1     -11.099   8.708  27.185  0.00  0.00    -0.048 C 
ATOM      6  C   UNL     1     -10.639   9.181  26.006  0.00  0.00    -0.082 C 
ATOM      7  C   UNL     1     -10.877  10.537  25.395  0.00  0.00    -0.032 C 
ATOM      8  C   UNL     1     -12.010  10.540  24.352  0.00  0.00    -0.038 C 
ATOM      9  C   UNL     1     -11.747   9.703  23.073  0.00  0.00    -0.020 C 
ATOM     10  C   UNL     1     -10.466  10.057  22.288  0.00  0.00    +0.077 C 
ATOM     11  C   UNL     1     -10.561   9.515  20.882  0.00  0.00    -0.059 C 
ATOM     12  C   UNL     1     -10.467  10.263  19.768  0.00  0.00    -0.082 C 
ATOM     13  C   UNL     1     -10.537   9.735  18.352  0.00  0.00    +0.003 C 
ATOM     14  C   UNL     1      -9.412   8.757  17.909  0.00  0.00    +0.112 C 
ATOM     15  O   UNL     1      -9.727   7.508  18.574  0.00  0.00    -0.458 OA
ATOM     16  C   UNL     1      -9.709   6.374  17.831  0.00  0.00    +0.332 C 
ATOM     17  O   UNL     1      -9.195   6.224  16.736  0.00  0.00    -0.246 OA
ATOM     18  C   UNL     1     -10.474   5.307  18.511  0.00  0.00    +0.022 C 
ATOM     19  C   UNL     1     -11.609   5.613  19.155  0.00  0.00    -0.055 C 
ATOM     20  C   UNL     1     -12.532   4.676  19.743  0.00  0.00    -0.065 C 
ATOM     21  C   UNL     1     -12.219   3.722  20.628  0.00  0.00    -0.081 C 
ATOM     22  C   UNL     1     -13.282   2.880  21.298  0.00  0.00    +0.003 C 
ATOM     23  C   UNL     1     -13.276   2.943  22.847  0.00  0.00    +0.111 C 
ATOM     24  C   UNL     1     -13.131   4.362  23.485  0.00  0.00    +0.020 C 
ATOM     25  C   UNL     1     -13.158   4.235  25.035  0.00  0.00    +0.064 C 
ATOM     26  H   UNL     1     -12.707   5.079  26.923  0.00  0.00    +0.032 HD
ATOM     27  H   UNL     1     -11.272   6.693  24.809  0.00  0.00    +0.027 HD
ATOM     28  H   UNL     1     -10.755   5.046  25.017  0.00  0.00    +0.027 HD
ATOM     29  H   UNL     1     -10.149   5.298  27.267  0.00  0.00    +0.029 HD
ATOM     30  H   UNL     1      -9.344   6.508  26.289  0.00  0.00    +0.029 HD
ATOM     31  H   UNL     1      -9.902   7.477  28.406  0.00  0.00    +0.064 HD
ATOM     32  H   UNL     1      -9.993   8.553  25.397  0.00  0.00    +0.057 HD
ATOM     33  H   UNL     1      -9.940  10.893  24.953  0.00  0.00    +0.031 HD
ATOM     34  H   UNL     1     -11.097  11.271  26.175  0.00  0.00    +0.031 HD
ATOM     35  H   UNL     1     -12.902  10.105  24.827  0.00  0.00    +0.030 HD
ATOM     36  H   UNL     1     -12.621   9.818  22.419  0.00  0.00    +0.030 HD
ATOM     37  H   UNL     1     -11.714   8.642  23.355  0.00  0.00    +0.030 HD
ATOM     38  H   UNL     1     -10.325  11.143  22.277  0.00  0.00    +0.064 HD
ATOM     39  H   UNL     1     -10.696   8.438  20.805  0.00  0.00    +0.059 HD
ATOM     40  H   UNL     1     -10.317  11.337  19.861  0.00  0.00    +0.057 HD
ATOM     41  H   UNL     1     -10.575  10.600  17.679  0.00  0.00    +0.034 HD
ATOM     42  H   UNL     1     -11.510   9.239  18.234  0.00  0.00    +0.034 HD
ATOM     43  H   UNL     1      -9.512   8.614  16.824  0.00  0.00    +0.074 HD
ATOM     44  H   UNL     1     -10.135   4.290  18.353  0.00  0.00    +0.069 HD
ATOM     45  H   UNL     1     -11.951   6.647  19.189  0.00  0.00    +0.062 HD
ATOM     46  H   UNL     1     -13.578   4.853  19.489  0.00  0.00    +0.061 HD
ATOM     47  H   UNL     1     -11.188   3.541  20.928  0.00  0.00    +0.057 HD
ATOM     48  H   UNL     1     -13.124   1.842  20.974  0.00  0.00    +0.034 HD
ATOM     49  H   UNL     1     -14.276   3.167  20.938  0.00  0.00    +0.034 HD
ATOM     50  H   UNL     1     -14.231   2.524  23.193  0.00  0.00    +0.074 HD
ATOM     51  H   UNL     1     -12.152   4.758  23.195  0.00  0.00    +0.036 HD
ATOM     52  H   UNL     1     -12.492   3.414  25.324  0.00  0.00    +0.060 HD
ENDROOT
BRANCH   1  53
ATOM     53  C   UNL     1     -13.672   6.633  25.853  0.00  0.00    -0.060 C 
ATOM     54  H   UNL     1     -13.225   7.526  26.290  0.00  0.00    +0.023 HD
ATOM     55  H   UNL     1     -14.582   6.433  26.424  0.00  0.00    +0.023 HD
ATOM     56  H   UNL     1     -13.959   6.895  24.833  0.00  0.00    +0.023 HD
ENDBRANCH   1  53
BRANCH   5  57
ATOM     57  C   UNL     1     -11.964   9.525  28.119  0.00  0.00    -0.041 C 
ATOM     58  H   UNL     1     -11.403  10.233  28.734  0.00  0.00    +0.028 HD
ATOM     59  H   UNL     1     -12.691  10.116  27.554  0.00  0.00    +0.028 HD
ATOM     60  H   UNL     1     -12.506   8.864  28.803  0.00  0.00    +0.028 HD
ENDBRANCH   5  57
BRANCH  24  61
ATOM     61  C   UNL     1     -14.217   5.311  22.958  0.00  0.00    -0.057 C 
ATOM     62  H   UNL     1     -15.195   4.825  22.946  0.00  0.00    +0.023 HD
ATOM     63  H   UNL     1     -13.995   5.668  21.946  0.00  0.00    +0.023 HD
ATOM     64  H   UNL     1     -14.341   6.194  23.588  0.00  0.00    +0.023 HD
ENDBRANCH  24  61
BRANCH   8  65
ATOM     65  C   UNL     1     -12.379  11.983  23.989  0.00  0.00    -0.062 C 
ATOM     66  H   UNL     1     -11.859  12.317  23.086  0.00  0.00    +0.023 HD
ATOM     67  H   UNL     1     -13.457  12.080  23.817  0.00  0.00    +0.023 HD
ATOM     68  H   UNL     1     -12.111  12.667  24.801  0.00  0.00    +0.023 HD
ENDBRANCH   8  65
BRANCH  14  69
ATOM     69  C   UNL     1      -7.975   9.242  18.237  0.00  0.00    +0.020 C 
ATOM     70  H   UNL     1      -8.038  10.290  18.543  0.00  0.00    +0.036 HD
BRANCH  69  71
ATOM     71  C   UNL     1      -7.375   8.518  19.453  0.00  0.00    -0.057 C 
ATOM     72  H   UNL     1      -7.786   8.906  20.391  0.00  0.00    +0.023 HD
ATOM     73  H   UNL     1      -7.601   7.448  19.431  0.00  0.00    +0.023 HD
ATOM     74  H   UNL     1      -6.288   8.643  19.492  0.00  0.00    +0.023 HD
ENDBRANCH  69  71
BRANCH  69  75
ATOM     75  C   UNL     1      -6.986   9.123  17.040  0.00  0.00    +0.064 C 
ATOM     76  H   UNL     1      -6.787   8.055  16.889  0.00  0.00    +0.060 HD
BRANCH  75  77
ATOM     77  C   UNL     1      -5.627   9.842  17.289  0.00  0.00    -0.017 C 
ATOM     78  H   UNL     1      -5.134   9.320  18.119  0.00  0.00    +0.032 HD
BRANCH  77  79
ATOM     79  C   UNL     1      -4.694   9.673  16.082  0.00  0.00    -0.060 C 
ATOM     80  H   UNL     1      -3.747   9.196  16.351  0.00  0.00    +0.023 HD
ATOM     81  H   UNL     1      -4.458  10.650  15.644  0.00  0.00    +0.023 HD
ATOM     82  H   UNL     1      -5.170   9.071  15.302  0.00  0.00    +0.023 HD
ENDBRANCH  77  79
BRANCH  77  83
ATOM     83  C   UNL     1      -5.711  11.334  17.715  0.00  0.00    -0.045 C 
ATOM     84  H   UNL     1      -6.759  11.639  17.626  0.00  0.00    +0.027 HD
ATOM     85  H   UNL     1      -5.160  11.949  16.996  0.00  0.00    +0.027 HD
BRANCH  83  86
ATOM     86  C   UNL     1      -5.218  11.682  19.130  0.00  0.00    -0.015 C 
ATOM     87  H   UNL     1      -5.875  11.199  19.862  0.00  0.00    +0.030 HD
ATOM     88  H   UNL     1      -4.205  11.294  19.263  0.00  0.00    +0.030 HD
BRANCH  86  89
ATOM     89  C   UNL     1      -5.185  13.204  19.399  0.00  0.00    +0.109 C 
ATOM     90  H   UNL     1      -5.650  13.713  18.546  0.00  0.00    +0.074 HD
BRANCH  89  91
ATOM     91  C   UNL     1      -3.728  13.741  19.544  0.00  0.00    +0.031 C 
ATOM     92  H   UNL     1      -3.082  12.852  19.581  0.00  0.00    +0.037 HD
BRANCH  91  93
ATOM     93  C   UNL     1      -3.534  14.527  20.849  0.00  0.00    -0.056 C 
ATOM     94  H   UNL     1      -4.441  15.069  21.132  0.00  0.00    +0.023 HD
ATOM     95  H   UNL     1      -2.718  15.253  20.760  0.00  0.00    +0.023 HD
ATOM     96  H   UNL     1      -3.306  13.866  21.688  0.00  0.00    +0.023 HD
ENDBRANCH  91  93
BRANCH  91  97
ATOM     97  C   UNL     1      -3.312  14.603  18.307  0.00  0.00    +0.115 C 
ATOM     98  H   UNL     1      -2.985  13.915  17.516  0.00  0.00    +0.074 HD
BRANCH  97  99
ATOM     99  C   UNL     1      -4.464  15.488  17.737  0.00  0.00    +0.013 C 
ATOM    100  H   UNL     1      -5.415  15.044  18.055  0.00  0.00    +0.038 HD
BRANCH  99 101
ATOM    101  C   UNL     1      -4.498  15.499  16.202  0.00  0.00    -0.056 C 
ATOM    102  H   UNL     1      -5.531  15.435  15.841  0.00  0.00    +0.024 HD
ATOM    103  H   UNL     1      -4.063  16.414  15.785  0.00  0.00    +0.024 HD
ATOM    104  H   UNL     1      -3.954  14.639  15.798  0.00  0.00    +0.024 HD
ENDBRANCH  99 101
BRANCH  99 105
ATOM    105  C   UNL     1      -4.388  16.919  18.228  0.00  0.00    -0.064 C 
ATOM    106  C   UNL     1      -5.281  17.453  19.075  0.00  0.00    -0.005 C 
ATOM    107  H   UNL     1      -3.544  17.497  17.863  0.00  0.00    +0.059 HD
ATOM    108  H   UNL     1      -6.120  16.850  19.422  0.00  0.00    +0.078 HD
BRANCH 106 109
ATOM    109  N   UNL     1      -5.248  18.746  19.576  0.00  0.00    -0.284 N 
ATOM    110  C   UNL     1      -4.804  18.971  20.879  0.00  0.00    +0.206 C 
ATOM    111  O   UNL     1      -4.407  18.126  21.674  0.00  0.00    -0.279 OA
ATOM    112  H   UNL     1      -4.836  20.037  21.158  0.00  0.00    +0.126 HD
BRANCH 109 113
ATOM    113  C   UNL     1      -5.659  19.883  18.767  0.00  0.00    +0.007 C 
ATOM    114  H   UNL     1      -6.691  19.735  18.434  0.00  0.00    +0.043 HD
ATOM    115  H   UNL     1      -5.611  20.816  19.336  0.00  0.00    +0.043 HD
ATOM    116  H   UNL     1      -4.993  19.976  17.902  0.00  0.00    +0.043 HD
ENDBRANCH 109 113
ENDBRANCH 106 109
ENDBRANCH  99 105
ENDBRANCH  97  99
BRANCH  97 117
ATOM    117  O   UNL     1      -2.207  15.455  18.714  0.00  0.00    -0.461 OA
BRANCH 117 118
ATOM    118  C   UNL     1      -0.950  14.969  18.519  0.00  0.00    +0.304 C 
ATOM    119  O   UNL     1      -0.251  14.436  19.369  0.00  0.00    -0.251 OA
BRANCH 118 120
ATOM    120  C   UNL     1      -0.548  15.131  17.086  0.00  0.00    +0.033 C 
ATOM    121  H   UNL     1      -0.566  16.188  16.806  0.00  0.00    +0.034 HD
ATOM    122  H   UNL     1       0.474  14.764  16.956  0.00  0.00    +0.034 HD
ATOM    123  H   UNL     1      -1.219  14.549  16.451  0.00  0.00    +0.034 HD
ENDBRANCH 118 120
ENDBRANCH 117 118
ENDBRANCH  97 117
ENDBRANCH  91  97
ENDBRANCH  89  91
BRANCH  89 124
ATOM    124  O   UNL     1      -5.891  13.477  20.627  0.00  0.00    -0.460 OA
BRANCH 124 125
ATOM    125  C   UNL     1      -7.040  14.207  20.557  0.00  0.00    +0.324 C 
ATOM    126  O   UNL     1      -7.479  14.706  19.524  0.00  0.00    -0.249 OA
BRANCH 125 127
ATOM    127  C   UNL     1      -7.705  14.404  21.933  0.00  0.00    +0.105 C 
ATOM    128  H   UNL     1      -8.213  15.377  21.903  0.00  0.00    +0.058 HD
BRANCH 127 129
ATOM    129  C   UNL     1      -6.564  14.483  22.953  0.00  0.00    -0.039 C 
ATOM    130  H   UNL     1      -6.742  15.277  23.686  0.00  0.00    +0.025 HD
ATOM    131  H   UNL     1      -6.473  13.538  23.499  0.00  0.00    +0.025 HD
ATOM    132  H   UNL     1      -5.596  14.662  22.475  0.00  0.00    +0.025 HD
ENDBRANCH 127 129
BRANCH 127 133
ATOM    133  N   UNL     1      -8.720  13.348  22.241  0.00  0.00    -0.296 NA
BRANCH 133 134
ATOM    134  C   UNL     1     -10.039  13.713  21.706  0.00  0.00    -0.012 C 
ATOM    135  H   UNL     1     -10.452  14.589  22.213  0.00  0.00    +0.039 HD
ATOM    136  H   UNL     1     -10.756  12.889  21.798  0.00  0.00    +0.039 HD
ATOM    137  H   UNL     1      -9.959  13.985  20.646  0.00  0.00    +0.039 HD
ENDBRANCH 133 134
BRANCH 133 138
ATOM    138  C   UNL     1      -8.843  13.101  23.681  0.00  0.00    -0.012 C 
ATOM    139  H   UNL     1      -9.834  12.699  23.923  0.00  0.00    +0.039 HD
ATOM    140  H   UNL     1      -8.126  12.344  24.018  0.00  0.00    +0.039 HD
ATOM    141  H   UNL     1      -8.693  14.017  24.267  0.00  0.00    +0.039 HD
ENDBRANCH 133 138
ENDBRANCH 127 133
ENDBRANCH 125 127
ENDBRANCH 124 125
ENDBRANCH  89 124
ENDBRANCH  86  89
ENDBRANCH  83  86
ENDBRANCH  77  83
ENDBRANCH  75  77
BRANCH  75 142
ATOM    142  O   UNL     1      -7.578   9.565  15.826  0.00  0.00    -0.391 OA
ATOM    143  H   UNL     1      -8.326   8.977  15.625  0.00  0.00    +0.210 HD
ENDBRANCH  75 142
ENDBRANCH  69  75
ENDBRANCH  14  69
BRANCH  25 144
ATOM    144  O   UNL     1     -14.467   3.819  25.448  0.00  0.00    -0.391 OA
ATOM    145  H   UNL     1     -15.006   4.617  25.573  0.00  0.00    +0.210 HD
ENDBRANCH  25 144
BRANCH  23 146
ATOM    146  O   UNL     1     -12.176   2.110  23.304  0.00  0.00    -0.460 OA
BRANCH 146 147
ATOM    147  C   UNL     1     -12.542   0.971  23.970  0.00  0.00    +0.327 C 
ATOM    148  O   UNL     1     -13.603   0.375  23.801  0.00  0.00    -0.249 OA
BRANCH 147 149
ATOM    149  C   UNL     1     -11.461   0.558  24.981  0.00  0.00    +0.131 C 
ATOM    150  H   UNL     1     -11.954   0.416  25.952  0.00  0.00    +0.060 HD
BRANCH 149 151
ATOM    151  C   UNL     1     -10.493   1.742  25.147  0.00  0.00    +0.073 C 
ATOM    152  H   UNL     1      -9.694   1.677  24.400  0.00  0.00    +0.058 HD
ATOM    153  H   UNL     1     -11.004   2.704  25.026  0.00  0.00    +0.058 HD
BRANCH 151 154
ATOM    154  O   UNL     1      -9.885   1.670  26.445  0.00  0.00    -0.381 OA
BRANCH 154 155
ATOM    155  C   UNL     1     -10.543   2.517  27.378  0.00  0.00    +0.037 C 
ATOM    156  H   UNL     1      -9.838   3.230  27.816  0.00  0.00    +0.052 HD
ATOM    157  H   UNL     1     -10.951   1.894  28.180  0.00  0.00    +0.052 HD
ATOM    158  H   UNL     1     -11.370   3.048  26.899  0.00  0.00    +0.052 HD
ENDBRANCH 154 155
ENDBRANCH 151 154
ENDBRANCH 149 151
BRANCH 149 159
ATOM    159  N   UNL     1     -10.731  -0.691  24.598  0.00  0.00    -0.294 NA
BRANCH 159 160
ATOM    160  C   UNL     1     -11.454  -1.887  25.025  0.00  0.00    -0.012 C 
ATOM    161  H   UNL     1     -11.337  -2.097  26.092  0.00  0.00    +0.039 HD
ATOM    162  H   UNL     1     -11.110  -2.753  24.458  0.00  0.00    +0.039 HD
ATOM    163  H   UNL     1     -12.525  -1.793  24.814  0.00  0.00    +0.039 HD
ENDBRANCH 159 160
BRANCH 159 164
ATOM    164  C   UNL     1     -10.391  -0.765  23.177  0.00  0.00    -0.012 C 
ATOM    165  H   UNL     1     -10.109   0.209  22.761  0.00  0.00    +0.039 HD
ATOM    166  H   UNL     1     -11.247  -1.134  22.602  0.00  0.00    +0.039 HD
ATOM    167  H   UNL     1      -9.575  -1.471  22.999  0.00  0.00    +0.039 HD
ENDBRANCH 159 164
ENDBRANCH 149 159
ENDBRANCH 147 149
ENDBRANCH 146 147
ENDBRANCH  23 146
BRANCH   4 168
ATOM    168  O   UNL     1     -11.857   6.810  28.482  0.00  0.00    -0.376 OA
BRANCH 168 169
ATOM    169  C   UNL     1     -11.486   5.807  29.419  0.00  0.00    +0.037 C 
ATOM    170  H   UNL     1     -11.734   4.833  28.989  0.00  0.00    +0.052 HD
ATOM    171  H   UNL     1     -12.052   5.935  30.345  0.00  0.00    +0.052 HD
ATOM    172  H   UNL     1     -10.412   5.834  29.622  0.00  0.00    +0.052 HD
ENDBRANCH 168 169
ENDBRANCH   4 168
BRANCH  10 173
ATOM    173  O   UNL     1      -9.360   9.430  22.945  0.00  0.00    -0.376 OA
BRANCH 173 174
ATOM    174  C   UNL     1      -9.337   8.015  22.788  0.00  0.00    +0.037 C 
ATOM    175  H   UNL     1      -9.656   7.562  23.730  0.00  0.00    +0.052 HD
ATOM    176  H   UNL     1     -10.033   7.703  22.006  0.00  0.00    +0.052 HD
ATOM    177  H   UNL     1      -8.325   7.663  22.560  0.00  0.00    +0.052 HD
ENDBRANCH 173 174
ENDBRANCH  10 173
TORSDOF 45
ENDMDL
MODEL 3
REMARK VINA RESULT:      -4.9      1.544      2.662
REMARK  Name = Aplyronine A_conf1
REMARK  45 active torsions:
REMARK  status: ('A' for Active; 'I' for Inactive)
REMARK    1  A    between atoms: C_1  and  C_2
REMARK    2  A    between atoms: C_5  and  O_75
REMARK    3  A    between atoms: C_6  and  C_74
REMARK    4  A    between atoms: C_9  and  C_73
REMARK    5  A    between atoms: C_11  and  O_71
REMARK    6  A    between atoms: C_15  and  C_39
REMARK    7  A    between atoms: C_24  and  O_29
REMARK    8  A    between atoms: C_25  and  C_28
REMARK    9  A    between atoms: C_26  and  O_27
REMARK   10  A    between atoms: O_29  and  C_30
REMARK   11  A    between atoms: C_30  and  C_32
REMARK   12  A    between atoms: C_32  and  C_33
REMARK   13  A    between atoms: C_32  and  N_36
REMARK   14  A    between atoms: C_33  and  O_34
REMARK   15  A    between atoms: O_34  and  C_35
REMARK   16  A    between atoms: N_36  and  C_37
REMARK   17  A    between atoms: N_36  and  C_38
REMARK   18  A    between atoms: C_39  and  C_40
REMARK   19  A    between atoms: C_39  and  C_41
REMARK   20  A    between atoms: C_41  and  C_42
REMARK   21  A    between atoms: C_41  and  O_70
REMARK   22  A    between atoms: C_42  and  C_43
REMARK   23  A    between atoms: C_42  and  C_44
REMARK   24  A    between atoms: C_44  and  C_45
REMARK   25  A    between atoms: C_45  and  C_46
REMARK   26  A    between atoms: C_46  and  C_47
REMARK   27  A    between atoms: C_46  and  O_62
REMARK   28  A    between atoms: C_47  and  C_48
REMARK   29  A    between atoms: C_47  and  C_49
REMARK   30  A    between atoms: C_49  and  C_50
REMARK   31  A    between atoms: C_49  and  O_58
REMARK   32  A    between atoms: C_50  and  C_51
REMARK   33  A    between atoms: C_50  and  C_52
REMARK   34  A    between atoms: C_53  and  N_54
REMARK   35  A    between atoms: N_54  and  C_55
REMARK   36  A    between atoms: O_58  and  C_59
REMARK   37  A    between atoms: C_59  and  C_61
REMARK   38  A    between atoms: O_62  and  C_63
REMARK   39  A    between atoms: C_63  and  C_65
REMARK   40  A    between atoms: C_65  and  C_66
REMARK   41  A    between atoms: C_65  and  N_67
REMARK   42  A    between atoms: N_67  and  C_68
REMARK   43  A    between atoms: N_67  and  C_69
REMARK   44  A    between atoms: O_71  and  C_72
REMARK   45  A    between atoms: O_75  and  C_76
REMARK                            x       y       z     vdW  Elec       q    Type
REMARK                         _______ _______ _______ _____ _____    ______ ____
ROOT
ATOM      1  C   UNL     1      -7.219  10.791  18.253  0.00  0.00    -0.017 C 
ATOM      2  C   UNL     1      -7.105   9.716  19.353  0.00  0.00    -0.045 C 
ATOM      3  C   UNL     1      -6.530   8.346  18.934  0.00  0.00    -0.022 C 
ATOM      4  C   UNL     1      -7.190   7.567  17.776  0.00  0.00    +0.079 C 
ATOM      5  C   UNL     1      -8.686   7.250  17.872  0.00  0.00    -0.048 C 
ATOM      6  C   UNL     1      -9.351   7.189  19.047  0.00  0.00    -0.082 C 
ATOM      7  C   UNL     1     -10.801   6.849  19.272  0.00  0.00    -0.032 C 
ATOM      8  C   UNL     1     -11.697   8.091  19.434  0.00  0.00    -0.038 C 
ATOM      9  C   UNL     1     -11.418   8.960  20.687  0.00  0.00    -0.020 C 
ATOM     10  C   UNL     1     -11.485   8.227  22.044  0.00  0.00    +0.077 C 
ATOM     11  C   UNL     1     -11.648   9.230  23.161  0.00  0.00    -0.059 C 
ATOM     12  C   UNL     1     -12.665   9.234  24.041  0.00  0.00    -0.082 C 
ATOM     13  C   UNL     1     -12.832  10.216  25.180  0.00  0.00    +0.003 C 
ATOM     14  C   UNL     1     -11.743  10.202  26.289  0.00  0.00    +0.112 C 
ATOM     15  O   UNL     1     -10.591  10.837  25.681  0.00  0.00    -0.458 OA
ATOM     16  C   UNL     1      -9.957  11.806  26.387  0.00  0.00    +0.332 C 
ATOM     17  O   UNL     1     -10.059  12.027  27.582  0.00  0.00    -0.246 OA
ATOM     18  C   UNL     1      -9.135  12.640  25.485  0.00  0.00    +0.022 C 
ATOM     19  C   UNL     1      -9.601  12.958  24.269  0.00  0.00    -0.055 C 
ATOM     20  C   UNL     1      -8.988  13.867  23.334  0.00  0.00    -0.065 C 
ATOM     21  C   UNL     1      -7.724  13.803  22.897  0.00  0.00    -0.081 C 
ATOM     22  C   UNL     1      -7.215  14.718  21.806  0.00  0.00    +0.003 C 
ATOM     23  C   UNL     1      -6.642  13.986  20.564  0.00  0.00    +0.111 C 
ATOM     24  C   UNL     1      -7.480  12.788  20.014  0.00  0.00    +0.020 C 
ATOM     25  C   UNL     1      -6.766  12.189  18.770  0.00  0.00    +0.064 C 
ATOM     26  H   UNL     1      -6.507  10.552  17.451  0.00  0.00    +0.032 HD
ATOM     27  H   UNL     1      -8.070   9.584  19.850  0.00  0.00    +0.027 HD
ATOM     28  H   UNL     1      -6.429  10.080  20.138  0.00  0.00    +0.027 HD
ATOM     29  H   UNL     1      -5.477   8.515  18.675  0.00  0.00    +0.029 HD
ATOM     30  H   UNL     1      -6.518   7.705  19.827  0.00  0.00    +0.029 HD
ATOM     31  H   UNL     1      -6.692   6.589  17.716  0.00  0.00    +0.064 HD
ATOM     32  H   UNL     1      -8.814   7.376  19.973  0.00  0.00    +0.057 HD
ATOM     33  H   UNL     1     -10.876   6.198  20.150  0.00  0.00    +0.031 HD
ATOM     34  H   UNL     1     -11.178   6.231  18.453  0.00  0.00    +0.031 HD
ATOM     35  H   UNL     1     -11.525   8.742  18.564  0.00  0.00    +0.030 HD
ATOM     36  H   UNL     1     -12.139   9.787  20.682  0.00  0.00    +0.030 HD
ATOM     37  H   UNL     1     -10.427   9.420  20.576  0.00  0.00    +0.030 HD
ATOM     38  H   UNL     1     -12.315   7.513  22.041  0.00  0.00    +0.064 HD
ATOM     39  H   UNL     1     -10.858   9.975  23.239  0.00  0.00    +0.059 HD
ATOM     40  H   UNL     1     -13.440   8.474  23.960  0.00  0.00    +0.057 HD
ATOM     41  H   UNL     1     -13.823  10.047  25.618  0.00  0.00    +0.034 HD
ATOM     42  H   UNL     1     -12.883  11.222  24.741  0.00  0.00    +0.034 HD
ATOM     43  H   UNL     1     -12.104  10.836  27.110  0.00  0.00    +0.074 HD
ATOM     44  H   UNL     1      -8.228  13.060  25.903  0.00  0.00    +0.069 HD
ATOM     45  H   UNL     1     -10.572  12.585  23.946  0.00  0.00    +0.062 HD
ATOM     46  H   UNL     1      -9.672  14.598  22.900  0.00  0.00    +0.061 HD
ATOM     47  H   UNL     1      -7.025  13.064  23.286  0.00  0.00    +0.057 HD
ATOM     48  H   UNL     1      -6.433  15.348  22.251  0.00  0.00    +0.034 HD
ATOM     49  H   UNL     1      -8.009  15.397  21.477  0.00  0.00    +0.034 HD
ATOM     50  H   UNL     1      -6.561  14.728  19.758  0.00  0.00    +0.074 HD
ATOM     51  H   UNL     1      -7.510  12.018  20.791  0.00  0.00    +0.036 HD
ATOM     52  H   UNL     1      -5.703  12.072  19.007  0.00  0.00    +0.060 HD
ENDROOT
BRANCH   1  53
ATOM     53  C   UNL     1      -8.607  10.803  17.595  0.00  0.00    -0.060 C 
ATOM     54  H   UNL     1      -8.528  10.924  16.514  0.00  0.00    +0.023 HD
ATOM     55  H   UNL     1      -9.226  11.628  17.953  0.00  0.00    +0.023 HD
ATOM     56  H   UNL     1      -9.148   9.870  17.766  0.00  0.00    +0.023 HD
ENDBRANCH   1  53
BRANCH   5  57
ATOM     57  C   UNL     1      -9.338   6.960  16.540  0.00  0.00    -0.041 C 
ATOM     58  H   UNL     1     -10.427   7.045  16.552  0.00  0.00    +0.028 HD
ATOM     59  H   UNL     1      -8.984   7.660  15.775  0.00  0.00    +0.028 HD
ATOM     60  H   UNL     1      -9.099   5.941  16.218  0.00  0.00    +0.028 HD
ENDBRANCH   5  57
BRANCH  24  61
ATOM     61  C   UNL     1      -8.919  13.226  19.706  0.00  0.00    -0.057 C 
ATOM     62  H   UNL     1      -9.231  12.890  18.714  0.00  0.00    +0.023 HD
ATOM     63  H   UNL     1      -9.038  14.315  19.755  0.00  0.00    +0.023 HD
ATOM     64  H   UNL     1      -9.645  12.795  20.398  0.00  0.00    +0.023 HD
ENDBRANCH  24  61
BRANCH   8  65
ATOM     65  C   UNL     1     -13.172   7.680  19.377  0.00  0.00    -0.062 C 
ATOM     66  H   UNL     1     -13.291   6.653  19.018  0.00  0.00    +0.023 HD
ATOM     67  H   UNL     1     -13.638   7.752  20.366  0.00  0.00    +0.023 HD
ATOM     68  H   UNL     1     -13.731   8.336  18.700  0.00  0.00    +0.023 HD
ENDBRANCH   8  65
BRANCH  14  69
ATOM     69  C   UNL     1     -11.405   8.789  26.835  0.00  0.00    +0.020 C 
ATOM     70  H   UNL     1     -11.075   8.901  27.871  0.00  0.00    +0.036 HD
BRANCH  69  71
ATOM     71  C   UNL     1     -12.643   7.880  26.918  0.00  0.00    -0.057 C 
ATOM     72  H   UNL     1     -12.366   6.856  27.193  0.00  0.00    +0.023 HD
ATOM     73  H   UNL     1     -13.344   8.231  27.681  0.00  0.00    +0.023 HD
ATOM     74  H   UNL     1     -13.166   7.835  25.958  0.00  0.00    +0.023 HD
ENDBRANCH  69  71
BRANCH  69  75
ATOM     75  C   UNL     1     -10.293   8.056  26.027  0.00  0.00    +0.064 C 
ATOM     76  H   UNL     1     -10.536   8.171  24.963  0.00  0.00    +0.060 HD
BRANCH  75  77
ATOM     77  C   UNL     1     -10.204   6.534  26.343  0.00  0.00    -0.017 C 
ATOM     78  H   UNL     1     -11.092   6.274  26.933  0.00  0.00    +0.032 HD
BRANCH  77  79
ATOM     79  C   UNL     1     -10.306   5.704  25.055  0.00  0.00    -0.060 C 
ATOM     80  H   UNL     1      -9.326   5.401  24.676  0.00  0.00    +0.023 HD
ATOM     81  H   UNL     1     -10.799   6.283  24.267  0.00  0.00    +0.023 HD
ATOM     82  H   UNL     1     -10.901   4.800  25.220  0.00  0.00    +0.023 HD
ENDBRANCH  77  79
BRANCH  77  83
ATOM     83  C   UNL     1      -8.983   6.082  27.192  0.00  0.00    -0.045 C 
ATOM     84  H   UNL     1      -8.966   6.705  28.094  0.00  0.00    +0.027 HD
ATOM     85  H   UNL     1      -8.059   6.315  26.653  0.00  0.00    +0.027 HD
BRANCH  83  86
ATOM     86  C   UNL     1      -8.940   4.604  27.617  0.00  0.00    -0.015 C 
ATOM     87  H   UNL     1      -9.246   3.983  26.769  0.00  0.00    +0.030 HD
ATOM     88  H   UNL     1      -7.915   4.340  27.889  0.00  0.00    +0.030 HD
BRANCH  86  89
ATOM     89  C   UNL     1      -9.848   4.299  28.830  0.00  0.00    +0.109 C 
ATOM     90  H   UNL     1      -9.294   3.651  29.519  0.00  0.00    +0.074 HD
BRANCH  89  91
ATOM     91  C   UNL     1     -11.153   3.554  28.411  0.00  0.00    +0.031 C 
ATOM     92  H   UNL     1     -11.083   3.415  27.322  0.00  0.00    +0.037 HD
BRANCH  91  93
ATOM     93  C   UNL     1     -12.409   4.386  28.707  0.00  0.00    -0.056 C 
ATOM     94  H   UNL     1     -13.296   3.963  28.226  0.00  0.00    +0.023 HD
ATOM     95  H   UNL     1     -12.294   5.420  28.361  0.00  0.00    +0.023 HD
ATOM     96  H   UNL     1     -12.632   4.412  29.777  0.00  0.00    +0.023 HD
ENDBRANCH  91  93
BRANCH  91  97
ATOM     97  C   UNL     1     -11.247   2.146  29.085  0.00  0.00    +0.115 C 
ATOM     98  H   UNL     1     -12.234   2.071  29.563  0.00  0.00    +0.074 HD
BRANCH  97  99
ATOM     99  C   UNL     1     -11.100   0.956  28.086  0.00  0.00    +0.013 C 
ATOM    100  H   UNL     1     -12.048   0.404  28.081  0.00  0.00    +0.038 HD
BRANCH  99 101
ATOM    101  C   UNL     1     -10.029  -0.054  28.521  0.00  0.00    -0.056 C 
ATOM    102  H   UNL     1     -10.019  -0.918  27.845  0.00  0.00    +0.024 HD
ATOM    103  H   UNL     1      -9.022   0.380  28.510  0.00  0.00    +0.024 HD
ATOM    104  H   UNL     1     -10.236  -0.427  29.529  0.00  0.00    +0.024 HD
ENDBRANCH  99 101
BRANCH  99 105
ATOM    105  C   UNL     1     -10.782   1.421  26.679  0.00  0.00    -0.064 C 
ATOM    106  C   UNL     1     -11.510   1.071  25.609  0.00  0.00    -0.005 C 
ATOM    107  H   UNL     1      -9.925   2.080  26.586  0.00  0.00    +0.059 HD
ATOM    108  H   UNL     1     -12.363   0.405  25.732  0.00  0.00    +0.078 HD
BRANCH 106 109
ATOM    109  N   UNL     1     -11.281   1.486  24.304  0.00  0.00    -0.284 N 
ATOM    110  C   UNL     1     -12.002   2.560  23.784  0.00  0.00    +0.206 C 
ATOM    111  O   UNL     1     -12.849   3.226  24.370  0.00  0.00    -0.279 OA
ATOM    112  H   UNL     1     -11.735   2.782  22.737  0.00  0.00    +0.126 HD
BRANCH 109 113
ATOM    113  C   UNL     1     -10.293   0.828  23.463  0.00  0.00    +0.007 C 
ATOM    114  H   UNL     1      -9.387   1.442  23.421  0.00  0.00    +0.043 HD
ATOM    115  H   UNL     1     -10.023  -0.156  23.861  0.00  0.00    +0.043 HD
ATOM    116  H   UNL     1     -10.703   0.689  22.457  0.00  0.00    +0.043 HD
ENDBRANCH 109 113
ENDBRANCH 106 109
ENDBRANCH  99 105
ENDBRANCH  97  99
BRANCH  97 117
ATOM    117  O   UNL     1     -10.200   2.064  30.088  0.00  0.00    -0.461 OA
BRANCH 117 118
ATOM    118  C   UNL     1     -10.579   1.710  31.348  0.00  0.00    +0.304 C 
ATOM    119  O   UNL     1     -10.460   0.600  31.844  0.00  0.00    -0.251 OA
BRANCH 118 120
ATOM    120  C   UNL     1     -11.126   2.898  32.076  0.00  0.00    +0.033 C 
ATOM    121  H   UNL     1     -12.145   2.695  32.419  0.00  0.00    +0.034 HD
ATOM    122  H   UNL     1     -10.507   3.096  32.956  0.00  0.00    +0.034 HD
ATOM    123  H   UNL     1     -11.102   3.771  31.421  0.00  0.00    +0.034 HD
ENDBRANCH 118 120
ENDBRANCH 117 118
ENDBRANCH  97 117
ENDBRANCH  91  97
ENDBRANCH  89  91
BRANCH  89 124
ATOM    124  O   UNL     1     -10.221   5.542  29.459  0.00  0.00    -0.460 OA
BRANCH 124 125
ATOM    125  C   UNL     1      -9.575   5.900  30.604  0.00  0.00    +0.324 C 
ATOM    126  O   UNL     1      -8.649   5.264  31.102  0.00  0.00    -0.249 OA
BRANCH 125 127
ATOM    127  C   UNL     1     -10.174   7.161  31.258  0.00  0.00    +0.105 C 
ATOM    128  H   UNL     1     -10.370   6.910  32.309  0.00  0.00    +0.058 HD
BRANCH 127 129
ATOM    129  C   UNL     1     -11.516   7.408  30.560  0.00  0.00    -0.039 C 
ATOM    130  H   UNL     1     -12.214   6.585  30.741  0.00  0.00    +0.025 HD
ATOM    131  H   UNL     1     -11.979   8.328  30.935  0.00  0.00    +0.025 HD
ATOM    132  H   UNL     1     -11.401   7.535  29.479  0.00  0.00    +0.025 HD
ENDBRANCH 127 129
BRANCH 127 133
ATOM    133  N   UNL     1      -9.245   8.332  31.214  0.00  0.00    -0.296 NA
BRANCH 133 134
ATOM    134  C   UNL     1      -9.765   9.449  32.014  0.00  0.00    -0.012 C 
ATOM    135  H   UNL     1      -9.858   9.180  33.070  0.00  0.00    +0.039 HD
ATOM    136  H   UNL     1     -10.745   9.785  31.654  0.00  0.00    +0.039 HD
ATOM    137  H   UNL     1      -9.073  10.300  31.977  0.00  0.00    +0.039 HD
ENDBRANCH 133 134
BRANCH 133 138
ATOM    138  C   UNL     1      -9.007   8.800  29.845  0.00  0.00    -0.012 C 
ATOM    139  H   UNL     1      -9.928   8.748  29.250  0.00  0.00    +0.039 HD
ATOM    140  H   UNL     1      -8.706   9.853  29.831  0.00  0.00    +0.039 HD
ATOM    141  H   UNL     1      -8.239   8.204  29.336  0.00  0.00    +0.039 HD
ENDBRANCH 133 138
ENDBRANCH 127 133
ENDBRANCH 125 127
ENDBRANCH 124 125
ENDBRANCH  89 124
ENDBRANCH  86  89
ENDBRANCH  83  86
ENDBRANCH  77  83
ENDBRANCH  75  77
BRANCH  75 142
ATOM    142  O   UNL     1      -9.028   8.683  26.188  0.00  0.00    -0.391 OA
ATOM    143  H   UNL     1      -8.417   8.031  26.572  0.00  0.00    +0.210 HD
ENDBRANCH  75 142
ENDBRANCH  69  75
ENDBRANCH  14  69
BRANCH  25 144
ATOM    144  O   UNL     1      -6.810  13.142  17.699  0.00  0.00    -0.391 OA
ATOM    145  H   UNL     1      -6.995  14.014  18.085  0.00  0.00    +0.210 HD
ENDBRANCH  25 144
BRANCH  23 146
ATOM    146  O   UNL     1      -5.319  13.503  20.926  0.00  0.00    -0.460 OA
BRANCH 146 147
ATOM    147  C   UNL     1      -4.279  14.315  20.559  0.00  0.00    +0.327 C 
ATOM    148  O   UNL     1      -3.150  14.262  21.041  0.00  0.00    -0.249 OA
BRANCH 147 149
ATOM    149  C   UNL     1      -4.724  15.322  19.488  0.00  0.00    +0.131 C 
ATOM    150  H   UNL     1      -5.783  15.127  19.271  0.00  0.00    +0.060 HD
BRANCH 149 151
ATOM    151  C   UNL     1      -3.947  15.012  18.196  0.00  0.00    +0.073 C 
ATOM    152  H   UNL     1      -3.245  15.826  17.980  0.00  0.00    +0.058 HD
ATOM    153  H   UNL     1      -3.380  14.078  18.279  0.00  0.00    +0.058 HD
BRANCH 151 154
ATOM    154  O   UNL     1      -4.872  14.929  17.103  0.00  0.00    -0.381 OA
BRANCH 154 155
ATOM    155  C   UNL     1      -4.428  15.685  15.984  0.00  0.00    +0.037 C 
ATOM    156  H   UNL     1      -3.463  15.315  15.626  0.00  0.00    +0.052 HD
ATOM    157  H   UNL     1      -4.308  16.726  16.298  0.00  0.00    +0.052 HD
ATOM    158  H   UNL     1      -5.168  15.650  15.179  0.00  0.00    +0.052 HD
ENDBRANCH 154 155
ENDBRANCH 151 154
ENDBRANCH 149 151
BRANCH 149 159
ATOM    159  N   UNL     1      -4.547  16.750  19.899  0.00  0.00    -0.294 NA
BRANCH 159 160
ATOM    160  C   UNL     1      -3.393  17.358  19.241  0.00  0.00    -0.012 C 
ATOM    161  H   UNL     1      -3.325  17.104  18.180  0.00  0.00    +0.039 HD
ATOM    162  H   UNL     1      -2.473  17.043  19.737  0.00  0.00    +0.039 HD
ATOM    163  H   UNL     1      -3.424  18.450  19.327  0.00  0.00    +0.039 HD
ENDBRANCH 159 160
BRANCH 159 164
ATOM    164  C   UNL     1      -5.745  17.569  19.717  0.00  0.00    -0.012 C 
ATOM    165  H   UNL     1      -5.522  18.641  19.692  0.00  0.00    +0.039 HD
ATOM    166  H   UNL     1      -6.449  17.399  20.540  0.00  0.00    +0.039 HD
ATOM    167  H   UNL     1      -6.277  17.301  18.800  0.00  0.00    +0.039 HD
ENDBRANCH 159 164
ENDBRANCH 149 159
ENDBRANCH 147 149
ENDBRANCH 146 147
ENDBRANCH  23 146
BRANCH   4 168
ATOM    168  O   UNL     1      -6.936   8.280  16.555  0.00  0.00    -0.376 OA
BRANCH 168 169
ATOM    169  C   UNL     1      -5.553   8.503  16.309  0.00  0.00    +0.037 C 
ATOM    170  H   UNL     1      -5.030   7.551  16.427  0.00  0.00    +0.052 HD
ATOM    171  H   UNL     1      -5.155   9.213  17.039  0.00  0.00    +0.052 HD
ATOM    172  H   UNL     1      -5.386   8.869  15.292  0.00  0.00    +0.052 HD
ENDBRANCH 168 169
ENDBRANCH   4 168
BRANCH  10 173
ATOM    173  O   UNL     1     -10.248   7.533  22.232  0.00  0.00    -0.376 OA
BRANCH 173 174
ATOM    174  C   UNL     1      -9.136   8.401  22.430  0.00  0.00    +0.037 C 
ATOM    175  H   UNL     1      -8.240   7.898  22.058  0.00  0.00    +0.052 HD
ATOM    176  H   UNL     1      -9.266   9.328  21.865  0.00  0.00    +0.052 HD
ATOM    177  H   UNL     1      -8.995   8.619  23.494  0.00  0.00    +0.052 HD
ENDBRANCH 173 174
ENDBRANCH  10 173
TORSDOF 45
ENDMDL
MODEL 4
REMARK VINA RESULT:      -4.9      5.548     10.511
REMARK  Name = Aplyronine A_conf1
REMARK  45 active torsions:
REMARK  status: ('A' for Active; 'I' for Inactive)
REMARK    1  A    between atoms: C_1  and  C_2
REMARK    2  A    between atoms: C_5  and  O_75
REMARK    3  A    between atoms: C_6  and  C_74
REMARK    4  A    between atoms: C_9  and  C_73
REMARK    5  A    between atoms: C_11  and  O_71
REMARK    6  A    between atoms: C_15  and  C_39
REMARK    7  A    between atoms: C_24  and  O_29
REMARK    8  A    between atoms: C_25  and  C_28
REMARK    9  A    between atoms: C_26  and  O_27
REMARK   10  A    between atoms: O_29  and  C_30
REMARK   11  A    between atoms: C_30  and  C_32
REMARK   12  A    between atoms: C_32  and  C_33
REMARK   13  A    between atoms: C_32  and  N_36
REMARK   14  A    between atoms: C_33  and  O_34
REMARK   15  A    between atoms: O_34  and  C_35
REMARK   16  A    between atoms: N_36  and  C_37
REMARK   17  A    between atoms: N_36  and  C_38
REMARK   18  A    between atoms: C_39  and  C_40
REMARK   19  A    between atoms: C_39  and  C_41
REMARK   20  A    between atoms: C_41  and  C_42
REMARK   21  A    between atoms: C_41  and  O_70
REMARK   22  A    between atoms: C_42  and  C_43
REMARK   23  A    between atoms: C_42  and  C_44
REMARK   24  A    between atoms: C_44  and  C_45
REMARK   25  A    between atoms: C_45  and  C_46
REMARK   26  A    between atoms: C_46  and  C_47
REMARK   27  A    between atoms: C_46  and  O_62
REMARK   28  A    between atoms: C_47  and  C_48
REMARK   29  A    between atoms: C_47  and  C_49
REMARK   30  A    between atoms: C_49  and  C_50
REMARK   31  A    between atoms: C_49  and  O_58
REMARK   32  A    between atoms: C_50  and  C_51
REMARK   33  A    between atoms: C_50  and  C_52
REMARK   34  A    between atoms: C_53  and  N_54
REMARK   35  A    between atoms: N_54  and  C_55
REMARK   36  A    between atoms: O_58  and  C_59
REMARK   37  A    between atoms: C_59  and  C_61
REMARK   38  A    between atoms: O_62  and  C_63
REMARK   39  A    between atoms: C_63  and  C_65
REMARK   40  A    between atoms: C_65  and  C_66
REMARK   41  A    between atoms: C_65  and  N_67
REMARK   42  A    between atoms: N_67  and  C_68
REMARK   43  A    between atoms: N_67  and  C_69
REMARK   44  A    between atoms: O_71  and  C_72
REMARK   45  A    between atoms: O_75  and  C_76
REMARK                            x       y       z     vdW  Elec       q    Type
REMARK                         _______ _______ _______ _____ _____    ______ ____
ROOT
ATOM      1  C   UNL     1      -9.248  15.627  22.933  0.00  0.00    -0.017 C 
ATOM      2  C   UNL     1      -9.916  15.066  21.661  0.00  0.00    -0.045 C 
ATOM      3  C   UNL     1     -11.391  15.450  21.417  0.00  0.00    -0.022 C 
ATOM      4  C   UNL     1     -12.444  15.148  22.505  0.00  0.00    +0.079 C 
ATOM      5  C   UNL     1     -12.585  13.704  22.998  0.00  0.00    -0.048 C 
ATOM      6  C   UNL     1     -12.207  12.635  22.263  0.00  0.00    -0.082 C 
ATOM      7  C   UNL     1     -12.333  11.176  22.619  0.00  0.00    -0.032 C 
ATOM      8  C   UNL     1     -11.034  10.579  23.191  0.00  0.00    -0.038 C 
ATOM      9  C   UNL     1      -9.833  10.523  22.213  0.00  0.00    -0.020 C 
ATOM     10  C   UNL     1     -10.079   9.773  20.886  0.00  0.00    +0.077 C 
ATOM     11  C   UNL     1      -8.759   9.404  20.253  0.00  0.00    -0.059 C 
ATOM     12  C   UNL     1      -8.385   8.150  19.943  0.00  0.00    -0.082 C 
ATOM     13  C   UNL     1      -7.076   7.764  19.288  0.00  0.00    +0.003 C 
ATOM     14  C   UNL     1      -6.823   8.300  17.850  0.00  0.00    +0.112 C 
ATOM     15  O   UNL     1      -6.519   9.706  18.030  0.00  0.00    -0.458 OA
ATOM     16  C   UNL     1      -5.430  10.203  17.392  0.00  0.00    +0.332 C 
ATOM     17  O   UNL     1      -4.826   9.690  16.465  0.00  0.00    -0.246 OA
ATOM     18  C   UNL     1      -5.006  11.471  18.022  0.00  0.00    +0.022 C 
ATOM     19  C   UNL     1      -5.060  11.601  19.355  0.00  0.00    -0.055 C 
ATOM     20  C   UNL     1      -4.557  12.711  20.123  0.00  0.00    -0.065 C 
ATOM     21  C   UNL     1      -4.865  13.999  19.928  0.00  0.00    -0.081 C 
ATOM     22  C   UNL     1      -4.399  15.079  20.878  0.00  0.00    +0.003 C 
ATOM     23  C   UNL     1      -5.538  15.921  21.508  0.00  0.00    +0.111 C 
ATOM     24  C   UNL     1      -6.775  15.131  22.043  0.00  0.00    +0.020 C 
ATOM     25  C   UNL     1      -7.803  16.129  22.647  0.00  0.00    +0.064 C 
ATOM     26  H   UNL     1      -9.793  16.527  23.249  0.00  0.00    +0.032 HD
ATOM     27  H   UNL     1      -9.798  13.980  21.623  0.00  0.00    +0.027 HD
ATOM     28  H   UNL     1      -9.376  15.441  20.781  0.00  0.00    +0.027 HD
ATOM     29  H   UNL     1     -11.404  16.530  21.221  0.00  0.00    +0.029 HD
ATOM     30  H   UNL     1     -11.707  14.973  20.479  0.00  0.00    +0.029 HD
ATOM     31  H   UNL     1     -13.428  15.407  22.087  0.00  0.00    +0.064 HD
ATOM     32  H   UNL     1     -11.776  12.792  21.278  0.00  0.00    +0.057 HD
ATOM     33  H   UNL     1     -12.656  10.625  21.729  0.00  0.00    +0.031 HD
ATOM     34  H   UNL     1     -13.148  11.028  23.332  0.00  0.00    +0.031 HD
ATOM     35  H   UNL     1     -10.717  11.214  24.032  0.00  0.00    +0.030 HD
ATOM     36  H   UNL     1      -8.994  10.057  22.746  0.00  0.00    +0.030 HD
ATOM     37  H   UNL     1      -9.519  11.552  21.991  0.00  0.00    +0.030 HD
ATOM     38  H   UNL     1     -10.683   8.879  21.071  0.00  0.00    +0.064 HD
ATOM     39  H   UNL     1      -8.098  10.240  20.030  0.00  0.00    +0.059 HD
ATOM     40  H   UNL     1      -9.062   7.325  20.159  0.00  0.00    +0.057 HD
ATOM     41  H   UNL     1      -7.011   6.670  19.303  0.00  0.00    +0.034 HD
ATOM     42  H   UNL     1      -6.266   8.107  19.946  0.00  0.00    +0.034 HD
ATOM     43  H   UNL     1      -5.929   7.791  17.465  0.00  0.00    +0.074 HD
ATOM     44  H   UNL     1      -4.551  12.209  17.371  0.00  0.00    +0.069 HD
ATOM     45  H   UNL     1      -5.434  10.778  19.964  0.00  0.00    +0.062 HD
ATOM     46  H   UNL     1      -3.951  12.426  20.985  0.00  0.00    +0.061 HD
ATOM     47  H   UNL     1      -5.495  14.313  19.097  0.00  0.00    +0.057 HD
ATOM     48  H   UNL     1      -3.727  15.739  20.313  0.00  0.00    +0.034 HD
ATOM     49  H   UNL     1      -3.799  14.644  21.684  0.00  0.00    +0.034 HD
ATOM     50  H   UNL     1      -5.107  16.470  22.357  0.00  0.00    +0.074 HD
ATOM     51  H   UNL     1      -7.247  14.633  21.189  0.00  0.00    +0.036 HD
ATOM     52  H   UNL     1      -7.926  16.962  21.946  0.00  0.00    +0.060 HD
ENDROOT
BRANCH   1  53
ATOM     53  C   UNL     1      -9.333  14.646  24.112  0.00  0.00    -0.060 C 
ATOM     54  H   UNL     1      -8.541  13.900  24.059  0.00  0.00    +0.023 HD
ATOM     55  H   UNL     1     -10.276  14.095  24.123  0.00  0.00    +0.023 HD
ATOM     56  H   UNL     1      -9.222  15.152  25.073  0.00  0.00    +0.023 HD
ENDBRANCH   1  53
BRANCH   5  57
ATOM     57  C   UNL     1     -13.235  13.582  24.357  0.00  0.00    -0.041 C 
ATOM     58  H   UNL     1     -14.312  13.402  24.318  0.00  0.00    +0.028 HD
ATOM     59  H   UNL     1     -12.804  12.747  24.919  0.00  0.00    +0.028 HD
ATOM     60  H   UNL     1     -13.084  14.503  24.931  0.00  0.00    +0.028 HD
ENDBRANCH   5  57
BRANCH  24  61
ATOM     61  C   UNL     1      -6.341  14.059  23.053  0.00  0.00    -0.057 C 
ATOM     62  H   UNL     1      -7.117  13.302  23.185  0.00  0.00    +0.023 HD
ATOM     63  H   UNL     1      -6.107  14.488  24.034  0.00  0.00    +0.023 HD
ATOM     64  H   UNL     1      -5.455  13.510  22.726  0.00  0.00    +0.023 HD
ENDBRANCH  24  61
BRANCH   8  65
ATOM     65  C   UNL     1     -11.316   9.193  23.784  0.00  0.00    -0.062 C 
ATOM     66  H   UNL     1     -11.733   8.512  23.036  0.00  0.00    +0.023 HD
ATOM     67  H   UNL     1     -10.399   8.744  24.181  0.00  0.00    +0.023 HD
ATOM     68  H   UNL     1     -12.033   9.264  24.608  0.00  0.00    +0.023 HD
ENDBRANCH   8  65
BRANCH  14  69
ATOM     69  C   UNL     1      -8.006   8.084  16.870  0.00  0.00    +0.020 C 
ATOM     70  H   UNL     1      -8.929   8.072  17.456  0.00  0.00    +0.036 HD
BRANCH  69  71
ATOM     71  C   UNL     1      -8.182   9.259  15.893  0.00  0.00    -0.057 C 
ATOM     72  H   UNL     1      -8.770  10.067  16.344  0.00  0.00    +0.023 HD
ATOM     73  H   UNL     1      -7.217   9.692  15.614  0.00  0.00    +0.023 HD
ATOM     74  H   UNL     1      -8.698   8.943  14.982  0.00  0.00    +0.023 HD
ENDBRANCH  69  71
BRANCH  69  75
ATOM     75  C   UNL     1      -7.908   6.761  16.054  0.00  0.00    +0.064 C 
ATOM     76  H   UNL     1      -7.790   7.038  14.999  0.00  0.00    +0.060 HD
BRANCH  75  77
ATOM     77  C   UNL     1      -9.174   5.863  16.182  0.00  0.00    -0.017 C 
ATOM     78  H   UNL     1      -8.904   5.012  16.820  0.00  0.00    +0.032 HD
BRANCH  77  79
ATOM     79  C   UNL     1     -10.292   6.602  16.931  0.00  0.00    -0.060 C 
ATOM     80  H   UNL     1     -10.333   7.664  16.674  0.00  0.00    +0.023 HD
ATOM     81  H   UNL     1     -10.137   6.531  18.013  0.00  0.00    +0.023 HD
ATOM     82  H   UNL     1     -11.268   6.160  16.709  0.00  0.00    +0.023 HD
ENDBRANCH  77  79
BRANCH  77  83
ATOM     83  C   UNL     1      -9.713   5.247  14.861  0.00  0.00    -0.045 C 
ATOM     84  H   UNL     1     -10.216   6.050  14.309  0.00  0.00    +0.027 HD
ATOM     85  H   UNL     1     -10.491   4.514  15.092  0.00  0.00    +0.027 HD
BRANCH  83  86
ATOM     86  C   UNL     1      -8.682   4.586  13.930  0.00  0.00    -0.015 C 
ATOM     87  H   UNL     1      -8.966   4.783  12.891  0.00  0.00    +0.030 HD
ATOM     88  H   UNL     1      -7.699   5.028  14.113  0.00  0.00    +0.030 HD
BRANCH  86  89
ATOM     89  C   UNL     1      -8.566   3.060  14.148  0.00  0.00    +0.109 C 
ATOM     90  H   UNL     1      -7.508   2.814  14.301  0.00  0.00    +0.074 HD
BRANCH  89  91
ATOM     91  C   UNL     1      -9.075   2.252  12.916  0.00  0.00    +0.031 C 
ATOM     92  H   UNL     1      -9.225   2.989  12.114  0.00  0.00    +0.037 HD
BRANCH  91  93
ATOM     93  C   UNL     1     -10.421   1.567  13.194  0.00  0.00    -0.056 C 
ATOM     94  H   UNL     1     -10.347   0.853  14.021  0.00  0.00    +0.023 HD
ATOM     95  H   UNL     1     -10.787   1.030  12.312  0.00  0.00    +0.023 HD
ATOM     96  H   UNL     1     -11.187   2.289  13.491  0.00  0.00    +0.023 HD
ENDBRANCH  91  93
BRANCH  91  97
ATOM     97  C   UNL     1      -8.011   1.211  12.437  0.00  0.00    +0.115 C 
ATOM     98  H   UNL     1      -8.513   0.237  12.351  0.00  0.00    +0.074 HD
BRANCH  97  99
ATOM     99  C   UNL     1      -7.371   1.550  11.054  0.00  0.00    +0.013 C 
ATOM    100  H   UNL     1      -7.979   1.070  10.278  0.00  0.00    +0.038 HD
BRANCH  99 101
ATOM    101  C   UNL     1      -5.958   0.973  10.898  0.00  0.00    -0.056 C 
ATOM    102  H   UNL     1      -5.461   0.904  11.873  0.00  0.00    +0.024 HD
ATOM    103  H   UNL     1      -5.966  -0.034  10.464  0.00  0.00    +0.024 HD
ATOM    104  H   UNL     1      -5.344   1.620  10.262  0.00  0.00    +0.024 HD
ENDBRANCH  99 101
BRANCH  99 105
ATOM    105  C   UNL     1      -7.315   3.042  10.797  0.00  0.00    -0.064 C 
ATOM    106  C   UNL     1      -7.170   3.571   9.573  0.00  0.00    -0.005 C 
ATOM    107  H   UNL     1      -7.418   3.674  11.674  0.00  0.00    +0.059 HD
ATOM    108  H   UNL     1      -7.066   2.913   8.711  0.00  0.00    +0.078 HD
BRANCH 106 109
ATOM    109  N   UNL     1      -7.137   4.927   9.276  0.00  0.00    -0.284 N 
ATOM    110  C   UNL     1      -5.933   5.524   8.906  0.00  0.00    +0.206 C 
ATOM    111  O   UNL     1      -4.844   4.970   8.793  0.00  0.00    -0.279 OA
ATOM    112  H   UNL     1      -6.040   6.603   8.707  0.00  0.00    +0.126 HD
BRANCH 109 113
ATOM    113  C   UNL     1      -8.340   5.743   9.332  0.00  0.00    +0.007 C 
ATOM    114  H   UNL     1      -9.197   5.147   9.003  0.00  0.00    +0.043 HD
ATOM    115  H   UNL     1      -8.536   6.094  10.351  0.00  0.00    +0.043 HD
ATOM    116  H   UNL     1      -8.218   6.619   8.686  0.00  0.00    +0.043 HD
ENDBRANCH 109 113
ENDBRANCH 106 109
ENDBRANCH  99 105
ENDBRANCH  97  99
BRANCH  97 117
ATOM    117  O   UNL     1      -6.968   1.147  13.446  0.00  0.00    -0.461 OA
BRANCH 117 118
ATOM    118  C   UNL     1      -6.844  -0.024  14.131  0.00  0.00    +0.304 C 
ATOM    119  O   UNL     1      -7.765  -0.685  14.588  0.00  0.00    -0.251 OA
BRANCH 118 120
ATOM    120  C   UNL     1      -5.405  -0.429  14.208  0.00  0.00    +0.033 C 
ATOM    121  H   UNL     1      -5.280  -1.451  13.840  0.00  0.00    +0.034 HD
ATOM    122  H   UNL     1      -4.811   0.234  13.573  0.00  0.00    +0.034 HD
ATOM    123  H   UNL     1      -5.055  -0.341  15.239  0.00  0.00    +0.034 HD
ENDBRANCH 118 120
ENDBRANCH 117 118
ENDBRANCH  97 117
ENDBRANCH  91  97
ENDBRANCH  89  91
BRANCH  89 124
ATOM    124  O   UNL     1      -9.363   2.689  15.292  0.00  0.00    -0.460 OA
BRANCH 124 125
ATOM    125  C   UNL     1      -8.721   2.218  16.397  0.00  0.00    +0.324 C 
ATOM    126  O   UNL     1      -7.644   2.647  16.805  0.00  0.00    -0.249 OA
BRANCH 125 127
ATOM    127  C   UNL     1      -9.455   1.032  17.054  0.00  0.00    +0.105 C 
ATOM    128  H   UNL     1      -9.349   0.177  16.373  0.00  0.00    +0.058 HD
BRANCH 127 129
ATOM    129  C   UNL     1     -10.935   1.425  17.113  0.00  0.00    -0.039 C 
ATOM    130  H   UNL     1     -11.414   1.028  18.013  0.00  0.00    +0.025 HD
ATOM    131  H   UNL     1     -11.041   2.515  17.129  0.00  0.00    +0.025 HD
ATOM    132  H   UNL     1     -11.490   1.071  16.238  0.00  0.00    +0.025 HD
ENDBRANCH 127 129
BRANCH 127 133
ATOM    133  N   UNL     1      -8.875   0.657  18.381  0.00  0.00    -0.296 NA
BRANCH 133 134
ATOM    134  C   UNL     1      -8.114  -0.597  18.288  0.00  0.00    -0.012 C 
ATOM    135  H   UNL     1      -8.122  -1.000  17.272  0.00  0.00    +0.039 HD
ATOM    136  H   UNL     1      -8.508  -1.362  18.968  0.00  0.00    +0.039 HD
ATOM    137  H   UNL     1      -7.060  -0.422  18.538  0.00  0.00    +0.039 HD
ENDBRANCH 133 134
BRANCH 133 138
ATOM    138  C   UNL     1      -9.905   0.512  19.414  0.00  0.00    -0.012 C 
ATOM    139  H   UNL     1     -10.028  -0.541  19.697  0.00  0.00    +0.039 HD
ATOM    140  H   UNL     1      -9.621   1.033  20.335  0.00  0.00    +0.039 HD
ATOM    141  H   UNL     1     -10.878   0.891  19.078  0.00  0.00    +0.039 HD
ENDBRANCH 133 138
ENDBRANCH 127 133
ENDBRANCH 125 127
ENDBRANCH 124 125
ENDBRANCH  89 124
ENDBRANCH  86  89
ENDBRANCH  83  86
ENDBRANCH  77  83
ENDBRANCH  75  77
BRANCH  75 142
ATOM    142  O   UNL     1      -6.734   6.031  16.379  0.00  0.00    -0.391 OA
ATOM    143  H   UNL     1      -6.036   6.669  16.606  0.00  0.00    +0.210 HD
ENDBRANCH  75 142
ENDBRANCH  69  75
ENDBRANCH  14  69
BRANCH  25 144
ATOM    144  O   UNL     1      -7.247  16.715  23.832  0.00  0.00    -0.391 OA
ATOM    145  H   UNL     1      -7.975  16.874  24.455  0.00  0.00    +0.210 HD
ENDBRANCH  25 144
BRANCH  23 146
ATOM    146  O   UNL     1      -5.989  16.859  20.491  0.00  0.00    -0.460 OA
BRANCH 146 147
ATOM    147  C   UNL     1      -5.080  17.821  20.138  0.00  0.00    +0.327 C 
ATOM    148  O   UNL     1      -4.407  18.471  20.936  0.00  0.00    -0.249 OA
BRANCH 147 149
ATOM    149  C   UNL     1      -5.039  18.000  18.613  0.00  0.00    +0.131 C 
ATOM    150  H   UNL     1      -3.983  18.011  18.310  0.00  0.00    +0.060 HD
BRANCH 149 151
ATOM    151  C   UNL     1      -5.604  19.393  18.286  0.00  0.00    +0.073 C 
ATOM    152  H   UNL     1      -6.459  19.298  17.606  0.00  0.00    +0.058 HD
ATOM    153  H   UNL     1      -5.936  19.918  19.189  0.00  0.00    +0.058 HD
BRANCH 151 154
ATOM    154  O   UNL     1      -4.595  20.161  17.615  0.00  0.00    -0.381 OA
BRANCH 154 155
ATOM    155  C   UNL     1      -5.118  20.830  16.475  0.00  0.00    +0.037 C 
ATOM    156  H   UNL     1      -5.854  20.202  15.963  0.00  0.00    +0.052 HD
ATOM    157  H   UNL     1      -4.293  21.031  15.785  0.00  0.00    +0.052 HD
ATOM    158  H   UNL     1      -5.570  21.784  16.762  0.00  0.00    +0.052 HD
ENDBRANCH 154 155
ENDBRANCH 151 154
ENDBRANCH 149 151
BRANCH 149 159
ATOM    159  N   UNL     1      -5.768  16.928  17.866  0.00  0.00    -0.294 NA
BRANCH 159 160
ATOM    160  C   UNL     1      -6.960  17.452  17.204  0.00  0.00    -0.012 C 
ATOM    161  H   UNL     1      -6.943  18.540  17.095  0.00  0.00    +0.039 HD
ATOM    162  H   UNL     1      -7.853  17.170  17.766  0.00  0.00    +0.039 HD
ATOM    163  H   UNL     1      -7.080  17.013  16.208  0.00  0.00    +0.039 HD
ENDBRANCH 159 160
BRANCH 159 164
ATOM    164  C   UNL     1      -4.928  16.190  16.922  0.00  0.00    -0.012 C 
ATOM    165  H   UNL     1      -4.158  16.820  16.463  0.00  0.00    +0.039 HD
ATOM    166  H   UNL     1      -5.540  15.777  16.114  0.00  0.00    +0.039 HD
ATOM    167  H   UNL     1      -4.441  15.338  17.405  0.00  0.00    +0.039 HD
ENDBRANCH 159 164
ENDBRANCH 149 159
ENDBRANCH 147 149
ENDBRANCH 146 147
ENDBRANCH  23 146
BRANCH   4 168
ATOM    168  O   UNL     1     -12.189  16.007  23.627  0.00  0.00    -0.376 OA
BRANCH 168 169
ATOM    169  C   UNL     1     -12.575  17.358  23.403  0.00  0.00    +0.037 C 
ATOM    170  H   UNL     1     -12.778  17.479  22.336  0.00  0.00    +0.052 HD
ATOM    171  H   UNL     1     -11.759  18.030  23.682  0.00  0.00    +0.052 HD
ATOM    172  H   UNL     1     -13.482  17.607  23.961  0.00  0.00    +0.052 HD
ENDBRANCH 168 169
ENDBRANCH   4 168
BRANCH  10 173
ATOM    173  O   UNL     1     -10.777  10.657  20.003  0.00  0.00    -0.376 OA
BRANCH 173 174
ATOM    174  C   UNL     1      -9.940  11.648  19.416  0.00  0.00    +0.037 C 
ATOM    175  H   UNL     1     -10.319  12.631  19.707  0.00  0.00    +0.052 HD
ATOM    176  H   UNL     1      -8.915  11.554  19.786  0.00  0.00    +0.052 HD
ATOM    177  H   UNL     1      -9.959  11.579  18.324  0.00  0.00    +0.052 HD
ENDBRANCH 173 174
ENDBRANCH  10 173
TORSDOF 45
ENDMDL
MODEL 5
REMARK VINA RESULT:      -4.8      2.965     14.052
REMARK  Name = Aplyronine A_conf1
REMARK  45 active torsions:
REMARK  status: ('A' for Active; 'I' for Inactive)
REMARK    1  A    between atoms: C_1  and  C_2
REMARK    2  A    between atoms: C_5  and  O_75
REMARK    3  A    between atoms: C_6  and  C_74
REMARK    4  A    between atoms: C_9  and  C_73
REMARK    5  A    between atoms: C_11  and  O_71
REMARK    6  A    between atoms: C_15  and  C_39
REMARK    7  A    between atoms: C_24  and  O_29
REMARK    8  A    between atoms: C_25  and  C_28
REMARK    9  A    between atoms: C_26  and  O_27
REMARK   10  A    between atoms: O_29  and  C_30
REMARK   11  A    between atoms: C_30  and  C_32
REMARK   12  A    between atoms: C_32  and  C_33
REMARK   13  A    between atoms: C_32  and  N_36
REMARK   14  A    between atoms: C_33  and  O_34
REMARK   15  A    between atoms: O_34  and  C_35
REMARK   16  A    between atoms: N_36  and  C_37
REMARK   17  A    between atoms: N_36  and  C_38
REMARK   18  A    between atoms: C_39  and  C_40
REMARK   19  A    between atoms: C_39  and  C_41
REMARK   20  A    between atoms: C_41  and  C_42
REMARK   21  A    between atoms: C_41  and  O_70
REMARK   22  A    between atoms: C_42  and  C_43
REMARK   23  A    between atoms: C_42  and  C_44
REMARK   24  A    between atoms: C_44  and  C_45
REMARK   25  A    between atoms: C_45  and  C_46
REMARK   26  A    between atoms: C_46  and  C_47
REMARK   27  A    between atoms: C_46  and  O_62
REMARK   28  A    between atoms: C_47  and  C_48
REMARK   29  A    between atoms: C_47  and  C_49
REMARK   30  A    between atoms: C_49  and  C_50
REMARK   31  A    between atoms: C_49  and  O_58
REMARK   32  A    between atoms: C_50  and  C_51
REMARK   33  A    between atoms: C_50  and  C_52
REMARK   34  A    between atoms: C_53  and  N_54
REMARK   35  A    between atoms: N_54  and  C_55
REMARK   36  A    between atoms: O_58  and  C_59
REMARK   37  A    between atoms: C_59  and  C_61
REMARK   38  A    between atoms: O_62  and  C_63
REMARK   39  A    between atoms: C_63  and  C_65
REMARK   40  A    between atoms: C_65  and  C_66
REMARK   41  A    between atoms: C_65  and  N_67
REMARK   42  A    between atoms: N_67  and  C_68
REMARK   43  A    between atoms: N_67  and  C_69
REMARK   44  A    between atoms: O_71  and  C_72
REMARK   45  A    between atoms: O_75  and  C_76
REMARK                            x       y       z     vdW  Elec       q    Type
REMARK                         _______ _______ _______ _____ _____    ______ ____
ROOT
ATOM      1  C   UNL     1     -13.116   5.113  24.764  0.00  0.00    -0.017 C 
ATOM      2  C   UNL     1     -11.643   5.571  24.738  0.00  0.00    -0.045 C 
ATOM      3  C   UNL     1     -10.961   5.812  26.101  0.00  0.00    -0.022 C 
ATOM      4  C   UNL     1     -11.598   6.798  27.105  0.00  0.00    +0.079 C 
ATOM      5  C   UNL     1     -11.865   8.234  26.643  0.00  0.00    -0.048 C 
ATOM      6  C   UNL     1     -11.194   8.817  25.625  0.00  0.00    -0.082 C 
ATOM      7  C   UNL     1     -11.336  10.225  25.109  0.00  0.00    -0.032 C 
ATOM      8  C   UNL     1     -12.245  10.327  23.871  0.00  0.00    -0.038 C 
ATOM      9  C   UNL     1     -11.724   9.616  22.595  0.00  0.00    -0.020 C 
ATOM     10  C   UNL     1     -10.322  10.044  22.111  0.00  0.00    +0.077 C 
ATOM     11  C   UNL     1     -10.132   9.638  20.669  0.00  0.00    -0.059 C 
ATOM     12  C   UNL     1      -9.839  10.490  19.669  0.00  0.00    -0.082 C 
ATOM     13  C   UNL     1      -9.623  10.098  18.223  0.00  0.00    +0.003 C 
ATOM     14  C   UNL     1      -8.416   9.168  17.918  0.00  0.00    +0.112 C 
ATOM     15  O   UNL     1      -8.829   7.861  18.390  0.00  0.00    -0.458 OA
ATOM     16  C   UNL     1      -8.646   6.803  17.562  0.00  0.00    +0.332 C 
ATOM     17  O   UNL     1      -7.927   6.758  16.578  0.00  0.00    -0.246 OA
ATOM     18  C   UNL     1      -9.507   5.676  17.977  0.00  0.00    +0.022 C 
ATOM     19  C   UNL     1     -10.752   5.918  18.414  0.00  0.00    -0.055 C 
ATOM     20  C   UNL     1     -11.753   4.928  18.721  0.00  0.00    -0.065 C 
ATOM     21  C   UNL     1     -11.599   3.895  19.558  0.00  0.00    -0.081 C 
ATOM     22  C   UNL     1     -12.755   2.992  19.926  0.00  0.00    +0.003 C 
ATOM     23  C   UNL     1     -13.051   2.908  21.445  0.00  0.00    +0.111 C 
ATOM     24  C   UNL     1     -13.058   4.259  22.229  0.00  0.00    +0.020 C 
ATOM     25  C   UNL     1     -13.382   3.985  23.725  0.00  0.00    +0.064 C 
ATOM     26  H   UNL     1     -13.322   4.646  25.736  0.00  0.00    +0.032 HD
ATOM     27  H   UNL     1     -11.536   6.454  24.101  0.00  0.00    +0.027 HD
ATOM     28  H   UNL     1     -11.037   4.795  24.251  0.00  0.00    +0.027 HD
ATOM     29  H   UNL     1     -10.883   4.832  26.589  0.00  0.00    +0.029 HD
ATOM     30  H   UNL     1      -9.928   6.130  25.904  0.00  0.00    +0.029 HD
ATOM     31  H   UNL     1     -10.904   6.893  27.953  0.00  0.00    +0.064 HD
ATOM     32  H   UNL     1     -10.431   8.251  25.098  0.00  0.00    +0.057 HD
ATOM     33  H   UNL     1     -10.338  10.622  24.893  0.00  0.00    +0.031 HD
ATOM     34  H   UNL     1     -11.716  10.882  25.896  0.00  0.00    +0.031 HD
ATOM     35  H   UNL     1     -13.204   9.848  24.120  0.00  0.00    +0.030 HD
ATOM     36  H   UNL     1     -12.457   9.792  21.797  0.00  0.00    +0.030 HD
ATOM     37  H   UNL     1     -11.726   8.533  22.778  0.00  0.00    +0.030 HD
ATOM     38  H   UNL     1     -10.202  11.126  22.228  0.00  0.00    +0.064 HD
ATOM     39  H   UNL     1     -10.230   8.573  20.466  0.00  0.00    +0.059 HD
ATOM     40  H   UNL     1      -9.731  11.550  19.889  0.00  0.00    +0.057 HD
ATOM     41  H   UNL     1      -9.547  11.024  17.640  0.00  0.00    +0.034 HD
ATOM     42  H   UNL     1     -10.546   9.616  17.873  0.00  0.00    +0.034 HD
ATOM     43  H   UNL     1      -8.301   9.129  16.826  0.00  0.00    +0.074 HD
ATOM     44  H   UNL     1      -9.125   4.679  17.794  0.00  0.00    +0.069 HD
ATOM     45  H   UNL     1     -11.113   6.944  18.478  0.00  0.00    +0.062 HD
ATOM     46  H   UNL     1     -12.734   5.128  18.286  0.00  0.00    +0.061 HD
ATOM     47  H   UNL     1     -10.642   3.687  20.033  0.00  0.00    +0.057 HD
ATOM     48  H   UNL     1     -12.518   1.990  19.543  0.00  0.00    +0.034 HD
ATOM     49  H   UNL     1     -13.666   3.312  19.408  0.00  0.00    +0.034 HD
ATOM     50  H   UNL     1     -14.046   2.457  21.558  0.00  0.00    +0.074 HD
ATOM     51  H   UNL     1     -12.049   4.682  22.173  0.00  0.00    +0.036 HD
ATOM     52  H   UNL     1     -12.769   3.140  24.060  0.00  0.00    +0.060 HD
ENDROOT
BRANCH   1  53
ATOM     53  C   UNL     1     -14.092   6.293  24.648  0.00  0.00    -0.060 C 
ATOM     54  H   UNL     1     -14.461   6.399  23.628  0.00  0.00    +0.023 HD
ATOM     55  H   UNL     1     -13.621   7.245  24.905  0.00  0.00    +0.023 HD
ATOM     56  H   UNL     1     -14.968   6.163  25.286  0.00  0.00    +0.023 HD
ENDBRANCH   1  53
BRANCH   5  57
ATOM     57  C   UNL     1     -12.909   8.957  27.463  0.00  0.00    -0.041 C 
ATOM     58  H   UNL     1     -12.500   9.511  28.311  0.00  0.00    +0.028 HD
ATOM     59  H   UNL     1     -13.446   9.687  26.849  0.00  0.00    +0.028 HD
ATOM     60  H   UNL     1     -13.633   8.241  27.867  0.00  0.00    +0.028 HD
ENDBRANCH   5  57
BRANCH  24  61
ATOM     61  C   UNL     1     -14.040   5.253  21.593  0.00  0.00    -0.057 C 
ATOM     62  H   UNL     1     -13.589   5.761  20.737  0.00  0.00    +0.023 HD
ATOM     63  H   UNL     1     -14.376   6.013  22.307  0.00  0.00    +0.023 HD
ATOM     64  H   UNL     1     -14.935   4.765  21.201  0.00  0.00    +0.023 HD
ENDBRANCH  24  61
BRANCH   8  65
ATOM     65  C   UNL     1     -12.565  11.798  23.579  0.00  0.00    -0.062 C 
ATOM     66  H   UNL     1     -12.302  12.443  24.424  0.00  0.00    +0.023 HD
ATOM     67  H   UNL     1     -12.017  12.150  22.697  0.00  0.00    +0.023 HD
ATOM     68  H   UNL     1     -13.633  11.929  23.379  0.00  0.00    +0.023 HD
ENDBRANCH   8  65
BRANCH  14  69
ATOM     69  C   UNL     1      -7.079   9.621  18.564  0.00  0.00    +0.020 C 
ATOM     70  H   UNL     1      -7.290  10.487  19.197  0.00  0.00    +0.036 HD
BRANCH  69  71
ATOM     71  C   UNL     1      -6.505   8.567  19.525  0.00  0.00    -0.057 C 
ATOM     72  H   UNL     1      -5.457   8.347  19.294  0.00  0.00    +0.023 HD
ATOM     73  H   UNL     1      -6.530   8.918  20.561  0.00  0.00    +0.023 HD
ATOM     74  H   UNL     1      -7.062   7.628  19.463  0.00  0.00    +0.023 HD
ENDBRANCH  69  71
BRANCH  69  75
ATOM     75  C   UNL     1      -5.983  10.007  17.526  0.00  0.00    +0.064 C 
ATOM     76  H   UNL     1      -5.055   9.512  17.836  0.00  0.00    +0.060 HD
BRANCH  75  77
ATOM     77  C   UNL     1      -5.717  11.540  17.454  0.00  0.00    -0.017 C 
ATOM     78  H   UNL     1      -5.634  11.804  16.392  0.00  0.00    +0.032 HD
BRANCH  77  79
ATOM     79  C   UNL     1      -6.924  12.327  17.983  0.00  0.00    -0.060 C 
ATOM     80  H   UNL     1      -6.908  13.375  17.669  0.00  0.00    +0.023 HD
ATOM     81  H   UNL     1      -6.939  12.311  19.078  0.00  0.00    +0.023 HD
ATOM     82  H   UNL     1      -7.862  11.882  17.635  0.00  0.00    +0.023 HD
ENDBRANCH  77  79
BRANCH  77  83
ATOM     83  C   UNL     1      -4.403  12.038  18.119  0.00  0.00    -0.045 C 
ATOM     84  H   UNL     1      -3.868  12.636  17.373  0.00  0.00    +0.027 HD
ATOM     85  H   UNL     1      -3.756  11.181  18.331  0.00  0.00    +0.027 HD
BRANCH  83  86
ATOM     86  C   UNL     1      -4.546  12.870  19.404  0.00  0.00    -0.015 C 
ATOM     87  H   UNL     1      -5.600  12.886  19.700  0.00  0.00    +0.030 HD
ATOM     88  H   UNL     1      -3.967  12.398  20.202  0.00  0.00    +0.030 HD
BRANCH  86  89
ATOM     89  C   UNL     1      -4.038  14.321  19.241  0.00  0.00    +0.109 C 
ATOM     90  H   UNL     1      -4.185  14.845  20.194  0.00  0.00    +0.074 HD
BRANCH  89  91
ATOM     91  C   UNL     1      -4.822  15.096  18.138  0.00  0.00    +0.031 C 
ATOM     92  H   UNL     1      -5.564  14.387  17.743  0.00  0.00    +0.037 HD
BRANCH  91  93
ATOM     93  C   UNL     1      -3.909  15.526  16.981  0.00  0.00    -0.056 C 
ATOM     94  H   UNL     1      -4.237  15.100  16.028  0.00  0.00    +0.023 HD
ATOM     95  H   UNL     1      -2.872  15.215  17.153  0.00  0.00    +0.023 HD
ATOM     96  H   UNL     1      -3.916  16.610  16.843  0.00  0.00    +0.023 HD
ENDBRANCH  91  93
BRANCH  91  97
ATOM     97  C   UNL     1      -5.581  16.326  18.735  0.00  0.00    +0.115 C 
ATOM     98  H   UNL     1      -5.489  17.153  18.017  0.00  0.00    +0.074 HD
BRANCH  97  99
ATOM     99  C   UNL     1      -7.099  16.070  18.989  0.00  0.00    +0.013 C 
ATOM    100  H   UNL     1      -7.398  15.205  18.385  0.00  0.00    +0.038 HD
BRANCH  99 101
ATOM    101  C   UNL     1      -7.982  17.235  18.521  0.00  0.00    -0.056 C 
ATOM    102  H   UNL     1      -7.364  18.065  18.160  0.00  0.00    +0.024 HD
ATOM    103  H   UNL     1      -8.650  16.946  17.701  0.00  0.00    +0.024 HD
ATOM    104  H   UNL     1      -8.592  17.615  19.348  0.00  0.00    +0.024 HD
ENDBRANCH  99 101
BRANCH  99 105
ATOM    105  C   UNL     1      -7.399  15.793  20.448  0.00  0.00    -0.064 C 
ATOM    106  C   UNL     1      -7.695  14.572  20.917  0.00  0.00    -0.005 C 
ATOM    107  H   UNL     1      -7.344  16.651  21.110  0.00  0.00    +0.059 HD
ATOM    108  H   UNL     1      -7.747  13.729  20.228  0.00  0.00    +0.078 HD
BRANCH 106 109
ATOM    109  N   UNL     1      -7.954  14.255  22.244  0.00  0.00    -0.284 N 
ATOM    110  C   UNL     1      -6.900  13.909  23.089  0.00  0.00    +0.206 C 
ATOM    111  O   UNL     1      -5.711  13.859  22.795  0.00  0.00    -0.279 OA
ATOM    112  H   UNL     1      -7.239  13.671  24.111  0.00  0.00    +0.126 HD
BRANCH 109 113
ATOM    113  C   UNL     1      -9.306  14.284  22.779  0.00  0.00    +0.007 C 
ATOM    114  H   UNL     1      -9.307  14.826  23.730  0.00  0.00    +0.043 HD
ATOM    115  H   UNL     1      -9.994  14.790  22.093  0.00  0.00    +0.043 HD
ATOM    116  H   UNL     1      -9.663  13.259  22.927  0.00  0.00    +0.043 HD
ENDBRANCH 109 113
ENDBRANCH 106 109
ENDBRANCH  99 105
ENDBRANCH  97  99
BRANCH  97 117
ATOM    117  O   UNL     1      -4.935  16.679  19.987  0.00  0.00    -0.461 OA
BRANCH 117 118
ATOM    118  C   UNL     1      -4.242  17.852  20.015  0.00  0.00    +0.304 C 
ATOM    119  O   UNL     1      -3.088  18.008  19.642  0.00  0.00    -0.251 OA
BRANCH 118 120
ATOM    120  C   UNL     1      -5.113  18.957  20.524  0.00  0.00    +0.033 C 
ATOM    121  H   UNL     1      -4.673  19.401  21.422  0.00  0.00    +0.034 HD
ATOM    122  H   UNL     1      -5.185  19.738  19.762  0.00  0.00    +0.034 HD
ATOM    123  H   UNL     1      -6.112  18.569  20.732  0.00  0.00    +0.034 HD
ENDBRANCH 118 120
ENDBRANCH 117 118
ENDBRANCH  97 117
ENDBRANCH  91  97
ENDBRANCH  89  91
BRANCH  89 124
ATOM    124  O   UNL     1      -2.645  14.289  18.868  0.00  0.00    -0.460 OA
BRANCH 124 125
ATOM    125  C   UNL     1      -1.732  14.779  19.752  0.00  0.00    +0.324 C 
ATOM    126  O   UNL     1      -1.990  15.080  20.915  0.00  0.00    -0.249 OA
BRANCH 125 127
ATOM    127  C   UNL     1      -0.341  14.986  19.121  0.00  0.00    +0.105 C 
ATOM    128  H   UNL     1      -0.037  16.015  19.354  0.00  0.00    +0.058 HD
BRANCH 127 129
ATOM    129  C   UNL     1      -0.537  14.870  17.605  0.00  0.00    -0.039 C 
ATOM    130  H   UNL     1      -0.326  13.855  17.256  0.00  0.00    +0.025 HD
ATOM    131  H   UNL     1      -1.571  15.109  17.334  0.00  0.00    +0.025 HD
ATOM    132  H   UNL     1       0.100  15.568  17.053  0.00  0.00    +0.025 HD
ENDBRANCH 127 129
BRANCH 127 133
ATOM    133  N   UNL     1       0.688  14.050  19.671  0.00  0.00    -0.296 NA
BRANCH 133 134
ATOM    134  C   UNL     1       1.610  14.752  20.575  0.00  0.00    -0.012 C 
ATOM    135  H   UNL     1       1.945  14.106  21.391  0.00  0.00    +0.039 HD
ATOM    136  H   UNL     1       1.150  15.648  21.009  0.00  0.00    +0.039 HD
ATOM    137  H   UNL     1       2.516  15.056  20.035  0.00  0.00    +0.039 HD
ENDBRANCH 133 134
BRANCH 133 138
ATOM    138  C   UNL     1       1.467  13.398  18.613  0.00  0.00    -0.012 C 
ATOM    139  H   UNL     1       0.843  12.694  18.049  0.00  0.00    +0.039 HD
ATOM    140  H   UNL     1       1.828  14.127  17.879  0.00  0.00    +0.039 HD
ATOM    141  H   UNL     1       2.325  12.847  19.018  0.00  0.00    +0.039 HD
ENDBRANCH 133 138
ENDBRANCH 127 133
ENDBRANCH 125 127
ENDBRANCH 124 125
ENDBRANCH  89 124
ENDBRANCH  86  89
ENDBRANCH  83  86
ENDBRANCH  77  83
ENDBRANCH  75  77
BRANCH  75 142
ATOM    142  O   UNL     1      -6.272   9.482  16.238  0.00  0.00    -0.391 OA
ATOM    143  H   UNL     1      -7.174   9.755  15.997  0.00  0.00    +0.210 HD
ENDBRANCH  75 142
ENDBRANCH  69  75
ENDBRANCH  14  69
BRANCH  25 144
ATOM    144  O   UNL     1     -14.739   3.531  23.835  0.00  0.00    -0.391 OA
ATOM    145  H   UNL     1     -15.316   4.236  23.500  0.00  0.00    +0.210 HD
ENDBRANCH  25 144
BRANCH  23 146
ATOM    146  O   UNL     1     -12.043   2.035  22.028  0.00  0.00    -0.460 OA
BRANCH 146 147
ATOM    147  C   UNL     1     -12.487   0.792  22.393  0.00  0.00    +0.327 C 
ATOM    148  O   UNL     1     -13.510   0.578  23.039  0.00  0.00    -0.249 OA
BRANCH 147 149
ATOM    149  C   UNL     1     -11.514  -0.297  21.914  0.00  0.00    +0.131 C 
ATOM    150  H   UNL     1     -11.850  -1.251  22.340  0.00  0.00    +0.060 HD
BRANCH 149 151
ATOM    151  C   UNL     1     -10.135  -0.002  22.529  0.00  0.00    +0.073 C 
ATOM    152  H   UNL     1      -9.364  -0.044  21.751  0.00  0.00    +0.058 HD
ATOM    153  H   UNL     1     -10.103   0.989  22.996  0.00  0.00    +0.058 HD
BRANCH 151 154
ATOM    154  O   UNL     1      -9.831  -1.012  23.501  0.00  0.00    -0.381 OA
BRANCH 154 155
ATOM    155  C   UNL     1      -9.449  -2.234  22.883  0.00  0.00    +0.037 C 
ATOM    156  H   UNL     1      -8.927  -2.044  21.941  0.00  0.00    +0.052 HD
ATOM    157  H   UNL     1     -10.354  -2.810  22.670  0.00  0.00    +0.052 HD
ATOM    158  H   UNL     1      -8.815  -2.822  23.554  0.00  0.00    +0.052 HD
ENDBRANCH 154 155
ENDBRANCH 151 154
ENDBRANCH 149 151
BRANCH 149 159
ATOM    159  N   UNL     1     -11.432  -0.411  20.424  0.00  0.00    -0.294 NA
BRANCH 159 160
ATOM    160  C   UNL     1     -10.131   0.026  19.924  0.00  0.00    -0.012 C 
ATOM    161  H   UNL     1     -10.064   1.110  19.801  0.00  0.00    +0.039 HD
ATOM    162  H   UNL     1      -9.921  -0.449  18.964  0.00  0.00    +0.039 HD
ATOM    163  H   UNL     1      -9.326  -0.289  20.598  0.00  0.00    +0.039 HD
ENDBRANCH 159 160
BRANCH 159 164
ATOM    164  C   UNL     1     -11.769  -1.740  19.914  0.00  0.00    -0.012 C 
ATOM    165  H   UNL     1     -11.632  -2.526  20.665  0.00  0.00    +0.039 HD
ATOM    166  H   UNL     1     -11.134  -1.989  19.057  0.00  0.00    +0.039 HD
ATOM    167  H   UNL     1     -12.801  -1.778  19.552  0.00  0.00    +0.039 HD
ENDBRANCH 159 164
ENDBRANCH 149 159
ENDBRANCH 147 149
ENDBRANCH 146 147
ENDBRANCH  23 146
BRANCH   4 168
ATOM    168  O   UNL     1     -12.823   6.221  27.585  0.00  0.00    -0.376 OA
BRANCH 168 169
ATOM    169  C   UNL     1     -12.621   5.151  28.500  0.00  0.00    +0.037 C 
ATOM    170  H   UNL     1     -12.810   4.213  27.973  0.00  0.00    +0.052 HD
ATOM    171  H   UNL     1     -13.327   5.234  29.331  0.00  0.00    +0.052 HD
ATOM    172  H   UNL     1     -11.593   5.140  28.874  0.00  0.00    +0.052 HD
ENDBRANCH 168 169
ENDBRANCH   4 168
BRANCH  10 173
ATOM    173  O   UNL     1      -9.352   9.358  22.909  0.00  0.00    -0.376 OA
BRANCH 173 174
ATOM    174  C   UNL     1      -9.313   7.954  22.669  0.00  0.00    +0.037 C 
ATOM    175  H   UNL     1      -9.990   7.469  23.377  0.00  0.00    +0.052 HD
ATOM    176  H   UNL     1      -9.657   7.727  21.657  0.00  0.00    +0.052 HD
ATOM    177  H   UNL     1      -8.304   7.559  22.828  0.00  0.00    +0.052 HD
ENDBRANCH 173 174
ENDBRANCH  10 173
TORSDOF 45
ENDMDL
MODEL 6
REMARK VINA RESULT:      -4.8      4.679     11.648
REMARK  Name = Aplyronine A_conf1
REMARK  45 active torsions:
REMARK  status: ('A' for Active; 'I' for Inactive)
REMARK    1  A    between atoms: C_1  and  C_2
REMARK    2  A    between atoms: C_5  and  O_75
REMARK    3  A    between atoms: C_6  and  C_74
REMARK    4  A    between atoms: C_9  and  C_73
REMARK    5  A    between atoms: C_11  and  O_71
REMARK    6  A    between atoms: C_15  and  C_39
REMARK    7  A    between atoms: C_24  and  O_29
REMARK    8  A    between atoms: C_25  and  C_28
REMARK    9  A    between atoms: C_26  and  O_27
REMARK   10  A    between atoms: O_29  and  C_30
REMARK   11  A    between atoms: C_30  and  C_32
REMARK   12  A    between atoms: C_32  and  C_33
REMARK   13  A    between atoms: C_32  and  N_36
REMARK   14  A    between atoms: C_33  and  O_34
REMARK   15  A    between atoms: O_34  and  C_35
REMARK   16  A    between atoms: N_36  and  C_37
REMARK   17  A    between atoms: N_36  and  C_38
REMARK   18  A    between atoms: C_39  and  C_40
REMARK   19  A    between atoms: C_39  and  C_41
REMARK   20  A    between atoms: C_41  and  C_42
REMARK   21  A    between atoms: C_41  and  O_70
REMARK   22  A    between atoms: C_42  and  C_43
REMARK   23  A    between atoms: C_42  and  C_44
REMARK   24  A    between atoms: C_44  and  C_45
REMARK   25  A    between atoms: C_45  and  C_46
REMARK   26  A    between atoms: C_46  and  C_47
REMARK   27  A    between atoms: C_46  and  O_62
REMARK   28  A    between atoms: C_47  and  C_48
REMARK   29  A    between atoms: C_47  and  C_49
REMARK   30  A    between atoms: C_49  and  C_50
REMARK   31  A    between atoms: C_49  and  O_58
REMARK   32  A    between atoms: C_50  and  C_51
REMARK   33  A    between atoms: C_50  and  C_52
REMARK   34  A    between atoms: C_53  and  N_54
REMARK   35  A    between atoms: N_54  and  C_55
REMARK   36  A    between atoms: O_58  and  C_59
REMARK   37  A    between atoms: C_59  and  C_61
REMARK   38  A    between atoms: O_62  and  C_63
REMARK   39  A    between atoms: C_63  and  C_65
REMARK   40  A    between atoms: C_65  and  C_66
REMARK   41  A    between atoms: C_65  and  N_67
REMARK   42  A    between atoms: N_67  and  C_68
REMARK   43  A    between atoms: N_67  and  C_69
REMARK   44  A    between atoms: O_71  and  C_72
REMARK   45  A    between atoms: O_75  and  C_76
REMARK                            x       y       z     vdW  Elec       q    Type
REMARK                         _______ _______ _______ _____ _____    ______ ____
ROOT
ATOM      1  C   UNL     1      -8.658  14.515  23.907  0.00  0.00    -0.017 C 
ATOM      2  C   UNL     1      -7.564  13.748  23.136  0.00  0.00    -0.045 C 
ATOM      3  C   UNL     1      -6.153  14.374  23.117  0.00  0.00    -0.022 C 
ATOM      4  C   UNL     1      -5.969  15.819  22.606  0.00  0.00    +0.079 C 
ATOM      5  C   UNL     1      -6.469  16.160  21.198  0.00  0.00    -0.048 C 
ATOM      6  C   UNL     1      -6.630  15.232  20.229  0.00  0.00    -0.082 C 
ATOM      7  C   UNL     1      -7.071  15.448  18.805  0.00  0.00    -0.032 C 
ATOM      8  C   UNL     1      -8.571  15.171  18.587  0.00  0.00    -0.038 C 
ATOM      9  C   UNL     1      -9.018  13.702  18.796  0.00  0.00    -0.020 C 
ATOM     10  C   UNL     1      -8.279  12.645  17.948  0.00  0.00    +0.077 C 
ATOM     11  C   UNL     1      -9.085  11.369  17.901  0.00  0.00    -0.059 C 
ATOM     12  C   UNL     1      -9.518  10.781  16.771  0.00  0.00    -0.082 C 
ATOM     13  C   UNL     1     -10.307   9.491  16.704  0.00  0.00    +0.003 C 
ATOM     14  C   UNL     1      -9.601   8.206  17.221  0.00  0.00    +0.112 C 
ATOM     15  O   UNL     1      -9.607   8.337  18.664  0.00  0.00    -0.458 OA
ATOM     16  C   UNL     1     -10.017   7.270  19.394  0.00  0.00    +0.332 C 
ATOM     17  O   UNL     1     -10.122   6.117  19.011  0.00  0.00    -0.246 OA
ATOM     18  C   UNL     1     -10.397   7.700  20.756  0.00  0.00    +0.022 C 
ATOM     19  C   UNL     1     -11.047   8.860  20.928  0.00  0.00    -0.055 C 
ATOM     20  C   UNL     1     -11.604   9.348  22.164  0.00  0.00    -0.065 C 
ATOM     21  C   UNL     1     -10.941   9.482  23.320  0.00  0.00    -0.081 C 
ATOM     22  C   UNL     1     -11.574  10.139  24.527  0.00  0.00    +0.003 C 
ATOM     23  C   UNL     1     -10.798  11.363  25.077  0.00  0.00    +0.111 C 
ATOM     24  C   UNL     1     -10.283  12.393  24.021  0.00  0.00    +0.020 C 
ATOM     25  C   UNL     1      -9.545  13.552  24.749  0.00  0.00    +0.064 C 
ATOM     26  H   UNL     1      -8.176  15.164  24.650  0.00  0.00    +0.032 HD
ATOM     27  H   UNL     1      -7.898  13.542  22.115  0.00  0.00    +0.027 HD
ATOM     28  H   UNL     1      -7.430  12.760  23.596  0.00  0.00    +0.027 HD
ATOM     29  H   UNL     1      -5.777  14.327  24.148  0.00  0.00    +0.029 HD
ATOM     30  H   UNL     1      -5.502  13.708  22.532  0.00  0.00    +0.029 HD
ATOM     31  H   UNL     1      -4.888  16.022  22.584  0.00  0.00    +0.064 HD
ATOM     32  H   UNL     1      -6.403  14.192  20.446  0.00  0.00    +0.057 HD
ATOM     33  H   UNL     1      -6.460  14.820  18.149  0.00  0.00    +0.031 HD
ATOM     34  H   UNL     1      -6.838  16.468  18.486  0.00  0.00    +0.031 HD
ATOM     35  H   UNL     1      -9.131  15.771  19.320  0.00  0.00    +0.030 HD
ATOM     36  H   UNL     1     -10.094  13.652  18.586  0.00  0.00    +0.030 HD
ATOM     37  H   UNL     1      -8.904  13.453  19.859  0.00  0.00    +0.030 HD
ATOM     38  H   UNL     1      -8.107  13.032  16.938  0.00  0.00    +0.064 HD
ATOM     39  H   UNL     1      -9.295  10.914  18.867  0.00  0.00    +0.059 HD
ATOM     40  H   UNL     1      -9.288  11.240  15.812  0.00  0.00    +0.057 HD
ATOM     41  H   UNL     1     -10.630   9.357  15.666  0.00  0.00    +0.034 HD
ATOM     42  H   UNL     1     -11.235   9.644  17.273  0.00  0.00    +0.034 HD
ATOM     43  H   UNL     1     -10.233   7.352  16.941  0.00  0.00    +0.074 HD
ATOM     44  H   UNL     1     -10.233   6.987  21.555  0.00  0.00    +0.069 HD
ATOM     45  H   UNL     1     -11.274   9.487  20.066  0.00  0.00    +0.062 HD
ATOM     46  H   UNL     1     -12.627   9.716  22.085  0.00  0.00    +0.061 HD
ATOM     47  H   UNL     1      -9.908   9.154  23.424  0.00  0.00    +0.057 HD
ATOM     48  H   UNL     1     -11.650   9.372  25.310  0.00  0.00    +0.034 HD
ATOM     49  H   UNL     1     -12.599  10.447  24.297  0.00  0.00    +0.034 HD
ATOM     50  H   UNL     1     -11.475  11.899  25.756  0.00  0.00    +0.074 HD
ATOM     51  H   UNL     1      -9.558  11.880  23.380  0.00  0.00    +0.036 HD
ATOM     52  H   UNL     1      -8.866  13.115  25.489  0.00  0.00    +0.060 HD
ENDROOT
BRANCH   1  53
ATOM     53  C   UNL     1      -9.465  15.448  22.992  0.00  0.00    -0.060 C 
ATOM     54  H   UNL     1      -9.271  15.231  21.941  0.00  0.00    +0.023 HD
ATOM     55  H   UNL     1      -9.206  16.499  23.143  0.00  0.00    +0.023 HD
ATOM     56  H   UNL     1     -10.540  15.336  23.141  0.00  0.00    +0.023 HD
ENDBRANCH   1  53
BRANCH   5  57
ATOM     57  C   UNL     1      -6.714  17.635  20.976  0.00  0.00    -0.041 C 
ATOM     58  H   UNL     1      -6.595  18.244  21.875  0.00  0.00    +0.028 HD
ATOM     59  H   UNL     1      -6.014  18.037  20.237  0.00  0.00    +0.028 HD
ATOM     60  H   UNL     1      -7.736  17.797  20.613  0.00  0.00    +0.028 HD
ENDBRANCH   5  57
BRANCH  24  61
ATOM     61  C   UNL     1     -11.438  12.897  23.143  0.00  0.00    -0.057 C 
ATOM     62  H   UNL     1     -11.065  13.388  22.242  0.00  0.00    +0.023 HD
ATOM     63  H   UNL     1     -12.084  13.603  23.679  0.00  0.00    +0.023 HD
ATOM     64  H   UNL     1     -12.078  12.087  22.788  0.00  0.00    +0.023 HD
ENDBRANCH  24  61
BRANCH   8  65
ATOM     65  C   UNL     1      -8.998  15.677  17.204  0.00  0.00    -0.062 C 
ATOM     66  H   UNL     1      -8.639  16.694  17.018  0.00  0.00    +0.023 HD
ATOM     67  H   UNL     1      -8.608  15.027  16.412  0.00  0.00    +0.023 HD
ATOM     68  H   UNL     1     -10.089  15.687  17.117  0.00  0.00    +0.023 HD
ENDBRANCH   8  65
BRANCH  14  69
ATOM     69  C   UNL     1      -8.168   7.996  16.664  0.00  0.00    +0.020 C 
ATOM     70  H   UNL     1      -7.994   8.750  15.893  0.00  0.00    +0.036 HD
BRANCH  69  71
ATOM     71  C   UNL     1      -7.083   8.263  17.720  0.00  0.00    -0.057 C 
ATOM     72  H   UNL     1      -7.424   7.979  18.722  0.00  0.00    +0.023 HD
ATOM     73  H   UNL     1      -6.180   7.679  17.519  0.00  0.00    +0.023 HD
ATOM     74  H   UNL     1      -6.812   9.323  17.751  0.00  0.00    +0.023 HD
ENDBRANCH  69  71
BRANCH  69  75
ATOM     75  C   UNL     1      -7.937   6.583  16.050  0.00  0.00    +0.064 C 
ATOM     76  H   UNL     1      -6.936   6.584  15.601  0.00  0.00    +0.060 HD
BRANCH  75  77
ATOM     77  C   UNL     1      -8.967   6.217  14.941  0.00  0.00    -0.017 C 
ATOM     78  H   UNL     1      -9.931   6.048  15.438  0.00  0.00    +0.032 HD
BRANCH  77  79
ATOM     79  C   UNL     1      -9.193   7.406  13.996  0.00  0.00    -0.060 C 
ATOM     80  H   UNL     1      -9.398   8.334  14.535  0.00  0.00    +0.023 HD
ATOM     81  H   UNL     1     -10.047   7.212  13.337  0.00  0.00    +0.023 HD
ATOM     82  H   UNL     1      -8.318   7.568  13.358  0.00  0.00    +0.023 HD
ENDBRANCH  77  79
BRANCH  77  83
ATOM     83  C   UNL     1      -8.673   4.922  14.134  0.00  0.00    -0.045 C 
ATOM     84  H   UNL     1      -7.687   4.560  14.449  0.00  0.00    +0.027 HD
ATOM     85  H   UNL     1      -8.573   5.170  13.072  0.00  0.00    +0.027 HD
BRANCH  83  86
ATOM     86  C   UNL     1      -9.684   3.771  14.272  0.00  0.00    -0.015 C 
ATOM     87  H   UNL     1     -10.301   3.947  15.160  0.00  0.00    +0.030 HD
ATOM     88  H   UNL     1     -10.334   3.759  13.393  0.00  0.00    +0.030 HD
BRANCH  86  89
ATOM     89  C   UNL     1      -9.008   2.385  14.384  0.00  0.00    +0.109 C 
ATOM     90  H   UNL     1      -7.924   2.524  14.288  0.00  0.00    +0.074 HD
BRANCH  89  91
ATOM     91  C   UNL     1      -9.472   1.415  13.255  0.00  0.00    +0.031 C 
ATOM     92  H   UNL     1     -10.372   1.870  12.818  0.00  0.00    +0.037 HD
BRANCH  91  93
ATOM     93  C   UNL     1      -9.854   0.034  13.807  0.00  0.00    -0.056 C 
ATOM     94  H   UNL     1     -10.795   0.068  14.364  0.00  0.00    +0.023 HD
ATOM     95  H   UNL     1      -9.078  -0.358  14.474  0.00  0.00    +0.023 HD
ATOM     96  H   UNL     1     -10.007  -0.693  13.005  0.00  0.00    +0.023 HD
ENDBRANCH  91  93
BRANCH  91  97
ATOM     97  C   UNL     1      -8.389   1.285  12.133  0.00  0.00    +0.115 C 
ATOM     98  H   UNL     1      -8.328   0.225  11.851  0.00  0.00    +0.074 HD
BRANCH  97  99
ATOM     99  C   UNL     1      -8.707   2.113  10.849  0.00  0.00    +0.013 C 
ATOM    100  H   UNL     1      -9.776   2.360  10.867  0.00  0.00    +0.038 HD
BRANCH  99 101
ATOM    101  C   UNL     1      -8.483   1.313   9.558  0.00  0.00    -0.056 C 
ATOM    102  H   UNL     1      -8.778   1.904   8.684  0.00  0.00    +0.024 HD
ATOM    103  H   UNL     1      -7.432   1.033   9.422  0.00  0.00    +0.024 HD
ATOM    104  H   UNL     1      -9.088   0.400   9.559  0.00  0.00    +0.024 HD
ENDBRANCH  99 101
BRANCH  99 105
ATOM    105  C   UNL     1      -7.897   3.390  10.772  0.00  0.00    -0.064 C 
ATOM    106  C   UNL     1      -7.629   4.022   9.619  0.00  0.00    -0.005 C 
ATOM    107  H   UNL     1      -7.551   3.785  11.723  0.00  0.00    +0.059 HD
ATOM    108  H   UNL     1      -7.986   3.600   8.680  0.00  0.00    +0.078 HD
BRANCH 106 109
ATOM    109  N   UNL     1      -6.916   5.205   9.491  0.00  0.00    -0.284 N 
ATOM    110  C   UNL     1      -5.619   5.178   8.981  0.00  0.00    +0.206 C 
ATOM    111  O   UNL     1      -5.002   4.189   8.600  0.00  0.00    -0.279 OA
ATOM    112  H   UNL     1      -5.159   6.180   8.940  0.00  0.00    +0.126 HD
BRANCH 109 113
ATOM    113  C   UNL     1      -7.497   6.484   9.870  0.00  0.00    +0.007 C 
ATOM    114  H   UNL     1      -6.998   7.286   9.318  0.00  0.00    +0.043 HD
ATOM    115  H   UNL     1      -8.566   6.520   9.638  0.00  0.00    +0.043 HD
ATOM    116  H   UNL     1      -7.376   6.635  10.949  0.00  0.00    +0.043 HD
ENDBRANCH 109 113
ENDBRANCH 106 109
ENDBRANCH  99 105
ENDBRANCH  97  99
BRANCH  97 117
ATOM    117  O   UNL     1      -7.122   1.727  12.689  0.00  0.00    -0.461 OA
BRANCH 117 118
ATOM    118  C   UNL     1      -6.261   0.758  13.108  0.00  0.00    +0.304 C 
ATOM    119  O   UNL     1      -5.789   0.660  14.231  0.00  0.00    -0.251 OA
BRANCH 118 120
ATOM    120  C   UNL     1      -6.005  -0.220  12.005  0.00  0.00    +0.033 C 
ATOM    121  H   UNL     1      -5.961   0.299  11.043  0.00  0.00    +0.034 HD
ATOM    122  H   UNL     1      -5.040  -0.706  12.172  0.00  0.00    +0.034 HD
ATOM    123  H   UNL     1      -6.790  -0.980  12.001  0.00  0.00    +0.034 HD
ENDBRANCH 118 120
ENDBRANCH 117 118
ENDBRANCH  97 117
ENDBRANCH  91  97
ENDBRANCH  89  91
BRANCH  89 124
ATOM    124  O   UNL     1      -9.355   1.798  15.655  0.00  0.00    -0.460 OA
BRANCH 124 125
ATOM    125  C   UNL     1      -8.430   1.841  16.655  0.00  0.00    +0.324 C 
ATOM    126  O   UNL     1      -7.573   2.714  16.765  0.00  0.00    -0.249 OA
BRANCH 125 127
ATOM    127  C   UNL     1      -8.525   0.633  17.607  0.00  0.00    +0.105 C 
ATOM    128  H   UNL     1      -7.920   0.877  18.490  0.00  0.00    +0.058 HD
BRANCH 127 129
ATOM    129  C   UNL     1      -7.866  -0.542  16.876  0.00  0.00    -0.039 C 
ATOM    130  H   UNL     1      -8.388  -0.770  15.942  0.00  0.00    +0.025 HD
ATOM    131  H   UNL     1      -6.826  -0.302  16.628  0.00  0.00    +0.025 HD
ATOM    132  H   UNL     1      -7.840  -1.447  17.490  0.00  0.00    +0.025 HD
ENDBRANCH 127 129
BRANCH 127 133
ATOM    133  N   UNL     1      -9.927   0.357  18.053  0.00  0.00    -0.296 NA
BRANCH 133 134
ATOM    134  C   UNL     1     -10.098   0.673  19.478  0.00  0.00    -0.012 C 
ATOM    135  H   UNL     1      -9.135   0.793  19.983  0.00  0.00    +0.039 HD
ATOM    136  H   UNL     1     -10.668  -0.104  20.000  0.00  0.00    +0.039 HD
ATOM    137  H   UNL     1     -10.626   1.627  19.597  0.00  0.00    +0.039 HD
ENDBRANCH 133 134
BRANCH 133 138
ATOM    138  C   UNL     1     -10.316  -1.038  17.826  0.00  0.00    -0.012 C 
ATOM    139  H   UNL     1      -9.481  -1.612  17.407  0.00  0.00    +0.039 HD
ATOM    140  H   UNL     1     -10.575  -1.537  18.767  0.00  0.00    +0.039 HD
ATOM    141  H   UNL     1     -11.166  -1.118  17.137  0.00  0.00    +0.039 HD
ENDBRANCH 133 138
ENDBRANCH 127 133
ENDBRANCH 125 127
ENDBRANCH 124 125
ENDBRANCH  89 124
ENDBRANCH  86  89
ENDBRANCH  83  86
ENDBRANCH  77  83
ENDBRANCH  75  77
BRANCH  75 142
ATOM    142  O   UNL     1      -7.893   5.577  17.052  0.00  0.00    -0.391 OA
ATOM    143  H   UNL     1      -8.153   5.982  17.897  0.00  0.00    +0.210 HD
ENDBRANCH  75 142
ENDBRANCH  69  75
ENDBRANCH  14  69
BRANCH  25 144
ATOM    144  O   UNL     1     -10.497  14.307  25.512  0.00  0.00    -0.391 OA
ATOM    145  H   UNL     1     -10.787  15.056  24.966  0.00  0.00    +0.210 HD
ENDBRANCH  25 144
BRANCH  23 146
ATOM    146  O   UNL     1      -9.659  10.848  25.820  0.00  0.00    -0.460 OA
BRANCH 146 147
ATOM    147  C   UNL     1      -9.745  10.969  27.181  0.00  0.00    +0.327 C 
ATOM    148  O   UNL     1     -10.191  11.952  27.767  0.00  0.00    -0.249 OA
BRANCH 147 149
ATOM    149  C   UNL     1      -9.178   9.722  27.877  0.00  0.00    +0.131 C 
ATOM    150  H   UNL     1      -8.091   9.851  27.952  0.00  0.00    +0.060 HD
BRANCH 149 151
ATOM    151  C   UNL     1      -9.415   8.516  26.951  0.00  0.00    +0.073 C 
ATOM    152  H   UNL     1      -9.981   7.743  27.483  0.00  0.00    +0.058 HD
ATOM    153  H   UNL     1      -9.974   8.799  26.052  0.00  0.00    +0.058 HD
BRANCH 151 154
ATOM    154  O   UNL     1      -8.147   7.953  26.583  0.00  0.00    -0.381 OA
BRANCH 154 155
ATOM    155  C   UNL     1      -8.158   6.535  26.674  0.00  0.00    +0.037 C 
ATOM    156  H   UNL     1      -8.767   6.207  27.522  0.00  0.00    +0.052 HD
ATOM    157  H   UNL     1      -7.131   6.192  26.831  0.00  0.00    +0.052 HD
ATOM    158  H   UNL     1      -8.532   6.093  25.747  0.00  0.00    +0.052 HD
ENDBRANCH 154 155
ENDBRANCH 151 154
ENDBRANCH 149 151
BRANCH 149 159
ATOM    159  N   UNL     1      -9.753   9.483  29.238  0.00  0.00    -0.294 NA
BRANCH 159 160
ATOM    160  C   UNL     1     -11.033   8.783  29.164  0.00  0.00    -0.012 C 
ATOM    161  H   UNL     1     -11.010   7.801  29.643  0.00  0.00    +0.039 HD
ATOM    162  H   UNL     1     -11.330   8.657  28.120  0.00  0.00    +0.039 HD
ATOM    163  H   UNL     1     -11.829   9.371  29.634  0.00  0.00    +0.039 HD
ENDBRANCH 159 160
BRANCH 159 164
ATOM    164  C   UNL     1      -8.838   8.804  30.155  0.00  0.00    -0.012 C 
ATOM    165  H   UNL     1      -9.154   7.780  30.383  0.00  0.00    +0.039 HD
ATOM    166  H   UNL     1      -8.778   9.349  31.103  0.00  0.00    +0.039 HD
ATOM    167  H   UNL     1      -7.821   8.775  29.754  0.00  0.00    +0.039 HD
ENDBRANCH 159 164
ENDBRANCH 149 159
ENDBRANCH 147 149
ENDBRANCH 146 147
ENDBRANCH  23 146
BRANCH   4 168
ATOM    168  O   UNL     1      -6.579  16.711  23.552  0.00  0.00    -0.376 OA
BRANCH 168 169
ATOM    169  C   UNL     1      -5.640  17.354  24.406  0.00  0.00    +0.037 C 
ATOM    170  H   UNL     1      -4.636  17.070  24.081  0.00  0.00    +0.052 HD
ATOM    171  H   UNL     1      -5.783  17.018  25.436  0.00  0.00    +0.052 HD
ATOM    172  H   UNL     1      -5.732  18.442  24.344  0.00  0.00    +0.052 HD
ENDBRANCH 168 169
ENDBRANCH   4 168
BRANCH  10 173
ATOM    173  O   UNL     1      -7.026  12.370  18.581  0.00  0.00    -0.376 OA
BRANCH 173 174
ATOM    174  C   UNL     1      -5.991  12.029  17.664  0.00  0.00    +0.037 C 
ATOM    175  H   UNL     1      -5.397  11.223  18.104  0.00  0.00    +0.052 HD
ATOM    176  H   UNL     1      -6.414  11.666  16.724  0.00  0.00    +0.052 HD
ATOM    177  H   UNL     1      -5.333  12.885  17.482  0.00  0.00    +0.052 HD
ENDBRANCH 173 174
ENDBRANCH  10 173
TORSDOF 45
ENDMDL
MODEL 7
REMARK VINA RESULT:      -4.8      7.494     13.949
REMARK  Name = Aplyronine A_conf1
REMARK  45 active torsions:
REMARK  status: ('A' for Active; 'I' for Inactive)
REMARK    1  A    between atoms: C_1  and  C_2
REMARK    2  A    between atoms: C_5  and  O_75
REMARK    3  A    between atoms: C_6  and  C_74
REMARK    4  A    between atoms: C_9  and  C_73
REMARK    5  A    between atoms: C_11  and  O_71
REMARK    6  A    between atoms: C_15  and  C_39
REMARK    7  A    between atoms: C_24  and  O_29
REMARK    8  A    between atoms: C_25  and  C_28
REMARK    9  A    between atoms: C_26  and  O_27
REMARK   10  A    between atoms: O_29  and  C_30
REMARK   11  A    between atoms: C_30  and  C_32
REMARK   12  A    between atoms: C_32  and  C_33
REMARK   13  A    between atoms: C_32  and  N_36
REMARK   14  A    between atoms: C_33  and  O_34
REMARK   15  A    between atoms: O_34  and  C_35
REMARK   16  A    between atoms: N_36  and  C_37
REMARK   17  A    between atoms: N_36  and  C_38
REMARK   18  A    between atoms: C_39  and  C_40
REMARK   19  A    between atoms: C_39  and  C_41
REMARK   20  A    between atoms: C_41  and  C_42
REMARK   21  A    between atoms: C_41  and  O_70
REMARK   22  A    between atoms: C_42  and  C_43
REMARK   23  A    between atoms: C_42  and  C_44
REMARK   24  A    between atoms: C_44  and  C_45
REMARK   25  A    between atoms: C_45  and  C_46
REMARK   26  A    between atoms: C_46  and  C_47
REMARK   27  A    between atoms: C_46  and  O_62
REMARK   28  A    between atoms: C_47  and  C_48
REMARK   29  A    between atoms: C_47  and  C_49
REMARK   30  A    between atoms: C_49  and  C_50
REMARK   31  A    between atoms: C_49  and  O_58
REMARK   32  A    between atoms: C_50  and  C_51
REMARK   33  A    between atoms: C_50  and  C_52
REMARK   34  A    between atoms: C_53  and  N_54
REMARK   35  A    between atoms: N_54  and  C_55
REMARK   36  A    between atoms: O_58  and  C_59
REMARK   37  A    between atoms: C_59  and  C_61
REMARK   38  A    between atoms: O_62  and  C_63
REMARK   39  A    between atoms: C_63  and  C_65
REMARK   40  A    between atoms: C_65  and  C_66
REMARK   41  A    between atoms: C_65  and  N_67
REMARK   42  A    between atoms: N_67  and  C_68
REMARK   43  A    between atoms: N_67  and  C_69
REMARK   44  A    between atoms: O_71  and  C_72
REMARK   45  A    between atoms: O_75  and  C_76
REMARK                            x       y       z     vdW  Elec       q    Type
REMARK                         _______ _______ _______ _____ _____    ______ ____
ROOT
ATOM      1  C   UNL     1      -8.660   6.296   7.502  0.00  0.00    -0.017 C 
ATOM      2  C   UNL     1      -8.038   6.949   8.753  0.00  0.00    -0.045 C 
ATOM      3  C   UNL     1      -6.849   6.214   9.408  0.00  0.00    -0.022 C 
ATOM      4  C   UNL     1      -7.016   4.744   9.849  0.00  0.00    +0.079 C 
ATOM      5  C   UNL     1      -8.154   4.399  10.816  0.00  0.00    -0.048 C 
ATOM      6  C   UNL     1      -8.714   5.307  11.646  0.00  0.00    -0.082 C 
ATOM      7  C   UNL     1      -9.802   5.082  12.663  0.00  0.00    -0.032 C 
ATOM      8  C   UNL     1     -11.201   5.470  12.150  0.00  0.00    -0.038 C 
ATOM      9  C   UNL     1     -11.411   6.977  11.847  0.00  0.00    -0.020 C 
ATOM     10  C   UNL     1     -11.120   7.944  13.014  0.00  0.00    +0.077 C 
ATOM     11  C   UNL     1     -11.777   9.278  12.750  0.00  0.00    -0.059 C 
ATOM     12  C   UNL     1     -12.671   9.863  13.567  0.00  0.00    -0.082 C 
ATOM     13  C   UNL     1     -13.322  11.209  13.329  0.00  0.00    +0.003 C 
ATOM     14  C   UNL     1     -12.386  12.450  13.302  0.00  0.00    +0.112 C 
ATOM     15  O   UNL     1     -11.698  12.364  12.029  0.00  0.00    -0.458 OA
ATOM     16  C   UNL     1     -11.643  13.483  11.264  0.00  0.00    +0.332 C 
ATOM     17  O   UNL     1     -11.858  14.628  11.623  0.00  0.00    -0.246 OA
ATOM     18  C   UNL     1     -11.337  13.126   9.862  0.00  0.00    +0.022 C 
ATOM     19  C   UNL     1     -11.884  12.027   9.323  0.00  0.00    -0.055 C 
ATOM     20  C   UNL     1     -11.796  11.623   7.943  0.00  0.00    -0.065 C 
ATOM     21  C   UNL     1     -10.664  11.474   7.243  0.00  0.00    -0.081 C 
ATOM     22  C   UNL     1     -10.667  10.906   5.842  0.00  0.00    +0.003 C 
ATOM     23  C   UNL     1      -9.789   9.642   5.655  0.00  0.00    +0.111 C 
ATOM     24  C   UNL     1      -9.908   8.542   6.758  0.00  0.00    +0.020 C 
ATOM     25  C   UNL     1      -8.974   7.351   6.401  0.00  0.00    +0.064 C 
ATOM     26  H   UNL     1      -7.914   5.634   7.042  0.00  0.00    +0.032 HD
ATOM     27  H   UNL     1      -8.814   7.149   9.497  0.00  0.00    +0.027 HD
ATOM     28  H   UNL     1      -7.644   7.937   8.480  0.00  0.00    +0.027 HD
ATOM     29  H   UNL     1      -6.019   6.263   8.692  0.00  0.00    +0.029 HD
ATOM     30  H   UNL     1      -6.530   6.807  10.276  0.00  0.00    +0.029 HD
ATOM     31  H   UNL     1      -6.094   4.455  10.376  0.00  0.00    +0.064 HD
ATOM     32  H   UNL     1      -8.355   6.332  11.634  0.00  0.00    +0.057 HD
ATOM     33  H   UNL     1      -9.553   5.640  13.572  0.00  0.00    +0.031 HD
ATOM     34  H   UNL     1      -9.809   4.039  12.988  0.00  0.00    +0.031 HD
ATOM     35  H   UNL     1     -11.367   4.940  11.200  0.00  0.00    +0.030 HD
ATOM     36  H   UNL     1     -12.449   7.104  11.516  0.00  0.00    +0.030 HD
ATOM     37  H   UNL     1     -10.781   7.248  10.990  0.00  0.00    +0.030 HD
ATOM     38  H   UNL     1     -11.481   7.514  13.954  0.00  0.00    +0.064 HD
ATOM     39  H   UNL     1     -11.467   9.778  11.834  0.00  0.00    +0.059 HD
ATOM     40  H   UNL     1     -12.961   9.358  14.486  0.00  0.00    +0.057 HD
ATOM     41  H   UNL     1     -14.101  11.337  14.090  0.00  0.00    +0.034 HD
ATOM     42  H   UNL     1     -13.864  11.148  12.375  0.00  0.00    +0.034 HD
ATOM     43  H   UNL     1     -13.027  13.342  13.299  0.00  0.00    +0.074 HD
ATOM     44  H   UNL     1     -10.768  13.849   9.291  0.00  0.00    +0.069 HD
ATOM     45  H   UNL     1     -12.534  11.394   9.926  0.00  0.00    +0.062 HD
ATOM     46  H   UNL     1     -12.748  11.335   7.495  0.00  0.00    +0.061 HD
ATOM     47  H   UNL     1      -9.695  11.721   7.672  0.00  0.00    +0.057 HD
ATOM     48  H   UNL     1     -10.311  11.700   5.171  0.00  0.00    +0.034 HD
ATOM     49  H   UNL     1     -11.690  10.672   5.528  0.00  0.00    +0.034 HD
ATOM     50  H   UNL     1     -10.080   9.182   4.700  0.00  0.00    +0.074 HD
ATOM     51  H   UNL     1      -9.559   8.977   7.700  0.00  0.00    +0.036 HD
ATOM     52  H   UNL     1      -7.998   7.756   6.110  0.00  0.00    +0.060 HD
ENDROOT
BRANCH   1  53
ATOM     53  C   UNL     1      -9.859   5.402   7.851  0.00  0.00    -0.060 C 
ATOM     54  H   UNL     1     -10.756   5.722   7.320  0.00  0.00    +0.023 HD
ATOM     55  H   UNL     1     -10.103   5.435   8.915  0.00  0.00    +0.023 HD
ATOM     56  H   UNL     1      -9.687   4.360   7.573  0.00  0.00    +0.023 HD
ENDBRANCH   1  53
BRANCH   5  57
ATOM     57  C   UNL     1      -8.556   2.942  10.795  0.00  0.00    -0.041 C 
ATOM     58  H   UNL     1      -9.416   2.712  11.428  0.00  0.00    +0.028 HD
ATOM     59  H   UNL     1      -8.827   2.630   9.782  0.00  0.00    +0.028 HD
ATOM     60  H   UNL     1      -7.726   2.318  11.143  0.00  0.00    +0.028 HD
ENDBRANCH   5  57
BRANCH  24  61
ATOM     61  C   UNL     1     -11.369   8.104   6.935  0.00  0.00    -0.057 C 
ATOM     62  H   UNL     1     -11.632   7.310   6.233  0.00  0.00    +0.023 HD
ATOM     63  H   UNL     1     -12.068   8.937   6.793  0.00  0.00    +0.023 HD
ATOM     64  H   UNL     1     -11.564   7.690   7.926  0.00  0.00    +0.023 HD
ENDBRANCH  24  61
BRANCH   8  65
ATOM     65  C   UNL     1     -12.272   4.958  13.119  0.00  0.00    -0.062 C 
ATOM     66  H   UNL     1     -13.026   5.723  13.329  0.00  0.00    +0.023 HD
ATOM     67  H   UNL     1     -12.783   4.079  12.709  0.00  0.00    +0.023 HD
ATOM     68  H   UNL     1     -11.822   4.663  14.073  0.00  0.00    +0.023 HD
ENDBRANCH   8  65
BRANCH  14  69
ATOM     69  C   UNL     1     -11.394  12.529  14.493  0.00  0.00    +0.020 C 
ATOM     70  H   UNL     1     -10.962  11.535  14.636  0.00  0.00    +0.036 HD
BRANCH  69  71
ATOM     71  C   UNL     1     -10.189  13.436  14.194  0.00  0.00    -0.057 C 
ATOM     72  H   UNL     1      -9.368  13.251  14.896  0.00  0.00    +0.023 HD
ATOM     73  H   UNL     1      -9.791  13.253  13.191  0.00  0.00    +0.023 HD
ATOM     74  H   UNL     1     -10.459  14.493  14.274  0.00  0.00    +0.023 HD
ENDBRANCH  69  71
BRANCH  69  75
ATOM     75  C   UNL     1     -12.054  12.990  15.827  0.00  0.00    +0.064 C 
ATOM     76  H   UNL     1     -11.759  14.033  15.991  0.00  0.00    +0.060 HD
BRANCH  75  77
ATOM     77  C   UNL     1     -11.598  12.156  17.060  0.00  0.00    -0.017 C 
ATOM     78  H   UNL     1     -12.408  12.201  17.798  0.00  0.00    +0.032 HD
BRANCH  77  79
ATOM     79  C   UNL     1     -11.457  10.672  16.691  0.00  0.00    -0.060 C 
ATOM     80  H   UNL     1     -10.644  10.495  15.982  0.00  0.00    +0.023 HD
ATOM     81  H   UNL     1     -12.382  10.304  16.233  0.00  0.00    +0.023 HD
ATOM     82  H   UNL     1     -11.269  10.065  17.583  0.00  0.00    +0.023 HD
ENDBRANCH  77  79
BRANCH  77  83
ATOM     83  C   UNL     1     -10.326  12.662  17.795  0.00  0.00    -0.045 C 
ATOM     84  H   UNL     1     -10.413  12.355  18.844  0.00  0.00    +0.027 HD
ATOM     85  H   UNL     1     -10.323  13.757  17.806  0.00  0.00    +0.027 HD
BRANCH  83  86
ATOM     86  C   UNL     1      -8.970  12.177  17.254  0.00  0.00    -0.015 C 
ATOM     87  H   UNL     1      -8.900  11.094  17.395  0.00  0.00    +0.030 HD
ATOM     88  H   UNL     1      -8.913  12.394  16.185  0.00  0.00    +0.030 HD
BRANCH  86  89
ATOM     89  C   UNL     1      -7.767  12.861  17.944  0.00  0.00    +0.109 C 
ATOM     90  H   UNL     1      -6.911  12.822  17.259  0.00  0.00    +0.074 HD
BRANCH  89  91
ATOM     91  C   UNL     1      -7.361  12.139  19.265  0.00  0.00    +0.031 C 
ATOM     92  H   UNL     1      -7.999  11.246  19.327  0.00  0.00    +0.037 HD
BRANCH  91  93
ATOM     93  C   UNL     1      -7.634  13.009  20.501  0.00  0.00    -0.056 C 
ATOM     94  H   UNL     1      -6.912  13.827  20.585  0.00  0.00    +0.023 HD
ATOM     95  H   UNL     1      -7.588  12.419  21.423  0.00  0.00    +0.023 HD
ATOM     96  H   UNL     1      -8.618  13.482  20.452  0.00  0.00    +0.023 HD
ENDBRANCH  91  93
BRANCH  91  97
ATOM     97  C   UNL     1      -5.867  11.678  19.228  0.00  0.00    +0.115 C 
ATOM     98  H   UNL     1      -5.531  11.557  20.267  0.00  0.00    +0.074 HD
BRANCH  97  99
ATOM     99  C   UNL     1      -5.641  10.325  18.483  0.00  0.00    +0.013 C 
ATOM    100  H   UNL     1      -4.838   9.788  19.002  0.00  0.00    +0.038 HD
BRANCH  99 101
ATOM    101  C   UNL     1      -5.154  10.518  17.040  0.00  0.00    -0.056 C 
ATOM    102  H   UNL     1      -6.000  10.725  16.374  0.00  0.00    +0.024 HD
ATOM    103  H   UNL     1      -4.454  11.357  16.947  0.00  0.00    +0.024 HD
ATOM    104  H   UNL     1      -4.661   9.611  16.674  0.00  0.00    +0.024 HD
ENDBRANCH  99 101
BRANCH  99 105
ATOM    105  C   UNL     1      -6.888   9.465  18.461  0.00  0.00    -0.064 C 
ATOM    106  C   UNL     1      -6.856   8.129  18.358  0.00  0.00    -0.005 C 
ATOM    107  H   UNL     1      -7.829  10.000  18.551  0.00  0.00    +0.059 HD
ATOM    108  H   UNL     1      -5.897   7.619  18.265  0.00  0.00    +0.078 HD
BRANCH 106 109
ATOM    109  N   UNL     1      -7.962   7.290  18.358  0.00  0.00    -0.284 N 
ATOM    110  C   UNL     1      -8.119   6.354  17.336  0.00  0.00    +0.206 C 
ATOM    111  O   UNL     1      -7.357   6.161  16.395  0.00  0.00    -0.279 OA
ATOM    112  H   UNL     1      -9.041   5.758  17.446  0.00  0.00    +0.126 HD
BRANCH 109 113
ATOM    113  C   UNL     1      -8.963   7.358  19.411  0.00  0.00    +0.007 C 
ATOM    114  H   UNL     1      -9.919   6.989  19.026  0.00  0.00    +0.043 HD
ATOM    115  H   UNL     1      -8.679   6.743  20.271  0.00  0.00    +0.043 HD
ATOM    116  H   UNL     1      -9.066   8.394  19.751  0.00  0.00    +0.043 HD
ENDBRANCH 109 113
ENDBRANCH 106 109
ENDBRANCH  99 105
ENDBRANCH  97  99
BRANCH  97 117
ATOM    117  O   UNL     1      -5.098  12.722  18.573  0.00  0.00    -0.461 OA
BRANCH 117 118
ATOM    118  C   UNL     1      -4.140  13.341  19.318  0.00  0.00    +0.304 C 
ATOM    119  O   UNL     1      -4.025  13.272  20.533  0.00  0.00    -0.251 OA
BRANCH 118 120
ATOM    120  C   UNL     1      -3.196  14.089  18.429  0.00  0.00    +0.033 C 
ATOM    121  H   UNL     1      -2.675  13.396  17.763  0.00  0.00    +0.034 HD
ATOM    122  H   UNL     1      -3.765  14.789  17.811  0.00  0.00    +0.034 HD
ATOM    123  H   UNL     1      -2.486  14.650  19.040  0.00  0.00    +0.034 HD
ENDBRANCH 118 120
ENDBRANCH 117 118
ENDBRANCH  97 117
ENDBRANCH  91  97
ENDBRANCH  89  91
BRANCH  89 124
ATOM    124  O   UNL     1      -8.124  14.222  18.264  0.00  0.00    -0.460 OA
BRANCH 124 125
ATOM    125  C   UNL     1      -7.902  15.181  17.322  0.00  0.00    +0.324 C 
ATOM    126  O   UNL     1      -8.763  15.609  16.557  0.00  0.00    -0.249 OA
BRANCH 125 127
ATOM    127  C   UNL     1      -6.429  15.633  17.267  0.00  0.00    +0.105 C 
ATOM    128  H   UNL     1      -5.819  14.721  17.250  0.00  0.00    +0.058 HD
BRANCH 127 129
ATOM    129  C   UNL     1      -6.159  16.375  18.580  0.00  0.00    -0.039 C 
ATOM    130  H   UNL     1      -6.836  16.038  19.371  0.00  0.00    +0.025 HD
ATOM    131  H   UNL     1      -5.133  16.193  18.918  0.00  0.00    +0.025 HD
ATOM    132  H   UNL     1      -6.264  17.459  18.471  0.00  0.00    +0.025 HD
ENDBRANCH 127 129
BRANCH 127 133
ATOM    133  N   UNL     1      -6.118  16.436  16.043  0.00  0.00    -0.296 NA
BRANCH 133 134
ATOM    134  C   UNL     1      -5.003  15.842  15.292  0.00  0.00    -0.012 C 
ATOM    135  H   UNL     1      -4.750  16.435  14.409  0.00  0.00    +0.039 HD
ATOM    136  H   UNL     1      -5.230  14.819  14.970  0.00  0.00    +0.039 HD
ATOM    137  H   UNL     1      -4.097  15.815  15.911  0.00  0.00    +0.039 HD
ENDBRANCH 133 134
BRANCH 133 138
ATOM    138  C   UNL     1      -5.784  17.828  16.364  0.00  0.00    -0.012 C 
ATOM    139  H   UNL     1      -4.726  17.922  16.636  0.00  0.00    +0.039 HD
ATOM    140  H   UNL     1      -5.926  18.481  15.496  0.00  0.00    +0.039 HD
ATOM    141  H   UNL     1      -6.387  18.211  17.197  0.00  0.00    +0.039 HD
ENDBRANCH 133 138
ENDBRANCH 127 133
ENDBRANCH 125 127
ENDBRANCH 124 125
ENDBRANCH  89 124
ENDBRANCH  86  89
ENDBRANCH  83  86
ENDBRANCH  77  83
ENDBRANCH  75  77
BRANCH  75 142
ATOM    142  O   UNL     1     -13.471  13.016  15.728  0.00  0.00    -0.391 OA
ATOM    143  H   UNL     1     -13.826  13.311  16.584  0.00  0.00    +0.210 HD
ENDBRANCH  75 142
ENDBRANCH  69  75
ENDBRANCH  14  69
BRANCH  25 144
ATOM    144  O   UNL     1      -9.475   6.698   5.227  0.00  0.00    -0.391 OA
ATOM    145  H   UNL     1      -8.954   5.889   5.093  0.00  0.00    +0.210 HD
ENDBRANCH  25 144
BRANCH  23 146
ATOM    146  O   UNL     1      -8.406  10.088   5.588  0.00  0.00    -0.460 OA
BRANCH 146 147
ATOM    147  C   UNL     1      -7.987  10.511   4.355  0.00  0.00    +0.327 C 
ATOM    148  O   UNL     1      -8.652  10.427   3.325  0.00  0.00    -0.249 OA
BRANCH 147 149
ATOM    149  C   UNL     1      -6.559  11.073   4.427  0.00  0.00    +0.131 C 
ATOM    150  H   UNL     1      -6.266  11.097   5.485  0.00  0.00    +0.060 HD
BRANCH 149 151
ATOM    151  C   UNL     1      -6.603  12.536   3.951  0.00  0.00    +0.073 C 
ATOM    152  H   UNL     1      -5.953  12.662   3.077  0.00  0.00    +0.058 HD
ATOM    153  H   UNL     1      -7.618  12.842   3.676  0.00  0.00    +0.058 HD
BRANCH 151 154
ATOM    154  O   UNL     1      -6.102  13.382   4.995  0.00  0.00    -0.381 OA
BRANCH 154 155
ATOM    155  C   UNL     1      -6.806  14.616   5.051  0.00  0.00    +0.037 C 
ATOM    156  H   UNL     1      -7.263  14.844   4.084  0.00  0.00    +0.052 HD
ATOM    157  H   UNL     1      -6.092  15.409   5.293  0.00  0.00    +0.052 HD
ATOM    158  H   UNL     1      -7.570  14.588   5.833  0.00  0.00    +0.052 HD
ENDBRANCH 154 155
ENDBRANCH 151 154
ENDBRANCH 149 151
BRANCH 149 159
ATOM    159  N   UNL     1      -5.562  10.277   3.645  0.00  0.00    -0.294 NA
BRANCH 159 160
ATOM    160  C   UNL     1      -4.193  10.584   4.052  0.00  0.00    -0.012 C 
ATOM    161  H   UNL     1      -3.481  10.529   3.225  0.00  0.00    +0.039 HD
ATOM    162  H   UNL     1      -3.873   9.895   4.836  0.00  0.00    +0.039 HD
ATOM    163  H   UNL     1      -4.129  11.587   4.488  0.00  0.00    +0.039 HD
ENDBRANCH 159 160
BRANCH 159 164
ATOM    164  C   UNL     1      -5.806   8.835   3.674  0.00  0.00    -0.012 C 
ATOM    165  H   UNL     1      -4.979   8.260   3.243  0.00  0.00    +0.039 HD
ATOM    166  H   UNL     1      -6.708   8.592   3.102  0.00  0.00    +0.039 HD
ATOM    167  H   UNL     1      -5.985   8.481   4.693  0.00  0.00    +0.039 HD
ENDBRANCH 159 164
ENDBRANCH 149 159
ENDBRANCH 147 149
ENDBRANCH 146 147
ENDBRANCH  23 146
BRANCH   4 168
ATOM    168  O   UNL     1      -7.137   3.932   8.670  0.00  0.00    -0.376 OA
BRANCH 168 169
ATOM    169  C   UNL     1      -5.997   3.118   8.427  0.00  0.00    +0.037 C 
ATOM    170  H   UNL     1      -6.337   2.086   8.304  0.00  0.00    +0.052 HD
ATOM    171  H   UNL     1      -5.318   3.163   9.282  0.00  0.00    +0.052 HD
ATOM    172  H   UNL     1      -5.480   3.425   7.513  0.00  0.00    +0.052 HD
ENDBRANCH 168 169
ENDBRANCH   4 168
BRANCH  10 173
ATOM    173  O   UNL     1      -9.704   8.140  13.082  0.00  0.00    -0.376 OA
BRANCH 173 174
ATOM    174  C   UNL     1      -9.226   8.360  14.405  0.00  0.00    +0.037 C 
ATOM    175  H   UNL     1      -8.176   8.656  14.344  0.00  0.00    +0.052 HD
ATOM    176  H   UNL     1      -9.781   9.171  14.885  0.00  0.00    +0.052 HD
ATOM    177  H   UNL     1      -9.294   7.446  15.003  0.00  0.00    +0.052 HD
ENDBRANCH 173 174
ENDBRANCH  10 173
TORSDOF 45
ENDMDL
MODEL 8
REMARK VINA RESULT:      -4.7      2.594     14.195
REMARK  Name = Aplyronine A_conf1
REMARK  45 active torsions:
REMARK  status: ('A' for Active; 'I' for Inactive)
REMARK    1  A    between atoms: C_1  and  C_2
REMARK    2  A    between atoms: C_5  and  O_75
REMARK    3  A    between atoms: C_6  and  C_74
REMARK    4  A    between atoms: C_9  and  C_73
REMARK    5  A    between atoms: C_11  and  O_71
REMARK    6  A    between atoms: C_15  and  C_39
REMARK    7  A    between atoms: C_24  and  O_29
REMARK    8  A    between atoms: C_25  and  C_28
REMARK    9  A    between atoms: C_26  and  O_27
REMARK   10  A    between atoms: O_29  and  C_30
REMARK   11  A    between atoms: C_30  and  C_32
REMARK   12  A    between atoms: C_32  and  C_33
REMARK   13  A    between atoms: C_32  and  N_36
REMARK   14  A    between atoms: C_33  and  O_34
REMARK   15  A    between atoms: O_34  and  C_35
REMARK   16  A    between atoms: N_36  and  C_37
REMARK   17  A    between atoms: N_36  and  C_38
REMARK   18  A    between atoms: C_39  and  C_40
REMARK   19  A    between atoms: C_39  and  C_41
REMARK   20  A    between atoms: C_41  and  C_42
REMARK   21  A    between atoms: C_41  and  O_70
REMARK   22  A    between atoms: C_42  and  C_43
REMARK   23  A    between atoms: C_42  and  C_44
REMARK   24  A    between atoms: C_44  and  C_45
REMARK   25  A    between atoms: C_45  and  C_46
REMARK   26  A    between atoms: C_46  and  C_47
REMARK   27  A    between atoms: C_46  and  O_62
REMARK   28  A    between atoms: C_47  and  C_48
REMARK   29  A    between atoms: C_47  and  C_49
REMARK   30  A    between atoms: C_49  and  C_50
REMARK   31  A    between atoms: C_49  and  O_58
REMARK   32  A    between atoms: C_50  and  C_51
REMARK   33  A    between atoms: C_50  and  C_52
REMARK   34  A    between atoms: C_53  and  N_54
REMARK   35  A    between atoms: N_54  and  C_55
REMARK   36  A    between atoms: O_58  and  C_59
REMARK   37  A    between atoms: C_59  and  C_61
REMARK   38  A    between atoms: O_62  and  C_63
REMARK   39  A    between atoms: C_63  and  C_65
REMARK   40  A    between atoms: C_65  and  C_66
REMARK   41  A    between atoms: C_65  and  N_67
REMARK   42  A    between atoms: N_67  and  C_68
REMARK   43  A    between atoms: N_67  and  C_69
REMARK   44  A    between atoms: O_71  and  C_72
REMARK   45  A    between atoms: O_75  and  C_76
REMARK                            x       y       z     vdW  Elec       q    Type
REMARK                         _______ _______ _______ _____ _____    ______ ____
ROOT
ATOM      1  C   UNL     1     -12.720   5.391  26.057  0.00  0.00    -0.017 C 
ATOM      2  C   UNL     1     -11.279   5.812  25.704  0.00  0.00    -0.045 C 
ATOM      3  C   UNL     1     -10.341   6.149  26.882  0.00  0.00    -0.022 C 
ATOM      4  C   UNL     1     -10.761   7.228  27.904  0.00  0.00    +0.079 C 
ATOM      5  C   UNL     1     -11.106   8.628  27.382  0.00  0.00    -0.048 C 
ATOM      6  C   UNL     1     -10.645   9.109  26.206  0.00  0.00    -0.082 C 
ATOM      7  C   UNL     1     -10.877  10.473  25.610  0.00  0.00    -0.032 C 
ATOM      8  C   UNL     1     -12.012  10.493  24.569  0.00  0.00    -0.038 C 
ATOM      9  C   UNL     1     -11.756   9.667  23.282  0.00  0.00    -0.020 C 
ATOM     10  C   UNL     1     -10.475  10.021  22.498  0.00  0.00    +0.077 C 
ATOM     11  C   UNL     1     -10.575   9.494  21.087  0.00  0.00    -0.059 C 
ATOM     12  C   UNL     1     -10.479  10.253  19.980  0.00  0.00    -0.082 C 
ATOM     13  C   UNL     1     -10.554   9.740  18.558  0.00  0.00    +0.003 C 
ATOM     14  C   UNL     1      -9.436   8.760  18.103  0.00  0.00    +0.112 C 
ATOM     15  O   UNL     1      -9.757   7.506  18.757  0.00  0.00    -0.458 OA
ATOM     16  C   UNL     1      -9.747   6.379  18.002  0.00  0.00    +0.332 C 
ATOM     17  O   UNL     1      -9.236   6.237  16.904  0.00  0.00    -0.246 OA
ATOM     18  C   UNL     1     -10.516   5.310  18.673  0.00  0.00    +0.022 C 
ATOM     19  C   UNL     1     -11.649   5.616  19.322  0.00  0.00    -0.055 C 
ATOM     20  C   UNL     1     -12.576   4.678  19.902  0.00  0.00    -0.065 C 
ATOM     21  C   UNL     1     -12.266   3.713  20.778  0.00  0.00    -0.081 C 
ATOM     22  C   UNL     1     -13.333   2.871  21.441  0.00  0.00    +0.003 C 
ATOM     23  C   UNL     1     -13.323   2.919  22.990  0.00  0.00    +0.111 C 
ATOM     24  C   UNL     1     -13.168   4.329  23.643  0.00  0.00    +0.020 C 
ATOM     25  C   UNL     1     -13.193   4.187  25.191  0.00  0.00    +0.064 C 
ATOM     26  H   UNL     1     -12.734   5.010  27.087  0.00  0.00    +0.032 HD
ATOM     27  H   UNL     1     -11.294   6.637  24.987  0.00  0.00    +0.027 HD
ATOM     28  H   UNL     1     -10.786   4.985  25.176  0.00  0.00    +0.027 HD
ATOM     29  H   UNL     1     -10.174   5.211  27.427  0.00  0.00    +0.029 HD
ATOM     30  H   UNL     1      -9.364   6.426  26.460  0.00  0.00    +0.029 HD
ATOM     31  H   UNL     1      -9.913   7.377  28.588  0.00  0.00    +0.064 HD
ATOM     32  H   UNL     1     -10.003   8.484  25.591  0.00  0.00    +0.057 HD
ATOM     33  H   UNL     1      -9.939  10.827  25.170  0.00  0.00    +0.031 HD
ATOM     34  H   UNL     1     -11.091  11.200  26.398  0.00  0.00    +0.031 HD
ATOM     35  H   UNL     1     -12.905  10.058  25.041  0.00  0.00    +0.030 HD
ATOM     36  H   UNL     1     -12.631   9.793  22.631  0.00  0.00    +0.030 HD
ATOM     37  H   UNL     1     -11.729   8.603  23.553  0.00  0.00    +0.030 HD
ATOM     38  H   UNL     1     -10.327  11.107  22.497  0.00  0.00    +0.064 HD
ATOM     39  H   UNL     1     -10.717   8.419  20.998  0.00  0.00    +0.059 HD
ATOM     40  H   UNL     1     -10.323  11.325  20.083  0.00  0.00    +0.057 HD
ATOM     41  H   UNL     1     -10.589  10.611  17.895  0.00  0.00    +0.034 HD
ATOM     42  H   UNL     1     -11.531   9.251  18.438  0.00  0.00    +0.034 HD
ATOM     43  H   UNL     1      -9.540   8.629  17.017  0.00  0.00    +0.074 HD
ATOM     44  H   UNL     1     -10.183   4.293  18.505  0.00  0.00    +0.069 HD
ATOM     45  H   UNL     1     -11.984   6.651  19.368  0.00  0.00    +0.062 HD
ATOM     46  H   UNL     1     -13.621   4.863  19.653  0.00  0.00    +0.061 HD
ATOM     47  H   UNL     1     -11.235   3.524  21.073  0.00  0.00    +0.057 HD
ATOM     48  H   UNL     1     -13.181   1.835  21.107  0.00  0.00    +0.034 HD
ATOM     49  H   UNL     1     -14.326   3.167  21.087  0.00  0.00    +0.034 HD
ATOM     50  H   UNL     1     -14.280   2.501  23.334  0.00  0.00    +0.074 HD
ATOM     51  H   UNL     1     -12.188   4.724  23.355  0.00  0.00    +0.036 HD
ATOM     52  H   UNL     1     -12.531   3.360  25.471  0.00  0.00    +0.060 HD
ENDROOT
BRANCH   1  53
ATOM     53  C   UNL     1     -13.693   6.580  26.035  0.00  0.00    -0.060 C 
ATOM     54  H   UNL     1     -13.935   6.907  27.046  0.00  0.00    +0.023 HD
ATOM     55  H   UNL     1     -14.642   6.327  25.557  0.00  0.00    +0.023 HD
ATOM     56  H   UNL     1     -13.270   7.444  25.520  0.00  0.00    +0.023 HD
ENDBRANCH   1  53
BRANCH   5  57
ATOM     57  C   UNL     1     -11.963   9.439  28.326  0.00  0.00    -0.041 C 
ATOM     58  H   UNL     1     -12.754   8.862  28.812  0.00  0.00    +0.028 HD
ATOM     59  H   UNL     1     -11.356   9.867  29.130  0.00  0.00    +0.028 HD
ATOM     60  H   UNL     1     -12.450  10.257  27.783  0.00  0.00    +0.028 HD
ENDBRANCH   5  57
BRANCH  24  61
ATOM     61  C   UNL     1     -14.250   5.290  23.128  0.00  0.00    -0.057 C 
ATOM     62  H   UNL     1     -14.031   5.625  22.112  0.00  0.00    +0.023 HD
ATOM     63  H   UNL     1     -14.354   6.174  23.768  0.00  0.00    +0.023 HD
ATOM     64  H   UNL     1     -15.234   4.821  23.072  0.00  0.00    +0.023 HD
ENDBRANCH  24  61
BRANCH   8  65
ATOM     65  C   UNL     1     -12.374  11.941  24.221  0.00  0.00    -0.062 C 
ATOM     66  H   UNL     1     -13.451  12.063  24.070  0.00  0.00    +0.023 HD
ATOM     67  H   UNL     1     -12.061  12.625  25.019  0.00  0.00    +0.023 HD
ATOM     68  H   UNL     1     -11.870  12.255  23.301  0.00  0.00    +0.023 HD
ENDBRANCH   8  65
BRANCH  14  69
ATOM     69  C   UNL     1      -7.996   9.234  18.434  0.00  0.00    +0.020 C 
ATOM     70  H   UNL     1      -8.058  10.261  18.804  0.00  0.00    +0.036 HD
BRANCH  69  71
ATOM     71  C   UNL     1      -7.369   8.442  19.592  0.00  0.00    -0.057 C 
ATOM     72  H   UNL     1      -6.275   8.429  19.520  0.00  0.00    +0.023 HD
ATOM     73  H   UNL     1      -7.614   8.889  20.560  0.00  0.00    +0.023 HD
ATOM     74  H   UNL     1      -7.711   7.402  19.593  0.00  0.00    +0.023 HD
ENDBRANCH  69  71
BRANCH  69  75
ATOM     75  C   UNL     1      -7.030   9.194  17.213  0.00  0.00    +0.064 C 
ATOM     76  H   UNL     1      -6.843   8.138  16.982  0.00  0.00    +0.060 HD
BRANCH  75  77
ATOM     77  C   UNL     1      -5.660   9.881  17.489  0.00  0.00    -0.017 C 
ATOM     78  H   UNL     1      -5.118   9.247  18.202  0.00  0.00    +0.032 HD
BRANCH  77  79
ATOM     79  C   UNL     1      -4.798   9.906  16.219  0.00  0.00    -0.060 C 
ATOM     80  H   UNL     1      -3.826   9.427  16.366  0.00  0.00    +0.023 HD
ATOM     81  H   UNL     1      -4.612  10.938  15.904  0.00  0.00    +0.023 HD
ATOM     82  H   UNL     1      -5.306   9.397  15.393  0.00  0.00    +0.023 HD
ENDBRANCH  77  79
BRANCH  77  83
ATOM     83  C   UNL     1      -5.721  11.292  18.138  0.00  0.00    -0.045 C 
ATOM     84  H   UNL     1      -5.859  11.149  19.216  0.00  0.00    +0.027 HD
ATOM     85  H   UNL     1      -6.619  11.813  17.791  0.00  0.00    +0.027 HD
BRANCH  83  86
ATOM     86  C   UNL     1      -4.509  12.213  17.917  0.00  0.00    -0.015 C 
ATOM     87  H   UNL     1      -3.624  11.744  18.359  0.00  0.00    +0.030 HD
ATOM     88  H   UNL     1      -4.341  12.332  16.843  0.00  0.00    +0.030 HD
BRANCH  86  89
ATOM     89  C   UNL     1      -4.702  13.620  18.528  0.00  0.00    +0.109 C 
ATOM     90  H   UNL     1      -4.562  14.362  17.732  0.00  0.00    +0.074 HD
BRANCH  89  91
ATOM     91  C   UNL     1      -3.663  13.917  19.652  0.00  0.00    +0.031 C 
ATOM     92  H   UNL     1      -2.850  13.191  19.510  0.00  0.00    +0.037 HD
BRANCH  91  93
ATOM     93  C   UNL     1      -4.257  13.704  21.052  0.00  0.00    -0.056 C 
ATOM     94  H   UNL     1      -3.776  14.346  21.797  0.00  0.00    +0.023 HD
ATOM     95  H   UNL     1      -4.147  12.664  21.379  0.00  0.00    +0.023 HD
ATOM     96  H   UNL     1      -5.320  13.956  21.082  0.00  0.00    +0.023 HD
ENDBRANCH  91  93
BRANCH  91  97
ATOM     97  C   UNL     1      -3.069  15.358  19.514  0.00  0.00    +0.115 C 
ATOM     98  H   UNL     1      -2.993  15.784  20.524  0.00  0.00    +0.074 HD
BRANCH  97  99
ATOM     99  C   UNL     1      -1.652  15.397  18.862  0.00  0.00    +0.013 C 
ATOM    100  H   UNL     1      -1.607  16.280  18.213  0.00  0.00    +0.038 HD
BRANCH  99 101
ATOM    101  C   UNL     1      -1.387  14.192  17.949  0.00  0.00    -0.056 C 
ATOM    102  H   UNL     1      -0.309  14.057  17.794  0.00  0.00    +0.024 HD
ATOM    103  H   UNL     1      -1.774  13.258  18.372  0.00  0.00    +0.024 HD
ATOM    104  H   UNL     1      -1.843  14.344  16.965  0.00  0.00    +0.024 HD
ENDBRANCH  99 101
BRANCH  99 105
ATOM    105  C   UNL     1      -0.545  15.474  19.893  0.00  0.00    -0.064 C 
ATOM    106  C   UNL     1       0.711  15.072  19.653  0.00  0.00    -0.005 C 
ATOM    107  H   UNL     1      -0.827  15.898  20.853  0.00  0.00    +0.059 HD
ATOM    108  H   UNL     1       0.964  14.647  18.682  0.00  0.00    +0.078 HD
BRANCH 106 109
ATOM    109  N   UNL     1       1.769  15.142  20.550  0.00  0.00    -0.284 N 
ATOM    110  C   UNL     1       2.642  16.228  20.505  0.00  0.00    +0.206 C 
ATOM    111  O   UNL     1       2.582  17.185  19.740  0.00  0.00    -0.279 OA
ATOM    112  H   UNL     1       3.442  16.159  21.260  0.00  0.00    +0.126 HD
BRANCH 109 113
ATOM    113  C   UNL     1       1.984  14.106  21.548  0.00  0.00    +0.007 C 
ATOM    114  H   UNL     1       2.166  14.573  22.521  0.00  0.00    +0.043 HD
ATOM    115  H   UNL     1       1.110  13.452  21.639  0.00  0.00    +0.043 HD
ATOM    116  H   UNL     1       2.843  13.490  21.258  0.00  0.00    +0.043 HD
ENDBRANCH 109 113
ENDBRANCH 106 109
ENDBRANCH  99 105
ENDBRANCH  97  99
BRANCH  97 117
ATOM    117  O   UNL     1      -3.991  16.141  18.710  0.00  0.00    -0.461 OA
BRANCH 117 118
ATOM    118  C   UNL     1      -4.557  17.228  19.305  0.00  0.00    +0.304 C 
ATOM    119  O   UNL     1      -5.577  17.224  19.977  0.00  0.00    -0.251 OA
BRANCH 118 120
ATOM    120  C   UNL     1      -3.720  18.445  19.063  0.00  0.00    +0.033 C 
ATOM    121  H   UNL     1      -3.482  18.935  20.012  0.00  0.00    +0.034 HD
ATOM    122  H   UNL     1      -2.779  18.146  18.593  0.00  0.00    +0.034 HD
ATOM    123  H   UNL     1      -4.250  19.127  18.396  0.00  0.00    +0.034 HD
ENDBRANCH 118 120
ENDBRANCH 117 118
ENDBRANCH  97 117
ENDBRANCH  91  97
ENDBRANCH  89  91
BRANCH  89 124
ATOM    124  O   UNL     1      -6.024  13.704  19.100  0.00  0.00    -0.460 OA
BRANCH 124 125
ATOM    125  C   UNL     1      -6.971  14.413  18.425  0.00  0.00    +0.324 C 
ATOM    126  O   UNL     1      -6.734  15.143  17.466  0.00  0.00    -0.249 OA
BRANCH 125 127
ATOM    127  C   UNL     1      -8.378  14.259  19.036  0.00  0.00    +0.105 C 
ATOM    128  H   UNL     1      -8.626  15.220  19.506  0.00  0.00    +0.058 HD
BRANCH 127 129
ATOM    129  C   UNL     1      -8.254  13.199  20.136  0.00  0.00    -0.039 C 
ATOM    130  H   UNL     1      -9.058  12.459  20.065  0.00  0.00    +0.025 HD
ATOM    131  H   UNL     1      -7.301  12.667  20.048  0.00  0.00    +0.025 HD
ATOM    132  H   UNL     1      -8.275  13.640  21.137  0.00  0.00    +0.025 HD
ENDBRANCH 127 129
BRANCH 127 133
ATOM    133  N   UNL     1      -9.422  13.949  18.011  0.00  0.00    -0.296 NA
BRANCH 133 134
ATOM    134  C   UNL     1     -10.739  13.768  18.637  0.00  0.00    -0.012 C 
ATOM    135  H   UNL     1     -11.416  14.594  18.399  0.00  0.00    +0.039 HD
ATOM    136  H   UNL     1     -10.663  13.686  19.728  0.00  0.00    +0.039 HD
ATOM    137  H   UNL     1     -11.222  12.859  18.256  0.00  0.00    +0.039 HD
ENDBRANCH 133 134
BRANCH 133 138
ATOM    138  C   UNL     1      -9.097  12.748  17.235  0.00  0.00    -0.012 C 
ATOM    139  H   UNL     1      -8.360  12.975  16.456  0.00  0.00    +0.039 HD
ATOM    140  H   UNL     1      -8.633  11.981  17.865  0.00  0.00    +0.039 HD
ATOM    141  H   UNL     1      -9.985  12.321  16.752  0.00  0.00    +0.039 HD
ENDBRANCH 133 138
ENDBRANCH 127 133
ENDBRANCH 125 127
ENDBRANCH 124 125
ENDBRANCH  89 124
ENDBRANCH  86  89
ENDBRANCH  83  86
ENDBRANCH  77  83
ENDBRANCH  75  77
BRANCH  75 142
ATOM    142  O   UNL     1      -7.638   9.727  16.045  0.00  0.00    -0.391 OA
ATOM    143  H   UNL     1      -7.234   9.296  15.272  0.00  0.00    +0.210 HD
ENDBRANCH  75 142
ENDBRANCH  69  75
ENDBRANCH  14  69
BRANCH  25 144
ATOM    144  O   UNL     1     -14.504   3.775  25.603  0.00  0.00    -0.391 OA
ATOM    145  H   UNL     1     -14.543   3.834  26.571  0.00  0.00    +0.210 HD
ENDBRANCH  25 144
BRANCH  23 146
ATOM    146  O   UNL     1     -12.226   2.075  23.438  0.00  0.00    -0.460 OA
BRANCH 146 147
ATOM    147  C   UNL     1     -12.596   0.953  24.131  0.00  0.00    +0.327 C 
ATOM    148  O   UNL     1     -13.680   0.386  24.013  0.00  0.00    -0.249 OA
BRANCH 147 149
ATOM    149  C   UNL     1     -11.485   0.520  25.100  0.00  0.00    +0.131 C 
ATOM    150  H   UNL     1     -11.944   0.382  26.088  0.00  0.00    +0.060 HD
BRANCH 149 151
ATOM    151  C   UNL     1     -10.493   1.688  25.235  0.00  0.00    +0.073 C 
ATOM    152  H   UNL     1      -9.679   1.570  24.510  0.00  0.00    +0.058 HD
ATOM    153  H   UNL     1     -10.979   2.654  25.057  0.00  0.00    +0.058 HD
BRANCH 151 154
ATOM    154  O   UNL     1      -9.918   1.663  26.548  0.00  0.00    -0.381 OA
BRANCH 154 155
ATOM    155  C   UNL     1     -10.686   2.425  27.471  0.00  0.00    +0.037 C 
ATOM    156  H   UNL     1     -11.331   1.774  28.067  0.00  0.00    +0.052 HD
ATOM    157  H   UNL     1     -11.316   3.117  26.904  0.00  0.00    +0.052 HD
ATOM    158  H   UNL     1     -10.032   3.010  28.124  0.00  0.00    +0.052 HD
ENDBRANCH 154 155
ENDBRANCH 151 154
ENDBRANCH 149 151
BRANCH 149 159
ATOM    159  N   UNL     1     -10.790  -0.739  24.687  0.00  0.00    -0.294 NA
BRANCH 159 160
ATOM    160  C   UNL     1     -11.516  -1.925  25.134  0.00  0.00    -0.012 C 
ATOM    161  H   UNL     1     -12.097  -2.394  24.336  0.00  0.00    +0.039 HD
ATOM    162  H   UNL     1     -12.191  -1.663  25.952  0.00  0.00    +0.039 HD
ATOM    163  H   UNL     1     -10.829  -2.676  25.539  0.00  0.00    +0.039 HD
ENDBRANCH 159 160
BRANCH 159 164
ATOM    164  C   UNL     1     -10.500  -0.811  23.255  0.00  0.00    -0.012 C 
ATOM    165  H   UNL     1     -11.285  -0.353  22.644  0.00  0.00    +0.039 HD
ATOM    166  H   UNL     1     -10.406  -1.856  22.940  0.00  0.00    +0.039 HD
ATOM    167  H   UNL     1      -9.546  -0.332  23.016  0.00  0.00    +0.039 HD
ENDBRANCH 159 164
ENDBRANCH 149 159
ENDBRANCH 147 149
ENDBRANCH 146 147
ENDBRANCH  23 146
BRANCH   4 168
ATOM    168  O   UNL     1     -11.871   6.721  28.661  0.00  0.00    -0.376 OA
BRANCH 168 169
ATOM    169  C   UNL     1     -11.505   5.701  29.583  0.00  0.00    +0.037 C 
ATOM    170  H   UNL     1     -10.472   5.410  29.375  0.00  0.00    +0.052 HD
ATOM    171  H   UNL     1     -12.148   4.828  29.446  0.00  0.00    +0.052 HD
ATOM    172  H   UNL     1     -11.564   6.060  30.614  0.00  0.00    +0.052 HD
ENDBRANCH 168 169
ENDBRANCH   4 168
BRANCH  10 173
ATOM    173  O   UNL     1      -9.371   9.382  23.146  0.00  0.00    -0.376 OA
BRANCH 173 174
ATOM    174  C   UNL     1      -9.359   7.968  22.980  0.00  0.00    +0.037 C 
ATOM    175  H   UNL     1      -9.950   7.724  22.093  0.00  0.00    +0.052 HD
ATOM    176  H   UNL     1      -8.340   7.607  22.820  0.00  0.00    +0.052 HD
ATOM    177  H   UNL     1      -9.809   7.469  23.844  0.00  0.00    +0.052 HD
ENDBRANCH 173 174
ENDBRANCH  10 173
TORSDOF 45
ENDMDL
MODEL 9
REMARK VINA RESULT:      -4.7      2.489     13.671
REMARK  Name = Aplyronine A_conf1
REMARK  45 active torsions:
REMARK  status: ('A' for Active; 'I' for Inactive)
REMARK    1  A    between atoms: C_1  and  C_2
REMARK    2  A    between atoms: C_5  and  O_75
REMARK    3  A    between atoms: C_6  and  C_74
REMARK    4  A    between atoms: C_9  and  C_73
REMARK    5  A    between atoms: C_11  and  O_71
REMARK    6  A    between atoms: C_15  and  C_39
REMARK    7  A    between atoms: C_24  and  O_29
REMARK    8  A    between atoms: C_25  and  C_28
REMARK    9  A    between atoms: C_26  and  O_27
REMARK   10  A    between atoms: O_29  and  C_30
REMARK   11  A    between atoms: C_30  and  C_32
REMARK   12  A    between atoms: C_32  and  C_33
REMARK   13  A    between atoms: C_32  and  N_36
REMARK   14  A    between atoms: C_33  and  O_34
REMARK   15  A    between atoms: O_34  and  C_35
REMARK   16  A    between atoms: N_36  and  C_37
REMARK   17  A    between atoms: N_36  and  C_38
REMARK   18  A    between atoms: C_39  and  C_40
REMARK   19  A    between atoms: C_39  and  C_41
REMARK   20  A    between atoms: C_41  and  C_42
REMARK   21  A    between atoms: C_41  and  O_70
REMARK   22  A    between atoms: C_42  and  C_43
REMARK   23  A    between atoms: C_42  and  C_44
REMARK   24  A    between atoms: C_44  and  C_45
REMARK   25  A    between atoms: C_45  and  C_46
REMARK   26  A    between atoms: C_46  and  C_47
REMARK   27  A    between atoms: C_46  and  O_62
REMARK   28  A    between atoms: C_47  and  C_48
REMARK   29  A    between atoms: C_47  and  C_49
REMARK   30  A    between atoms: C_49  and  C_50
REMARK   31  A    between atoms: C_49  and  O_58
REMARK   32  A    between atoms: C_50  and  C_51
REMARK   33  A    between atoms: C_50  and  C_52
REMARK   34  A    between atoms: C_53  and  N_54
REMARK   35  A    between atoms: N_54  and  C_55
REMARK   36  A    between atoms: O_58  and  C_59
REMARK   37  A    between atoms: C_59  and  C_61
REMARK   38  A    between atoms: O_62  and  C_63
REMARK   39  A    between atoms: C_63  and  C_65
REMARK   40  A    between atoms: C_65  and  C_66
REMARK   41  A    between atoms: C_65  and  N_67
REMARK   42  A    between atoms: N_67  and  C_68
REMARK   43  A    between atoms: N_67  and  C_69
REMARK   44  A    between atoms: O_71  and  C_72
REMARK   45  A    between atoms: O_75  and  C_76
REMARK                            x       y       z     vdW  Elec       q    Type
REMARK                         _______ _______ _______ _____ _____    ______ ____
ROOT
ATOM      1  C   UNL     1     -12.753   5.349  25.979  0.00  0.00    -0.017 C 
ATOM      2  C   UNL     1     -11.306   5.748  25.626  0.00  0.00    -0.045 C 
ATOM      3  C   UNL     1     -10.363   6.076  26.804  0.00  0.00    -0.022 C 
ATOM      4  C   UNL     1     -10.769   7.165  27.821  0.00  0.00    +0.079 C 
ATOM      5  C   UNL     1     -11.093   8.567  27.294  0.00  0.00    -0.048 C 
ATOM      6  C   UNL     1     -10.625   9.037  26.117  0.00  0.00    -0.082 C 
ATOM      7  C   UNL     1     -10.837  10.402  25.516  0.00  0.00    -0.032 C 
ATOM      8  C   UNL     1     -11.971  10.435  24.475  0.00  0.00    -0.038 C 
ATOM      9  C   UNL     1     -11.727   9.601  23.191  0.00  0.00    -0.020 C 
ATOM     10  C   UNL     1     -10.440   9.935  22.406  0.00  0.00    +0.077 C 
ATOM     11  C   UNL     1     -10.547   9.404  20.996  0.00  0.00    -0.059 C 
ATOM     12  C   UNL     1     -10.440  10.158  19.887  0.00  0.00    -0.082 C 
ATOM     13  C   UNL     1     -10.522   9.640  18.467  0.00  0.00    +0.003 C 
ATOM     14  C   UNL     1      -9.417   8.643  18.016  0.00  0.00    +0.112 C 
ATOM     15  O   UNL     1      -9.756   7.397  18.674  0.00  0.00    -0.458 OA
ATOM     16  C   UNL     1      -9.761   6.267  17.923  0.00  0.00    +0.332 C 
ATOM     17  O   UNL     1      -9.252   6.114  16.826  0.00  0.00    -0.246 OA
ATOM     18  C   UNL     1     -10.546   5.211  18.597  0.00  0.00    +0.022 C 
ATOM     19  C   UNL     1     -11.675   5.535  19.245  0.00  0.00    -0.055 C 
ATOM     20  C   UNL     1     -12.615   4.613  19.828  0.00  0.00    -0.065 C 
ATOM     21  C   UNL     1     -12.320   3.647  20.707  0.00  0.00    -0.081 C 
ATOM     22  C   UNL     1     -13.399   2.822  21.372  0.00  0.00    +0.003 C 
ATOM     23  C   UNL     1     -13.390   2.875  22.921  0.00  0.00    +0.111 C 
ATOM     24  C   UNL     1     -13.215   4.285  23.569  0.00  0.00    +0.020 C 
ATOM     25  C   UNL     1     -13.243   4.149  25.117  0.00  0.00    +0.064 C 
ATOM     26  H   UNL     1     -12.773   4.972  27.011  0.00  0.00    +0.032 HD
ATOM     27  H   UNL     1     -11.309   6.571  24.906  0.00  0.00    +0.027 HD
ATOM     28  H   UNL     1     -10.824   4.913  25.101  0.00  0.00    +0.027 HD
ATOM     29  H   UNL     1     -10.210   5.137  27.352  0.00  0.00    +0.029 HD
ATOM     30  H   UNL     1      -9.383   6.338  26.381  0.00  0.00    +0.029 HD
ATOM     31  H   UNL     1      -9.919   7.304  28.505  0.00  0.00    +0.064 HD
ATOM     32  H   UNL     1      -9.992   8.401  25.504  0.00  0.00    +0.057 HD
ATOM     33  H   UNL     1      -9.894  10.742  25.076  0.00  0.00    +0.031 HD
ATOM     34  H   UNL     1     -11.041  11.135  26.301  0.00  0.00    +0.031 HD
ATOM     35  H   UNL     1     -12.871  10.014  24.948  0.00  0.00    +0.030 HD
ATOM     36  H   UNL     1     -12.599   9.737  22.538  0.00  0.00    +0.030 HD
ATOM     37  H   UNL     1     -11.714   8.538  23.465  0.00  0.00    +0.030 HD
ATOM     38  H   UNL     1     -10.277  11.018  22.401  0.00  0.00    +0.064 HD
ATOM     39  H   UNL     1     -10.704   8.330  20.912  0.00  0.00    +0.059 HD
ATOM     40  H   UNL     1     -10.269  11.228  19.987  0.00  0.00    +0.057 HD
ATOM     41  H   UNL     1     -10.544  10.510  17.801  0.00  0.00    +0.034 HD
ATOM     42  H   UNL     1     -11.505   9.165  18.348  0.00  0.00    +0.034 HD
ATOM     43  H   UNL     1      -9.522   8.510  16.931  0.00  0.00    +0.074 HD
ATOM     44  H   UNL     1     -10.228   4.189  18.432  0.00  0.00    +0.069 HD
ATOM     45  H   UNL     1     -11.995   6.575  19.286  0.00  0.00    +0.062 HD
ATOM     46  H   UNL     1     -13.658   4.812  19.577  0.00  0.00    +0.061 HD
ATOM     47  H   UNL     1     -11.292   3.443  21.003  0.00  0.00    +0.057 HD
ATOM     48  H   UNL     1     -13.262   1.783  21.041  0.00  0.00    +0.034 HD
ATOM     49  H   UNL     1     -14.387   3.131  21.016  0.00  0.00    +0.034 HD
ATOM     50  H   UNL     1     -14.352   2.472  23.266  0.00  0.00    +0.074 HD
ATOM     51  H   UNL     1     -12.229   4.665  23.280  0.00  0.00    +0.036 HD
ATOM     52  H   UNL     1     -12.592   3.313  25.400  0.00  0.00    +0.060 HD
ENDROOT
BRANCH   1  53
ATOM     53  C   UNL     1     -13.709   6.551  25.953  0.00  0.00    -0.060 C 
ATOM     54  H   UNL     1     -14.728   6.248  26.192  0.00  0.00    +0.023 HD
ATOM     55  H   UNL     1     -13.751   7.023  24.968  0.00  0.00    +0.023 HD
ATOM     56  H   UNL     1     -13.430   7.312  26.684  0.00  0.00    +0.023 HD
ENDBRANCH   1  53
BRANCH   5  57
ATOM     57  C   UNL     1     -11.940   9.394  28.235  0.00  0.00    -0.041 C 
ATOM     58  H   UNL     1     -11.428   9.677  29.158  0.00  0.00    +0.028 HD
ATOM     59  H   UNL     1     -12.250  10.328  27.756  0.00  0.00    +0.028 HD
ATOM     60  H   UNL     1     -12.837   8.835  28.524  0.00  0.00    +0.028 HD
ENDBRANCH   5  57
BRANCH  24  61
ATOM     61  C   UNL     1     -14.283   5.260  23.050  0.00  0.00    -0.057 C 
ATOM     62  H   UNL     1     -15.218   4.741  22.829  0.00  0.00    +0.023 HD
ATOM     63  H   UNL     1     -13.956   5.784  22.145  0.00  0.00    +0.023 HD
ATOM     64  H   UNL     1     -14.543   6.024  23.784  0.00  0.00    +0.023 HD
ENDBRANCH  24  61
BRANCH   8  65
ATOM     65  C   UNL     1     -12.312  11.887  24.122  0.00  0.00    -0.062 C 
ATOM     66  H   UNL     1     -11.806  12.593  24.787  0.00  0.00    +0.023 HD
ATOM     67  H   UNL     1     -12.020  12.118  23.091  0.00  0.00    +0.023 HD
ATOM     68  H   UNL     1     -13.390  12.063  24.207  0.00  0.00    +0.023 HD
ENDBRANCH   8  65
BRANCH  14  69
ATOM     69  C   UNL     1      -7.971   9.098  18.346  0.00  0.00    +0.020 C 
ATOM     70  H   UNL     1      -8.013  10.141  18.670  0.00  0.00    +0.036 HD
BRANCH  69  71
ATOM     71  C   UNL     1      -7.377   8.343  19.547  0.00  0.00    -0.057 C 
ATOM     72  H   UNL     1      -7.887   7.386  19.707  0.00  0.00    +0.023 HD
ATOM     73  H   UNL     1      -6.320   8.112  19.388  0.00  0.00    +0.023 HD
ATOM     74  H   UNL     1      -7.471   8.926  20.468  0.00  0.00    +0.023 HD
ENDBRANCH  69  71
BRANCH  69  75
ATOM     75  C   UNL     1      -6.990   8.982  17.142  0.00  0.00    +0.064 C 
ATOM     76  H   UNL     1      -6.696   7.928  17.063  0.00  0.00    +0.060 HD
BRANCH  75  77
ATOM     77  C   UNL     1      -5.698   9.835  17.315  0.00  0.00    -0.017 C 
ATOM     78  H   UNL     1      -5.098   9.357  18.099  0.00  0.00    +0.032 HD
BRANCH  77  79
ATOM     79  C   UNL     1      -4.837   9.782  16.045  0.00  0.00    -0.060 C 
ATOM     80  H   UNL     1      -5.416   9.986  15.140  0.00  0.00    +0.023 HD
ATOM     81  H   UNL     1      -4.387   8.790  15.931  0.00  0.00    +0.023 HD
ATOM     82  H   UNL     1      -4.020  10.509  16.098  0.00  0.00    +0.023 HD
ENDBRANCH  77  79
BRANCH  77  83
ATOM     83  C   UNL     1      -5.906  11.305  17.776  0.00  0.00    -0.045 C 
ATOM     84  H   UNL     1      -6.625  11.287  18.603  0.00  0.00    +0.027 HD
ATOM     85  H   UNL     1      -6.390  11.872  16.975  0.00  0.00    +0.027 HD
BRANCH  83  86
ATOM     86  C   UNL     1      -4.655  12.075  18.231  0.00  0.00    -0.015 C 
ATOM     87  H   UNL     1      -4.312  11.662  19.185  0.00  0.00    +0.030 HD
ATOM     88  H   UNL     1      -3.863  11.942  17.489  0.00  0.00    +0.030 HD
BRANCH  86  89
ATOM     89  C   UNL     1      -4.907  13.592  18.392  0.00  0.00    +0.109 C 
ATOM     90  H   UNL     1      -5.300  13.769  19.400  0.00  0.00    +0.074 HD
BRANCH  89  91
ATOM     91  C   UNL     1      -5.954  14.124  17.366  0.00  0.00    +0.031 C 
ATOM     92  H   UNL     1      -6.382  13.233  16.884  0.00  0.00    +0.037 HD
BRANCH  91  93
ATOM     93  C   UNL     1      -5.301  14.988  16.277  0.00  0.00    -0.056 C 
ATOM     94  H   UNL     1      -4.607  15.719  16.703  0.00  0.00    +0.023 HD
ATOM     95  H   UNL     1      -6.053  15.533  15.695  0.00  0.00    +0.023 HD
ATOM     96  H   UNL     1      -4.711  14.384  15.583  0.00  0.00    +0.023 HD
ENDBRANCH  91  93
BRANCH  91  97
ATOM     97  C   UNL     1      -7.106  14.904  18.078  0.00  0.00    +0.115 C 
ATOM     98  H   UNL     1      -6.645  15.685  18.699  0.00  0.00    +0.074 HD
BRANCH  97  99
ATOM     99  C   UNL     1      -8.106  15.592  17.097  0.00  0.00    +0.013 C 
ATOM    100  H   UNL     1      -7.626  15.641  16.112  0.00  0.00    +0.038 HD
BRANCH  99 101
ATOM    101  C   UNL     1      -8.415  17.044  17.487  0.00  0.00    -0.056 C 
ATOM    102  H   UNL     1      -8.027  17.736  16.729  0.00  0.00    +0.024 HD
ATOM    103  H   UNL     1      -9.492  17.229  17.576  0.00  0.00    +0.024 HD
ATOM    104  H   UNL     1      -7.938  17.298  18.439  0.00  0.00    +0.024 HD
ENDBRANCH  99 101
BRANCH  99 105
ATOM    105  C   UNL     1      -9.413  14.834  16.982  0.00  0.00    -0.064 C 
ATOM    106  C   UNL     1      -9.713  14.041  15.944  0.00  0.00    -0.005 C 
ATOM    107  H   UNL     1     -10.102  14.958  17.813  0.00  0.00    +0.059 HD
ATOM    108  H   UNL     1      -9.004  13.938  15.123  0.00  0.00    +0.078 HD
BRANCH 106 109
ATOM    109  N   UNL     1     -10.881  13.305  15.798  0.00  0.00    -0.284 N 
ATOM    110  C   UNL     1     -10.808  11.934  15.554  0.00  0.00    +0.206 C 
ATOM    111  O   UNL     1      -9.788  11.260  15.460  0.00  0.00    -0.279 OA
ATOM    112  H   UNL     1     -11.802  11.470  15.449  0.00  0.00    +0.126 HD
BRANCH 109 113
ATOM    113  C   UNL     1     -12.188  13.933  15.904  0.00  0.00    +0.007 C 
ATOM    114  H   UNL     1     -12.906  13.381  15.288  0.00  0.00    +0.043 HD
ATOM    115  H   UNL     1     -12.549  13.930  16.937  0.00  0.00    +0.043 HD
ATOM    116  H   UNL     1     -12.123  14.974  15.567  0.00  0.00    +0.043 HD
ENDBRANCH 109 113
ENDBRANCH 106 109
ENDBRANCH  99 105
ENDBRANCH  97  99
BRANCH  97 117
ATOM    117  O   UNL     1      -7.827  13.962  18.917  0.00  0.00    -0.461 OA
BRANCH 117 118
ATOM    118  C   UNL     1      -7.975  14.293  20.230  0.00  0.00    +0.304 C 
ATOM    119  O   UNL     1      -7.891  15.419  20.696  0.00  0.00    -0.251 OA
BRANCH 118 120
ATOM    120  C   UNL     1      -8.311  13.077  21.036  0.00  0.00    +0.033 C 
ATOM    121  H   UNL     1      -8.591  13.363  22.053  0.00  0.00    +0.034 HD
ATOM    122  H   UNL     1      -9.165  12.569  20.580  0.00  0.00    +0.034 HD
ATOM    123  H   UNL     1      -7.456  12.397  21.045  0.00  0.00    +0.034 HD
ENDBRANCH 118 120
ENDBRANCH 117 118
ENDBRANCH  97 117
ENDBRANCH  91  97
ENDBRANCH  89  91
BRANCH  89 124
ATOM    124  O   UNL     1      -3.666  14.297  18.178  0.00  0.00    -0.460 OA
BRANCH 124 125
ATOM    125  C   UNL     1      -3.122  14.970  19.230  0.00  0.00    +0.324 C 
ATOM    126  O   UNL     1      -2.038  14.695  19.739  0.00  0.00    -0.249 OA
BRANCH 125 127
ATOM    127  C   UNL     1      -4.044  16.082  19.767  0.00  0.00    +0.105 C 
ATOM    128  H   UNL     1      -5.061  15.841  19.429  0.00  0.00    +0.058 HD
BRANCH 127 129
ATOM    129  C   UNL     1      -3.598  17.378  19.080  0.00  0.00    -0.039 C 
ATOM    130  H   UNL     1      -2.521  17.534  19.191  0.00  0.00    +0.025 HD
ATOM    131  H   UNL     1      -3.823  17.339  18.009  0.00  0.00    +0.025 HD
ATOM    132  H   UNL     1      -4.120  18.255  19.477  0.00  0.00    +0.025 HD
ENDBRANCH 127 129
BRANCH 127 133
ATOM    133  N   UNL     1      -4.046  16.159  21.261  0.00  0.00    -0.296 NA
BRANCH 133 134
ATOM    134  C   UNL     1      -4.597  14.931  21.852  0.00  0.00    -0.012 C 
ATOM    135  H   UNL     1      -5.234  14.394  21.144  0.00  0.00    +0.039 HD
ATOM    136  H   UNL     1      -5.182  15.142  22.755  0.00  0.00    +0.039 HD
ATOM    137  H   UNL     1      -3.787  14.240  22.118  0.00  0.00    +0.039 HD
ENDBRANCH 133 134
BRANCH 133 138
ATOM    138  C   UNL     1      -4.812  17.308  21.756  0.00  0.00    -0.012 C 
ATOM    139  H   UNL     1      -4.489  18.233  21.262  0.00  0.00    +0.039 HD
ATOM    140  H   UNL     1      -5.878  17.206  21.523  0.00  0.00    +0.039 HD
ATOM    141  H   UNL     1      -4.697  17.440  22.839  0.00  0.00    +0.039 HD
ENDBRANCH 133 138
ENDBRANCH 127 133
ENDBRANCH 125 127
ENDBRANCH 124 125
ENDBRANCH  89 124
ENDBRANCH  86  89
ENDBRANCH  83  86
ENDBRANCH  77  83
ENDBRANCH  75  77
BRANCH  75 142
ATOM    142  O   UNL     1      -7.633   9.280  15.911  0.00  0.00    -0.391 OA
ATOM    143  H   UNL     1      -8.060   8.467  15.590  0.00  0.00    +0.210 HD
ENDBRANCH  75 142
ENDBRANCH  69  75
ENDBRANCH  14  69
BRANCH  25 144
ATOM    144  O   UNL     1     -14.559   3.757  25.530  0.00  0.00    -0.391 OA
ATOM    145  H   UNL     1     -15.063   4.564  25.723  0.00  0.00    +0.210 HD
ENDBRANCH  25 144
BRANCH  23 146
ATOM    146  O   UNL     1     -12.305   2.017  23.372  0.00  0.00    -0.460 OA
BRANCH 146 147
ATOM    147  C   UNL     1     -12.671   1.009  24.224  0.00  0.00    +0.327 C 
ATOM    148  O   UNL     1     -13.785   0.492  24.254  0.00  0.00    -0.249 OA
BRANCH 147 149
ATOM    149  C   UNL     1     -11.511   0.637  25.159  0.00  0.00    +0.131 C 
ATOM    150  H   UNL     1     -11.905   0.618  26.184  0.00  0.00    +0.060 HD
BRANCH 149 151
ATOM    151  C   UNL     1     -10.477   1.775  25.107  0.00  0.00    +0.073 C 
ATOM    152  H   UNL     1      -9.727   1.562  24.336  0.00  0.00    +0.058 HD
ATOM    153  H   UNL     1     -10.947   2.738  24.877  0.00  0.00    +0.058 HD
BRANCH 151 154
ATOM    154  O   UNL     1      -9.799   1.849  26.369  0.00  0.00    -0.381 OA
BRANCH 154 155
ATOM    155  C   UNL     1     -10.694   2.170  27.426  0.00  0.00    +0.037 C 
ATOM    156  H   UNL     1     -11.597   1.555  27.368  0.00  0.00    +0.052 HD
ATOM    157  H   UNL     1     -10.982   3.221  27.326  0.00  0.00    +0.052 HD
ATOM    158  H   UNL     1     -10.208   2.036  28.396  0.00  0.00    +0.052 HD
ENDBRANCH 154 155
ENDBRANCH 151 154
ENDBRANCH 149 151
BRANCH 149 159
ATOM    159  N   UNL     1     -10.883  -0.683  24.836  0.00  0.00    -0.294 NA
BRANCH 159 160
ATOM    160  C   UNL     1     -11.646  -1.793  25.401  0.00  0.00    -0.012 C 
ATOM    161  H   UNL     1     -11.460  -1.938  26.468  0.00  0.00    +0.039 HD
ATOM    162  H   UNL     1     -11.406  -2.718  24.873  0.00  0.00    +0.039 HD
ATOM    163  H   UNL     1     -12.722  -1.638  25.263  0.00  0.00    +0.039 HD
ENDBRANCH 159 160
BRANCH 159 164
ATOM    164  C   UNL     1     -10.640  -0.887  23.408  0.00  0.00    -0.012 C 
ATOM    165  H   UNL     1     -11.137  -0.135  22.785  0.00  0.00    +0.039 HD
ATOM    166  H   UNL     1     -11.013  -1.869  23.098  0.00  0.00    +0.039 HD
ATOM    167  H   UNL     1      -9.570  -0.880  23.180  0.00  0.00    +0.039 HD
ENDBRANCH 159 164
ENDBRANCH 149 159
ENDBRANCH 147 149
ENDBRANCH 146 147
ENDBRANCH  23 146
BRANCH   4 168
ATOM    168  O   UNL     1     -11.886   6.675  28.580  0.00  0.00    -0.376 OA
BRANCH 168 169
ATOM    169  C   UNL     1     -11.536   5.650  29.501  0.00  0.00    +0.037 C 
ATOM    170  H   UNL     1     -12.181   4.789  29.311  0.00  0.00    +0.052 HD
ATOM    171  H   UNL     1     -11.706   5.995  30.524  0.00  0.00    +0.052 HD
ATOM    172  H   UNL     1     -10.495   5.341  29.371  0.00  0.00    +0.052 HD
ENDBRANCH 168 169
ENDBRANCH   4 168
BRANCH  10 173
ATOM    173  O   UNL     1      -9.345   9.282  23.057  0.00  0.00    -0.376 OA
BRANCH 173 174
ATOM    174  C   UNL     1      -9.348   7.868  22.886  0.00  0.00    +0.037 C 
ATOM    175  H   UNL     1      -8.384   7.574  22.463  0.00  0.00    +0.052 HD
ATOM    176  H   UNL     1      -9.465   7.364  23.849  0.00  0.00    +0.052 HD
ATOM    177  H   UNL     1     -10.139   7.559  22.195  0.00  0.00    +0.052 HD
ENDBRANCH 173 174
ENDBRANCH  10 173
TORSDOF 45
ENDMDL
MODEL 10
REMARK VINA RESULT:      -4.7      6.632     12.284
REMARK  Name = Aplyronine A_conf1
REMARK  45 active torsions:
REMARK  status: ('A' for Active; 'I' for Inactive)
REMARK    1  A    between atoms: C_1  and  C_2
REMARK    2  A    between atoms: C_5  and  O_75
REMARK    3  A    between atoms: C_6  and  C_74
REMARK    4  A    between atoms: C_9  and  C_73
REMARK    5  A    between atoms: C_11  and  O_71
REMARK    6  A    between atoms: C_15  and  C_39
REMARK    7  A    between atoms: C_24  and  O_29
REMARK    8  A    between atoms: C_25  and  C_28
REMARK    9  A    between atoms: C_26  and  O_27
REMARK   10  A    between atoms: O_29  and  C_30
REMARK   11  A    between atoms: C_30  and  C_32
REMARK   12  A    between atoms: C_32  and  C_33
REMARK   13  A    between atoms: C_32  and  N_36
REMARK   14  A    between atoms: C_33  and  O_34
REMARK   15  A    between atoms: O_34  and  C_35
REMARK   16  A    between atoms: N_36  and  C_37
REMARK   17  A    between atoms: N_36  and  C_38
REMARK   18  A    between atoms: C_39  and  C_40
REMARK   19  A    between atoms: C_39  and  C_41
REMARK   20  A    between atoms: C_41  and  C_42
REMARK   21  A    between atoms: C_41  and  O_70
REMARK   22  A    between atoms: C_42  and  C_43
REMARK   23  A    between atoms: C_42  and  C_44
REMARK   24  A    between atoms: C_44  and  C_45
REMARK   25  A    between atoms: C_45  and  C_46
REMARK   26  A    between atoms: C_46  and  C_47
REMARK   27  A    between atoms: C_46  and  O_62
REMARK   28  A    between atoms: C_47  and  C_48
REMARK   29  A    between atoms: C_47  and  C_49
REMARK   30  A    between atoms: C_49  and  C_50
REMARK   31  A    between atoms: C_49  and  O_58
REMARK   32  A    between atoms: C_50  and  C_51
REMARK   33  A    between atoms: C_50  and  C_52
REMARK   34  A    between atoms: C_53  and  N_54
REMARK   35  A    between atoms: N_54  and  C_55
REMARK   36  A    between atoms: O_58  and  C_59
REMARK   37  A    between atoms: C_59  and  C_61
REMARK   38  A    between atoms: O_62  and  C_63
REMARK   39  A    between atoms: C_63  and  C_65
REMARK   40  A    between atoms: C_65  and  C_66
REMARK   41  A    between atoms: C_65  and  N_67
REMARK   42  A    between atoms: N_67  and  C_68
REMARK   43  A    between atoms: N_67  and  C_69
REMARK   44  A    between atoms: O_71  and  C_72
REMARK   45  A    between atoms: O_75  and  C_76
REMARK                            x       y       z     vdW  Elec       q    Type
REMARK                         _______ _______ _______ _____ _____    ______ ____
ROOT
ATOM      1  C   UNL     1      -8.829  16.216  21.410  0.00  0.00    -0.017 C 
ATOM      2  C   UNL     1      -9.578  15.440  20.307  0.00  0.00    -0.045 C 
ATOM      3  C   UNL     1     -11.031  15.869  20.014  0.00  0.00    -0.022 C 
ATOM      4  C   UNL     1     -12.063  15.891  21.162  0.00  0.00    +0.079 C 
ATOM      5  C   UNL     1     -12.283  14.605  21.966  0.00  0.00    -0.048 C 
ATOM      6  C   UNL     1     -12.004  13.376  21.478  0.00  0.00    -0.082 C 
ATOM      7  C   UNL     1     -12.215  12.044  22.150  0.00  0.00    -0.032 C 
ATOM      8  C   UNL     1     -10.940  11.492  22.814  0.00  0.00    -0.038 C 
ATOM      9  C   UNL     1      -9.781  11.135  21.848  0.00  0.00    -0.020 C 
ATOM     10  C   UNL     1     -10.125  10.133  20.725  0.00  0.00    +0.077 C 
ATOM     11  C   UNL     1      -8.856   9.538  20.163  0.00  0.00    -0.059 C 
ATOM     12  C   UNL     1      -8.578   8.222  20.131  0.00  0.00    -0.082 C 
ATOM     13  C   UNL     1      -7.323   7.607  19.551  0.00  0.00    +0.003 C 
ATOM     14  C   UNL     1      -7.086   7.795  18.026  0.00  0.00    +0.112 C 
ATOM     15  O   UNL     1      -6.681   9.179  17.885  0.00  0.00    -0.458 OA
ATOM     16  C   UNL     1      -5.585   9.444  17.130  0.00  0.00    +0.332 C 
ATOM     17  O   UNL     1      -5.051   8.697  16.328  0.00  0.00    -0.246 OA
ATOM     18  C   UNL     1      -5.054  10.784  17.455  0.00  0.00    +0.022 C 
ATOM     19  C   UNL     1      -5.052  11.206  18.728  0.00  0.00    -0.055 C 
ATOM     20  C   UNL     1      -4.448  12.417  19.222  0.00  0.00    -0.065 C 
ATOM     21  C   UNL     1      -4.676  13.651  18.753  0.00  0.00    -0.081 C 
ATOM     22  C   UNL     1      -4.104  14.876  19.431  0.00  0.00    +0.003 C 
ATOM     23  C   UNL     1      -5.161  15.917  19.881  0.00  0.00    +0.111 C 
ATOM     24  C   UNL     1      -6.428  15.356  20.603  0.00  0.00    +0.020 C 
ATOM     25  C   UNL     1      -7.364  16.535  20.992  0.00  0.00    +0.064 C 
ATOM     26  H   UNL     1      -9.300  17.200  21.531  0.00  0.00    +0.032 HD
ATOM     27  H   UNL     1      -9.535  14.367  20.508  0.00  0.00    +0.027 HD
ATOM     28  H   UNL     1      -9.046  15.573  19.355  0.00  0.00    +0.027 HD
ATOM     29  H   UNL     1     -10.978  16.878  19.584  0.00  0.00    +0.029 HD
ATOM     30  H   UNL     1     -11.412  15.223  19.211  0.00  0.00    +0.029 HD
ATOM     31  H   UNL     1     -13.041  16.123  20.717  0.00  0.00    +0.064 HD
ATOM     32  H   UNL     1     -11.600  13.281  20.474  0.00  0.00    +0.057 HD
ATOM     33  H   UNL     1     -12.606  11.337  21.411  0.00  0.00    +0.031 HD
ATOM     34  H   UNL     1     -13.013  12.116  22.894  0.00  0.00    +0.031 HD
ATOM     35  H   UNL     1     -10.551  12.271  23.487  0.00  0.00    +0.030 HD
ATOM     36  H   UNL     1      -8.958  10.737  22.455  0.00  0.00    +0.030 HD
ATOM     37  H   UNL     1      -9.407  12.064  21.398  0.00  0.00    +0.030 HD
ATOM     38  H   UNL     1     -10.781   9.348  21.115  0.00  0.00    +0.064 HD
ATOM     39  H   UNL     1      -8.149  10.254  19.748  0.00  0.00    +0.059 HD
ATOM     40  H   UNL     1      -9.301   7.517  20.537  0.00  0.00    +0.057 HD
ATOM     41  H   UNL     1      -7.331   6.541  19.806  0.00  0.00    +0.034 HD
ATOM     42  H   UNL     1      -6.469   8.025  20.101  0.00  0.00    +0.034 HD
ATOM     43  H   UNL     1      -6.243   7.150  17.745  0.00  0.00    +0.074 HD
ATOM     44  H   UNL     1      -4.574  11.325  16.649  0.00  0.00    +0.069 HD
ATOM     45  H   UNL     1      -5.458  10.567  19.511  0.00  0.00    +0.062 HD
ATOM     46  H   UNL     1      -3.832  12.285  20.112  0.00  0.00    +0.061 HD
ATOM     47  H   UNL     1      -5.312  13.820  17.885  0.00  0.00    +0.057 HD
ATOM     48  H   UNL     1      -3.409  15.344  18.720  0.00  0.00    +0.034 HD
ATOM     49  H   UNL     1      -3.506  14.584  20.301  0.00  0.00    +0.034 HD
ATOM     50  H   UNL     1      -4.663  16.604  20.579  0.00  0.00    +0.074 HD
ATOM     51  H   UNL     1      -6.963  14.720  19.890  0.00  0.00    +0.036 HD
ATOM     52  H   UNL     1      -7.455  17.201  20.126  0.00  0.00    +0.060 HD
ENDROOT
BRANCH   1  53
ATOM     53  C   UNL     1      -8.937  15.526  22.778  0.00  0.00    -0.060 C 
ATOM     54  H   UNL     1      -8.475  14.539  22.758  0.00  0.00    +0.023 HD
ATOM     55  H   UNL     1      -9.976  15.374  23.082  0.00  0.00    +0.023 HD
ATOM     56  H   UNL     1      -8.431  16.092  23.562  0.00  0.00    +0.023 HD
ENDBRANCH   1  53
BRANCH   5  57
ATOM     57  C   UNL     1     -12.891  14.832  23.331  0.00  0.00    -0.041 C 
ATOM     58  H   UNL     1     -12.871  13.950  23.976  0.00  0.00    +0.028 HD
ATOM     59  H   UNL     1     -12.351  15.618  23.869  0.00  0.00    +0.028 HD
ATOM     60  H   UNL     1     -13.939  15.133  23.231  0.00  0.00    +0.028 HD
ENDBRANCH   5  57
BRANCH  24  61
ATOM     61  C   UNL     1      -6.031  14.502  21.816  0.00  0.00    -0.057 C 
ATOM     62  H   UNL     1      -5.611  15.119  22.614  0.00  0.00    +0.023 HD
ATOM     63  H   UNL     1      -5.298  13.730  21.553  0.00  0.00    +0.023 HD
ATOM     64  H   UNL     1      -6.885  13.991  22.265  0.00  0.00    +0.023 HD
ENDBRANCH  24  61
BRANCH   8  65
ATOM     65  C   UNL     1     -11.293  10.295  23.704  0.00  0.00    -0.062 C 
ATOM     66  H   UNL     1     -12.019   9.633  23.220  0.00  0.00    +0.023 HD
ATOM     67  H   UNL     1     -10.399   9.707  23.941  0.00  0.00    +0.023 HD
ATOM     68  H   UNL     1     -11.728  10.632  24.651  0.00  0.00    +0.023 HD
ENDBRANCH   8  65
BRANCH  14  69
ATOM     69  C   UNL     1      -8.315   7.457  17.141  0.00  0.00    +0.020 C 
ATOM     70  H   UNL     1      -9.109   7.089  17.797  0.00  0.00    +0.036 HD
BRANCH  69  71
ATOM     71  C   UNL     1      -8.914   8.703  16.468  0.00  0.00    -0.057 C 
ATOM     72  H   UNL     1      -8.185   9.520  16.421  0.00  0.00    +0.023 HD
ATOM     73  H   UNL     1      -9.216   8.493  15.438  0.00  0.00    +0.023 HD
ATOM     74  H   UNL     1      -9.786   9.070  17.018  0.00  0.00    +0.023 HD
ENDBRANCH  69  71
BRANCH  69  75
ATOM     75  C   UNL     1      -8.023   6.385  16.050  0.00  0.00    +0.064 C 
ATOM     76  H   UNL     1      -8.106   6.883  15.076  0.00  0.00    +0.060 HD
BRANCH  75  77
ATOM     77  C   UNL     1      -9.025   5.193  16.073  0.00  0.00    -0.017 C 
ATOM     78  H   UNL     1      -8.508   4.345  16.540  0.00  0.00    +0.032 HD
BRANCH  77  79
ATOM     79  C   UNL     1     -10.218   5.504  16.988  0.00  0.00    -0.060 C 
ATOM     80  H   UNL     1     -10.347   6.577  17.155  0.00  0.00    +0.023 HD
ATOM     81  H   UNL     1     -10.080   5.032  17.968  0.00  0.00    +0.023 HD
ATOM     82  H   UNL     1     -11.148   5.111  16.563  0.00  0.00    +0.023 HD
ENDBRANCH  77  79
BRANCH  77  83
ATOM     83  C   UNL     1      -9.513   4.682  14.689  0.00  0.00    -0.045 C 
ATOM     84  H   UNL     1      -9.699   5.563  14.064  0.00  0.00    +0.027 HD
ATOM     85  H   UNL     1     -10.484   4.190  14.805  0.00  0.00    +0.027 HD
BRANCH  83  86
ATOM     86  C   UNL     1      -8.574   3.731  13.928  0.00  0.00    -0.015 C 
ATOM     87  H   UNL     1      -7.557   3.853  14.315  0.00  0.00    +0.030 HD
ATOM     88  H   UNL     1      -8.891   2.700  14.101  0.00  0.00    +0.030 HD
BRANCH  86  89
ATOM     89  C   UNL     1      -8.573   3.979  12.402  0.00  0.00    +0.109 C 
ATOM     90  H   UNL     1      -7.573   4.325  12.111  0.00  0.00    +0.074 HD
BRANCH  89  91
ATOM     91  C   UNL     1      -9.602   5.075  11.986  0.00  0.00    +0.031 C 
ATOM     92  H   UNL     1      -9.829   5.637  12.903  0.00  0.00    +0.037 HD
BRANCH  91  93
ATOM     93  C   UNL     1     -10.910   4.464  11.464  0.00  0.00    -0.056 C 
ATOM     94  H   UNL     1     -11.206   3.585  12.045  0.00  0.00    +0.023 HD
ATOM     95  H   UNL     1     -10.819   4.163  10.414  0.00  0.00    +0.023 HD
ATOM     96  H   UNL     1     -11.743   5.168  11.541  0.00  0.00    +0.023 HD
ENDBRANCH  91  93
BRANCH  91  97
ATOM     97  C   UNL     1      -8.992   6.063  10.939  0.00  0.00    +0.115 C 
ATOM     98  H   UNL     1      -9.585   5.979  10.018  0.00  0.00    +0.074 HD
BRANCH  97  99
ATOM     99  C   UNL     1      -9.009   7.556  11.393  0.00  0.00    +0.013 C 
ATOM    100  H   UNL     1      -7.968   7.879  11.519  0.00  0.00    +0.038 HD
BRANCH  99 101
ATOM    101  C   UNL     1      -9.678   7.751  12.760  0.00  0.00    -0.056 C 
ATOM    102  H   UNL     1     -10.610   8.320  12.654  0.00  0.00    +0.024 HD
ATOM    103  H   UNL     1      -9.932   6.798  13.238  0.00  0.00    +0.024 HD
ATOM    104  H   UNL     1      -9.024   8.314  13.434  0.00  0.00    +0.024 HD
ENDBRANCH  99 101
BRANCH  99 105
ATOM    105  C   UNL     1      -9.696   8.456  10.387  0.00  0.00    -0.064 C 
ATOM    106  C   UNL     1      -9.052   9.042   9.367  0.00  0.00    -0.005 C 
ATOM    107  H   UNL     1     -10.764   8.590  10.529  0.00  0.00    +0.059 HD
ATOM    108  H   UNL     1      -7.979   8.893   9.251  0.00  0.00    +0.078 HD
BRANCH 106 109
ATOM    109  N   UNL     1      -9.633   9.854   8.402  0.00  0.00    -0.284 N 
ATOM    110  C   UNL     1      -9.495   9.532   7.053  0.00  0.00    +0.206 C 
ATOM    111  O   UNL     1      -8.903   8.563   6.588  0.00  0.00    -0.279 OA
ATOM    112  H   UNL     1      -9.993  10.260   6.391  0.00  0.00    +0.126 HD
BRANCH 109 113
ATOM    113  C   UNL     1     -10.397  11.037   8.769  0.00  0.00    +0.007 C 
ATOM    114  H   UNL     1     -11.362  10.730   9.184  0.00  0.00    +0.043 HD
ATOM    115  H   UNL     1      -9.872  11.632   9.523  0.00  0.00    +0.043 HD
ATOM    116  H   UNL     1     -10.548  11.664   7.883  0.00  0.00    +0.043 HD
ENDBRANCH 109 113
ENDBRANCH 106 109
ENDBRANCH  99 105
ENDBRANCH  97  99
BRANCH  97 117
ATOM    117  O   UNL     1      -7.621   5.652  10.688  0.00  0.00    -0.461 OA
BRANCH 117 118
ATOM    118  C   UNL     1      -7.178   5.734   9.403  0.00  0.00    +0.304 C 
ATOM    119  O   UNL     1      -6.029   5.964   9.057  0.00  0.00    -0.251 OA
BRANCH 118 120
ATOM    120  C   UNL     1      -8.297   5.448   8.450  0.00  0.00    +0.033 C 
ATOM    121  H   UNL     1      -8.591   4.397   8.517  0.00  0.00    +0.034 HD
ATOM    122  H   UNL     1      -9.163   6.059   8.721  0.00  0.00    +0.034 HD
ATOM    123  H   UNL     1      -7.987   5.702   7.435  0.00  0.00    +0.034 HD
ENDBRANCH 118 120
ENDBRANCH 117 118
ENDBRANCH  97 117
ENDBRANCH  91  97
ENDBRANCH  89  91
BRANCH  89 124
ATOM    124  O   UNL     1      -8.923   2.752  11.729  0.00  0.00    -0.460 OA
BRANCH 124 125
ATOM    125  C   UNL     1      -8.103   2.309  10.735  0.00  0.00    +0.324 C 
ATOM    126  O   UNL     1      -8.452   2.164   9.566  0.00  0.00    -0.249 OA
BRANCH 125 127
ATOM    127  C   UNL     1      -6.696   1.939  11.243  0.00  0.00    +0.105 C 
ATOM    128  H   UNL     1      -6.492   2.585  12.108  0.00  0.00    +0.058 HD
BRANCH 127 129
ATOM    129  C   UNL     1      -5.723   2.311  10.119  0.00  0.00    -0.039 C 
ATOM    130  H   UNL     1      -5.433   3.364  10.178  0.00  0.00    +0.025 HD
ATOM    131  H   UNL     1      -4.811   1.708  10.188  0.00  0.00    +0.025 HD
ATOM    132  H   UNL     1      -6.148   2.122   9.128  0.00  0.00    +0.025 HD
ENDBRANCH 127 129
BRANCH 127 133
ATOM    133  N   UNL     1      -6.597   0.512  11.682  0.00  0.00    -0.296 NA
BRANCH 133 134
ATOM    134  C   UNL     1      -6.321   0.421  13.122  0.00  0.00    -0.012 C 
ATOM    135  H   UNL     1      -7.120  -0.101  13.655  0.00  0.00    +0.039 HD
ATOM    136  H   UNL     1      -6.192   1.412  13.575  0.00  0.00    +0.039 HD
ATOM    137  H   UNL     1      -5.406  -0.160  13.299  0.00  0.00    +0.039 HD
ENDBRANCH 133 134
BRANCH 133 138
ATOM    138  C   UNL     1      -5.559  -0.221  10.952  0.00  0.00    -0.012 C 
ATOM    139  H   UNL     1      -5.866  -0.404   9.916  0.00  0.00    +0.039 HD
ATOM    140  H   UNL     1      -4.632   0.361  10.887  0.00  0.00    +0.039 HD
ATOM    141  H   UNL     1      -5.337  -1.189  11.419  0.00  0.00    +0.039 HD
ENDBRANCH 133 138
ENDBRANCH 127 133
ENDBRANCH 125 127
ENDBRANCH 124 125
ENDBRANCH  89 124
ENDBRANCH  86  89
ENDBRANCH  83  86
ENDBRANCH  77  83
ENDBRANCH  75  77
BRANCH  75 142
ATOM    142  O   UNL     1      -6.682   5.922  16.115  0.00  0.00    -0.391 OA
ATOM    143  H   UNL     1      -6.385   5.992  17.039  0.00  0.00    +0.210 HD
ENDBRANCH  75 142
ENDBRANCH  69  75
ENDBRANCH  14  69
BRANCH  25 144
ATOM    144  O   UNL     1      -6.727  17.324  22.006  0.00  0.00    -0.391 OA
ATOM    145  H   UNL     1      -7.286  18.101  22.172  0.00  0.00    +0.210 HD
ENDBRANCH  25 144
BRANCH  23 146
ATOM    146  O   UNL     1      -5.583  16.640  18.692  0.00  0.00    -0.460 OA
BRANCH 146 147
ATOM    147  C   UNL     1      -4.869  17.774  18.412  0.00  0.00    +0.327 C 
ATOM    148  O   UNL     1      -3.689  17.947  18.710  0.00  0.00    -0.249 OA
BRANCH 147 149
ATOM    149  C   UNL     1      -5.752  18.815  17.707  0.00  0.00    +0.131 C 
ATOM    150  H   UNL     1      -5.770  18.562  16.638  0.00  0.00    +0.060 HD
BRANCH 149 151
ATOM    151  C   UNL     1      -5.054  20.182  17.822  0.00  0.00    +0.073 C 
ATOM    152  H   UNL     1      -5.519  20.770  18.623  0.00  0.00    +0.058 HD
ATOM    153  H   UNL     1      -3.987  20.075  18.044  0.00  0.00    +0.058 HD
BRANCH 151 154
ATOM    154  O   UNL     1      -5.230  20.901  16.593  0.00  0.00    -0.381 OA
BRANCH 154 155
ATOM    155  C   UNL     1      -5.730  22.212  16.822  0.00  0.00    +0.037 C 
ATOM    156  H   UNL     1      -4.961  22.961  16.612  0.00  0.00    +0.052 HD
ATOM    157  H   UNL     1      -6.017  22.293  17.874  0.00  0.00    +0.052 HD
ATOM    158  H   UNL     1      -6.616  22.398  16.207  0.00  0.00    +0.052 HD
ENDBRANCH 154 155
ENDBRANCH 151 154
ENDBRANCH 149 151
BRANCH 149 159
ATOM    159  N   UNL     1      -7.150  18.871  18.237  0.00  0.00    -0.294 NA
BRANCH 159 160
ATOM    160  C   UNL     1      -7.274  19.844  19.319  0.00  0.00    -0.012 C 
ATOM    161  H   UNL     1      -6.308  20.154  19.727  0.00  0.00    +0.039 HD
ATOM    162  H   UNL     1      -7.878  19.428  20.128  0.00  0.00    +0.039 HD
ATOM    163  H   UNL     1      -7.801  20.742  18.980  0.00  0.00    +0.039 HD
ENDBRANCH 159 160
BRANCH 159 164
ATOM    164  C   UNL     1      -8.163  19.101  17.207  0.00  0.00    -0.012 C 
ATOM    165  H   UNL     1      -8.330  20.166  17.012  0.00  0.00    +0.039 HD
ATOM    166  H   UNL     1      -9.121  18.669  17.516  0.00  0.00    +0.039 HD
ATOM    167  H   UNL     1      -7.895  18.610  16.267  0.00  0.00    +0.039 HD
ENDBRANCH 159 164
ENDBRANCH 149 159
ENDBRANCH 147 149
ENDBRANCH 146 147
ENDBRANCH  23 146
BRANCH   4 168
ATOM    168  O   UNL     1     -11.710  16.954  22.062  0.00  0.00    -0.376 OA
BRANCH 168 169
ATOM    169  C   UNL     1     -12.011  18.247  21.552  0.00  0.00    +0.037 C 
ATOM    170  H   UNL     1     -11.224  18.524  20.845  0.00  0.00    +0.052 HD
ATOM    171  H   UNL     1     -12.021  18.976  22.366  0.00  0.00    +0.052 HD
ATOM    172  H   UNL     1     -12.969  18.251  21.025  0.00  0.00    +0.052 HD
ENDBRANCH 168 169
ENDBRANCH   4 168
BRANCH  10 173
ATOM    173  O   UNL     1     -10.793  10.851  19.683  0.00  0.00    -0.376 OA
BRANCH 173 174
ATOM    174  C   UNL     1     -11.686  10.043  18.923  0.00  0.00    +0.037 C 
ATOM    175  H   UNL     1     -11.285   9.950  17.911  0.00  0.00    +0.052 HD
ATOM    176  H   UNL     1     -11.761   9.041  19.354  0.00  0.00    +0.052 HD
ATOM    177  H   UNL     1     -12.677  10.507  18.862  0.00  0.00    +0.052 HD
ENDBRANCH 173 174
ENDBRANCH  10 173
TORSDOF 45
ENDMDL
