MODEL 1
REMARK VINA RESULT:      -7.3      0.000      0.000
REMARK  Name = Bistramide A_conf1
REMARK  27 active torsions:
REMARK  status: ('A' for Active; 'I' for Inactive)
REMARK    1  A    between atoms: C_1  and  C_2
REMARK    2  A    between atoms: C_3  and  C_4
REMARK    3  A    between atoms: C_4  and  C_6
REMARK    4  A    between atoms: C_6  and  C_7
REMARK    5  A    between atoms: C_10  and  C_50
REMARK    6  A    between atoms: C_11  and  C_13
REMARK    7  A    between atoms: C_13  and  C_14
REMARK    8  A    between atoms: N_16  and  C_17
REMARK    9  A    between atoms: C_17  and  C_18
REMARK   10  A    between atoms: C_18  and  C_19
REMARK   11  A    between atoms: C_18  and  O_49
REMARK   12  A    between atoms: C_19  and  C_20
REMARK   13  A    between atoms: C_19  and  C_21
REMARK   14  A    between atoms: N_23  and  C_24
REMARK   15  A    between atoms: C_24  and  C_25
REMARK   16  A    between atoms: C_25  and  C_26
REMARK   17  A    between atoms: C_26  and  C_27
REMARK   18  A    between atoms: C_28  and  C_48
REMARK   19  A    between atoms: C_36  and  C_38
REMARK   20  A    between atoms: C_38  and  C_39
REMARK   21  A    between atoms: C_39  and  C_40
REMARK   22  A    between atoms: C_40  and  C_41
REMARK   23  A    between atoms: C_40  and  C_42
REMARK   24  A    between atoms: C_43  and  C_44
REMARK   25  A    between atoms: C_43  and  C_45
REMARK   26  A    between atoms: C_45  and  C_46
REMARK   27  A    between atoms: C_45  and  O_47
REMARK                            x       y       z     vdW  Elec       q    Type
REMARK                         _______ _______ _______ _____ _____    ______ ____
ROOT
ATOM      1  C   UNL     1       5.959  15.901  25.456  0.00  0.00    -0.035 C 
ATOM      2  H   UNL     1       5.449  16.226  26.374  0.00  0.00    +0.028 HD
ATOM      3  H   UNL     1       6.219  16.817  24.914  0.00  0.00    +0.028 HD
ENDROOT
BRANCH   1   4
ATOM      4  C   UNL     1       4.991  15.041  24.648  0.00  0.00    +0.012 C 
ATOM      5  H   UNL     1       5.458  14.109  24.308  0.00  0.00    +0.046 HD
ATOM      6  H   UNL     1       4.126  14.757  25.263  0.00  0.00    +0.046 HD
BRANCH   4   9
ATOM      7  C   UNL     1       3.941  15.015  22.419  0.00  0.00    +0.218 C 
ATOM      8  O   UNL     1       3.622  13.831  22.492  0.00  0.00    -0.275 OA
ATOM      9  N   UNL     1       4.523  15.707  23.454  0.00  0.00    -0.315 N 
ATOM     10  H   UNL     1       4.825  16.663  23.259  0.00  0.00    +0.149 HD
BRANCH   7  11
ATOM     11  C   UNL     1       3.737  15.819  21.139  0.00  0.00    +0.060 C 
ATOM     12  H   UNL     1       2.762  15.510  20.738  0.00  0.00    +0.042 HD
BRANCH  11  13
ATOM     13  C   UNL     1       3.671  17.312  21.457  0.00  0.00    -0.052 C 
ATOM     14  H   UNL     1       2.680  17.622  21.799  0.00  0.00    +0.024 HD
ATOM     15  H   UNL     1       4.396  17.566  22.237  0.00  0.00    +0.024 HD
ATOM     16  H   UNL     1       3.908  17.906  20.569  0.00  0.00    +0.024 HD
ENDBRANCH  11  13
BRANCH  11  17
ATOM     17  C   UNL     1       4.808  15.479  20.079  0.00  0.00    +0.081 C 
ATOM     18  H   UNL     1       4.992  16.374  19.480  0.00  0.00    +0.062 HD
BRANCH  17  19
ATOM     19  C   UNL     1       4.375  14.310  19.165  0.00  0.00    +0.038 C 
ATOM     20  H   UNL     1       5.177  14.038  18.473  0.00  0.00    +0.049 HD
ATOM     21  H   UNL     1       4.115  13.430  19.765  0.00  0.00    +0.049 HD
BRANCH  19  24
ATOM     22  C   UNL     1       2.087  13.752  18.298  0.00  0.00    +0.216 C 
ATOM     23  O   UNL     1       2.044  12.647  18.831  0.00  0.00    -0.276 OA
ATOM     24  N   UNL     1       3.202  14.561  18.336  0.00  0.00    -0.313 N 
ATOM     25  H   UNL     1       3.147  15.462  17.877  0.00  0.00    +0.149 HD
BRANCH  22  26
ATOM     26  C   UNL     1       0.902  14.403  17.614  0.00  0.00    +0.050 C 
ATOM     27  H   UNL     1       1.241  15.417  17.356  0.00  0.00    +0.038 HD
ATOM     28  H   UNL     1       0.682  13.858  16.690  0.00  0.00    +0.038 HD
BRANCH  26  33
ATOM     29  C   UNL     1      -2.668  15.170  18.395  0.00  0.00    +0.066 C 
ATOM     30  C   UNL     1      -2.539  15.938  19.717  0.00  0.00    -0.026 C 
ATOM     31  C   UNL     1      -1.398  15.412  20.585  0.00  0.00    -0.046 C 
ATOM     32  C   UNL     1      -0.089  15.301  19.791  0.00  0.00    -0.017 C 
ATOM     33  C   UNL     1      -0.341  14.471  18.509  0.00  0.00    +0.070 C 
ATOM     34  O   UNL     1      -1.396  15.061  17.735  0.00  0.00    -0.372 OA
ATOM     35  H   UNL     1      -3.283  15.778  17.722  0.00  0.00    +0.060 HD
ATOM     36  H   UNL     1      -3.477  15.923  20.283  0.00  0.00    +0.029 HD
ATOM     37  H   UNL     1      -2.337  16.992  19.485  0.00  0.00    +0.029 HD
ATOM     38  H   UNL     1      -1.666  14.421  20.974  0.00  0.00    +0.027 HD
ATOM     39  H   UNL     1      -1.267  16.063  21.460  0.00  0.00    +0.027 HD
ATOM     40  H   UNL     1       0.639  14.769  20.419  0.00  0.00    +0.032 HD
ATOM     41  H   UNL     1      -0.647  13.462  18.812  0.00  0.00    +0.060 HD
BRANCH  32  42
ATOM     42  C   UNL     1       0.486  16.699  19.506  0.00  0.00    -0.060 C 
ATOM     43  H   UNL     1       0.914  17.157  20.406  0.00  0.00    +0.023 HD
ATOM     44  H   UNL     1      -0.291  17.369  19.125  0.00  0.00    +0.023 HD
ATOM     45  H   UNL     1       1.272  16.644  18.742  0.00  0.00    +0.023 HD
ENDBRANCH  32  42
BRANCH  29  46
ATOM     46  C   UNL     1      -3.339  13.799  18.544  0.00  0.00    +0.036 C 
ATOM     47  H   UNL     1      -3.387  13.496  19.597  0.00  0.00    +0.037 HD
ATOM     48  H   UNL     1      -2.746  13.033  18.022  0.00  0.00    +0.037 HD
BRANCH  46  49
ATOM     49  C   UNL     1      -4.731  13.797  17.941  0.00  0.00    +0.158 C 
ATOM     50  O   UNL     1      -5.189  14.765  17.342  0.00  0.00    -0.293 OA
BRANCH  49  52
ATOM     51  C   UNL     1      -4.902  11.349  18.142  0.00  0.00    -0.084 C 
ATOM     52  C   UNL     1      -5.520  12.537  18.082  0.00  0.00    -0.023 C 
ATOM     53  H   UNL     1      -3.813  11.301  18.093  0.00  0.00    +0.057 HD
ATOM     54  H   UNL     1      -6.598  12.628  18.125  0.00  0.00    +0.065 HD
BRANCH  51  55
ATOM     55  C   UNL     1      -5.605  10.038  18.282  0.00  0.00    -0.046 C 
ATOM     56  H   UNL     1      -5.227   9.506  19.162  0.00  0.00    +0.027 HD
ATOM     57  H   UNL     1      -5.469   9.394  17.408  0.00  0.00    +0.027 HD
ATOM     58  H   UNL     1      -6.678  10.204  18.419  0.00  0.00    +0.027 HD
ENDBRANCH  51  55
ENDBRANCH  49  52
ENDBRANCH  46  49
ENDBRANCH  29  46
ENDBRANCH  26  33
ENDBRANCH  22  26
ENDBRANCH  19  24
ENDBRANCH  17  19
BRANCH  17  59
ATOM     59  O   UNL     1       6.034  15.158  20.750  0.00  0.00    -0.390 OA
ATOM     60  H   UNL     1       6.645  15.909  20.571  0.00  0.00    +0.210 HD
ENDBRANCH  17  59
ENDBRANCH  11  17
ENDBRANCH   7  11
ENDBRANCH   4   9
ENDBRANCH   1   4
BRANCH   1  61
ATOM     61  C   UNL     1       7.235  15.136  25.832  0.00  0.00    -0.025 C 
ATOM     62  H   UNL     1       7.643  15.605  26.738  0.00  0.00    +0.029 HD
ATOM     63  H   UNL     1       6.974  14.104  26.088  0.00  0.00    +0.029 HD
BRANCH  61  64
ATOM     64  C   UNL     1       8.310  15.178  24.727  0.00  0.00    +0.065 C 
ATOM     65  C   UNL     1       9.618  14.484  25.176  0.00  0.00    -0.017 C 
ATOM     66  C   UNL     1      10.828  15.010  24.386  0.00  0.00    -0.043 C 
ATOM     67  C   UNL     1      10.383  15.596  23.051  0.00  0.00    +0.002 C 
ATOM     68  C   UNL     1       9.377  16.755  23.258  0.00  0.00    +0.171 C 
ATOM     69  O   UNL     1       8.590  16.553  24.441  0.00  0.00    -0.345 OA
ATOM     70  C   UNL     1      10.142  18.084  23.454  0.00  0.00    +0.002 C 
ATOM     71  C   UNL     1      10.436  18.760  22.131  0.00  0.00    -0.046 C 
ATOM     72  C   UNL     1       9.152  18.998  21.341  0.00  0.00    -0.026 C 
ATOM     73  C   UNL     1       8.009  18.039  21.700  0.00  0.00    +0.062 C 
ATOM     74  O   UNL     1       8.541  16.771  22.095  0.00  0.00    -0.345 OA
ATOM     75  H   UNL     1       7.920  14.702  23.821  0.00  0.00    +0.060 HD
ATOM     76  H   UNL     1       9.799  14.707  26.238  0.00  0.00    +0.032 HD
ATOM     77  H   UNL     1      11.327  15.791  24.975  0.00  0.00    +0.027 HD
ATOM     78  H   UNL     1      11.574  14.225  24.221  0.00  0.00    +0.027 HD
ATOM     79  H   UNL     1       9.923  14.803  22.448  0.00  0.00    +0.032 HD
ATOM     80  H   UNL     1      11.248  15.930  22.469  0.00  0.00    +0.032 HD
ATOM     81  H   UNL     1      11.072  17.920  24.011  0.00  0.00    +0.032 HD
ATOM     82  H   UNL     1       9.567  18.774  24.081  0.00  0.00    +0.032 HD
ATOM     83  H   UNL     1      11.112  18.133  21.539  0.00  0.00    +0.027 HD
ATOM     84  H   UNL     1      10.954  19.714  22.291  0.00  0.00    +0.027 HD
ATOM     85  H   UNL     1       9.395  18.869  20.276  0.00  0.00    +0.029 HD
ATOM     86  H   UNL     1       8.847  20.045  21.434  0.00  0.00    +0.029 HD
ATOM     87  H   UNL     1       7.460  17.848  20.771  0.00  0.00    +0.060 HD
BRANCH  65  88
ATOM     88  C   UNL     1       9.510  12.960  25.043  0.00  0.00    -0.060 C 
ATOM     89  H   UNL     1      10.225  12.575  24.307  0.00  0.00    +0.023 HD
ATOM     90  H   UNL     1       8.509  12.649  24.735  0.00  0.00    +0.023 HD
ATOM     91  H   UNL     1       9.723  12.472  26.002  0.00  0.00    +0.023 HD
ENDBRANCH  65  88
BRANCH  73  92
ATOM     92  C   UNL     1       6.971  18.563  22.709  0.00  0.00    -0.026 C 
ATOM     93  H   UNL     1       5.988  18.189  22.395  0.00  0.00    +0.029 HD
ATOM     94  H   UNL     1       7.144  18.136  23.697  0.00  0.00    +0.029 HD
BRANCH  92  95
ATOM     95  C   UNL     1       6.909  20.093  22.833  0.00  0.00    -0.045 C 
ATOM     96  H   UNL     1       6.849  20.374  23.889  0.00  0.00    +0.027 HD
ATOM     97  H   UNL     1       7.842  20.507  22.449  0.00  0.00    +0.027 HD
BRANCH  95  98
ATOM     98  C   UNL     1       5.690  20.701  22.105  0.00  0.00    -0.025 C 
ATOM     99  H   UNL     1       5.875  21.783  22.047  0.00  0.00    +0.034 HD
BRANCH  98 100
ATOM    100  C   UNL     1       4.370  20.523  22.855  0.00  0.00    -0.059 C 
ATOM    101  H   UNL     1       4.523  19.975  23.790  0.00  0.00    +0.024 HD
ATOM    102  H   UNL     1       3.639  19.974  22.259  0.00  0.00    +0.024 HD
ATOM    103  H   UNL     1       3.929  21.489  23.114  0.00  0.00    +0.024 HD
ENDBRANCH  98 100
BRANCH  98 104
ATOM    104  C   UNL     1       5.552  20.257  20.659  0.00  0.00    -0.080 C 
ATOM    105  C   UNL     1       4.797  20.753  19.652  0.00  0.00    -0.048 C 
ATOM    106  H   UNL     1       6.192  19.401  20.442  0.00  0.00    +0.058 HD
BRANCH 105 107
ATOM    107  C   UNL     1       3.969  22.003  19.781  0.00  0.00    -0.041 C 
ATOM    108  H   UNL     1       4.515  22.904  19.496  0.00  0.00    +0.028 HD
ATOM    109  H   UNL     1       3.097  21.959  19.120  0.00  0.00    +0.028 HD
ATOM    110  H   UNL     1       3.614  22.114  20.813  0.00  0.00    +0.028 HD
ENDBRANCH 105 107
BRANCH 105 111
ATOM    111  C   UNL     1       4.764  20.122  18.262  0.00  0.00    +0.073 C 
ATOM    112  H   UNL     1       5.687  20.380  17.732  0.00  0.00    +0.064 HD
BRANCH 111 113
ATOM    113  C   UNL     1       3.565  20.575  17.427  0.00  0.00    -0.035 C 
ATOM    114  H   UNL     1       2.637  20.472  17.999  0.00  0.00    +0.026 HD
ATOM    115  H   UNL     1       3.652  21.632  17.149  0.00  0.00    +0.026 HD
ATOM    116  H   UNL     1       3.469  19.983  16.511  0.00  0.00    +0.026 HD
ENDBRANCH 111 113
BRANCH 111 117
ATOM    117  O   UNL     1       4.718  18.696  18.338  0.00  0.00    -0.388 OA
ATOM    118  H   UNL     1       5.050  18.448  19.218  0.00  0.00    +0.210 HD
ENDBRANCH 111 117
ENDBRANCH 105 111
ENDBRANCH  98 104
ENDBRANCH  95  98
ENDBRANCH  92  95
ENDBRANCH  73  92
ENDBRANCH  61  64
ENDBRANCH   1  61
TORSDOF 27
ENDMDL
MODEL 2
REMARK VINA RESULT:      -7.2      3.487     13.253
REMARK  Name = Bistramide A_conf1
REMARK  27 active torsions:
REMARK  status: ('A' for Active; 'I' for Inactive)
REMARK    1  A    between atoms: C_1  and  C_2
REMARK    2  A    between atoms: C_3  and  C_4
REMARK    3  A    between atoms: C_4  and  C_6
REMARK    4  A    between atoms: C_6  and  C_7
REMARK    5  A    between atoms: C_10  and  C_50
REMARK    6  A    between atoms: C_11  and  C_13
REMARK    7  A    between atoms: C_13  and  C_14
REMARK    8  A    between atoms: N_16  and  C_17
REMARK    9  A    between atoms: C_17  and  C_18
REMARK   10  A    between atoms: C_18  and  C_19
REMARK   11  A    between atoms: C_18  and  O_49
REMARK   12  A    between atoms: C_19  and  C_20
REMARK   13  A    between atoms: C_19  and  C_21
REMARK   14  A    between atoms: N_23  and  C_24
REMARK   15  A    between atoms: C_24  and  C_25
REMARK   16  A    between atoms: C_25  and  C_26
REMARK   17  A    between atoms: C_26  and  C_27
REMARK   18  A    between atoms: C_28  and  C_48
REMARK   19  A    between atoms: C_36  and  C_38
REMARK   20  A    between atoms: C_38  and  C_39
REMARK   21  A    between atoms: C_39  and  C_40
REMARK   22  A    between atoms: C_40  and  C_41
REMARK   23  A    between atoms: C_40  and  C_42
REMARK   24  A    between atoms: C_43  and  C_44
REMARK   25  A    between atoms: C_43  and  C_45
REMARK   26  A    between atoms: C_45  and  C_46
REMARK   27  A    between atoms: C_45  and  O_47
REMARK                            x       y       z     vdW  Elec       q    Type
REMARK                         _______ _______ _______ _____ _____    ______ ____
ROOT
ATOM      1  C   UNL     1      -5.033  11.851  17.347  0.00  0.00    -0.035 C 
ATOM      2  H   UNL     1      -4.224  12.227  16.705  0.00  0.00    +0.028 HD
ATOM      3  H   UNL     1      -5.908  12.472  17.125  0.00  0.00    +0.028 HD
ENDROOT
BRANCH   1   4
ATOM      4  C   UNL     1      -4.604  12.006  18.803  0.00  0.00    +0.012 C 
ATOM      5  H   UNL     1      -5.395  11.702  19.497  0.00  0.00    +0.046 HD
ATOM      6  H   UNL     1      -3.734  11.370  19.016  0.00  0.00    +0.046 HD
BRANCH   4   9
ATOM      7  C   UNL     1      -4.515  13.881  20.399  0.00  0.00    +0.218 C 
ATOM      8  O   UNL     1      -4.842  13.189  21.359  0.00  0.00    -0.275 OA
ATOM      9  N   UNL     1      -4.284  13.374  19.143  0.00  0.00    -0.315 N 
ATOM     10  H   UNL     1      -4.099  14.048  18.398  0.00  0.00    +0.149 HD
BRANCH   7  11
ATOM     11  C   UNL     1      -4.362  15.394  20.521  0.00  0.00    +0.060 C 
ATOM     12  H   UNL     1      -4.678  15.811  19.555  0.00  0.00    +0.042 HD
BRANCH  11  13
ATOM     13  C   UNL     1      -5.298  15.934  21.602  0.00  0.00    -0.052 C 
ATOM     14  H   UNL     1      -5.501  15.198  22.383  0.00  0.00    +0.024 HD
ATOM     15  H   UNL     1      -4.862  16.821  22.073  0.00  0.00    +0.024 HD
ATOM     16  H   UNL     1      -6.262  16.221  21.168  0.00  0.00    +0.024 HD
ENDBRANCH  11  13
BRANCH  11  17
ATOM     17  C   UNL     1      -2.889  15.799  20.747  0.00  0.00    +0.081 C 
ATOM     18  H   UNL     1      -2.851  16.492  21.591  0.00  0.00    +0.062 HD
BRANCH  17  19
ATOM     19  C   UNL     1      -2.265  16.457  19.495  0.00  0.00    +0.038 C 
ATOM     20  H   UNL     1      -2.883  16.275  18.610  0.00  0.00    +0.049 HD
ATOM     21  H   UNL     1      -2.166  17.539  19.639  0.00  0.00    +0.049 HD
BRANCH  19  24
ATOM     22  C   UNL     1      -0.652  14.824  18.478  0.00  0.00    +0.216 C 
ATOM     23  O   UNL     1      -1.501  13.963  18.265  0.00  0.00    -0.276 OA
ATOM     24  N   UNL     1      -0.926  15.999  19.145  0.00  0.00    -0.313 N 
ATOM     25  H   UNL     1      -0.167  16.659  19.268  0.00  0.00    +0.149 HD
BRANCH  22  26
ATOM     26  C   UNL     1       0.770  14.750  17.962  0.00  0.00    +0.050 C 
ATOM     27  H   UNL     1       0.804  13.842  17.342  0.00  0.00    +0.038 HD
ATOM     28  H   UNL     1       0.962  15.620  17.324  0.00  0.00    +0.038 HD
BRANCH  26  33
ATOM     29  C   UNL     1       4.163  15.145  19.470  0.00  0.00    +0.066 C 
ATOM     30  C   UNL     1       4.370  13.777  20.132  0.00  0.00    -0.026 C 
ATOM     31  C   UNL     1       3.071  13.197  20.687  0.00  0.00    -0.046 C 
ATOM     32  C   UNL     1       1.946  13.229  19.643  0.00  0.00    -0.017 C 
ATOM     33  C   UNL     1       1.810  14.666  19.085  0.00  0.00    +0.070 C 
ATOM     34  O   UNL     1       3.063  15.111  18.546  0.00  0.00    -0.372 OA
ATOM     35  H   UNL     1       5.044  15.347  18.851  0.00  0.00    +0.060 HD
ATOM     36  H   UNL     1       5.127  13.824  20.923  0.00  0.00    +0.029 HD
ATOM     37  H   UNL     1       4.760  13.083  19.375  0.00  0.00    +0.029 HD
ATOM     38  H   UNL     1       2.761  13.780  21.565  0.00  0.00    +0.027 HD
ATOM     39  H   UNL     1       3.243  12.172  21.042  0.00  0.00    +0.027 HD
ATOM     40  H   UNL     1       1.011  12.955  20.150  0.00  0.00    +0.032 HD
ATOM     41  H   UNL     1       1.527  15.326  19.915  0.00  0.00    +0.060 HD
BRANCH  32  42
ATOM     42  C   UNL     1       2.200  12.175  18.550  0.00  0.00    -0.060 C 
ATOM     43  H   UNL     1       1.728  11.215  18.789  0.00  0.00    +0.023 HD
ATOM     44  H   UNL     1       3.272  11.999  18.421  0.00  0.00    +0.023 HD
ATOM     45  H   UNL     1       1.808  12.519  17.585  0.00  0.00    +0.023 HD
ENDBRANCH  32  42
BRANCH  29  46
ATOM     46  C   UNL     1       4.013  16.296  20.474  0.00  0.00    +0.036 C 
ATOM     47  H   UNL     1       3.169  16.122  21.151  0.00  0.00    +0.037 HD
ATOM     48  H   UNL     1       3.801  17.234  19.939  0.00  0.00    +0.037 HD
BRANCH  46  49
ATOM     49  C   UNL     1       5.285  16.498  21.275  0.00  0.00    +0.158 C 
ATOM     50  O   UNL     1       6.206  17.206  20.879  0.00  0.00    -0.293 OA
BRANCH  49  52
ATOM     51  C   UNL     1       4.433  16.049  23.541  0.00  0.00    -0.084 C 
ATOM     52  C   UNL     1       5.358  15.814  22.600  0.00  0.00    -0.023 C 
ATOM     53  H   UNL     1       3.616  16.743  23.336  0.00  0.00    +0.057 HD
ATOM     54  H   UNL     1       6.186  15.135  22.765  0.00  0.00    +0.065 HD
BRANCH  51  55
ATOM     55  C   UNL     1       4.422  15.414  24.893  0.00  0.00    -0.046 C 
ATOM     56  H   UNL     1       4.155  16.157  25.651  0.00  0.00    +0.027 HD
ATOM     57  H   UNL     1       5.392  14.983  25.162  0.00  0.00    +0.027 HD
ATOM     58  H   UNL     1       3.676  14.613  24.922  0.00  0.00    +0.027 HD
ENDBRANCH  51  55
ENDBRANCH  49  52
ENDBRANCH  46  49
ENDBRANCH  29  46
ENDBRANCH  26  33
ENDBRANCH  22  26
ENDBRANCH  19  24
ENDBRANCH  17  19
BRANCH  17  59
ATOM     59  O   UNL     1      -2.144  14.634  21.121  0.00  0.00    -0.390 OA
ATOM     60  H   UNL     1      -2.806  13.915  21.245  0.00  0.00    +0.210 HD
ENDBRANCH  17  59
ENDBRANCH  11  17
ENDBRANCH   7  11
ENDBRANCH   4   9
ENDBRANCH   1   4
BRANCH   1  61
ATOM     61  C   UNL     1      -5.326  10.388  16.984  0.00  0.00    -0.025 C 
ATOM     62  H   UNL     1      -5.248  10.300  15.892  0.00  0.00    +0.029 HD
ATOM     63  H   UNL     1      -4.553   9.748  17.420  0.00  0.00    +0.029 HD
BRANCH  61  64
ATOM     64  C   UNL     1      -6.734   9.931  17.418  0.00  0.00    +0.065 C 
ATOM     65  C   UNL     1      -7.273   8.802  16.507  0.00  0.00    -0.017 C 
ATOM     66  C   UNL     1      -8.810   8.753  16.530  0.00  0.00    -0.043 C 
ATOM     67  C   UNL     1      -9.347   9.385  17.809  0.00  0.00    +0.002 C 
ATOM     68  C   UNL     1      -8.890  10.860  17.937  0.00  0.00    +0.171 C 
ATOM     69  O   UNL     1      -7.609  11.060  17.322  0.00  0.00    -0.345 OA
ATOM     70  C   UNL     1      -9.888  11.783  17.200  0.00  0.00    +0.002 C 
ATOM     71  C   UNL     1     -11.030  12.204  18.101  0.00  0.00    -0.046 C 
ATOM     72  C   UNL     1     -10.510  12.884  19.363  0.00  0.00    -0.026 C 
ATOM     73  C   UNL     1      -9.078  12.484  19.746  0.00  0.00    +0.062 C 
ATOM     74  O   UNL     1      -8.824  11.136  19.341  0.00  0.00    -0.345 OA
ATOM     75  H   UNL     1      -6.704   9.596  18.460  0.00  0.00    +0.060 HD
ATOM     76  H   UNL     1      -6.968   9.000  15.469  0.00  0.00    +0.032 HD
ATOM     77  H   UNL     1      -9.198   9.306  15.663  0.00  0.00    +0.027 HD
ATOM     78  H   UNL     1      -9.182   7.728  16.434  0.00  0.00    +0.027 HD
ATOM     79  H   UNL     1      -8.992   8.806  18.671  0.00  0.00    +0.032 HD
ATOM     80  H   UNL     1     -10.439   9.311  17.846  0.00  0.00    +0.032 HD
ATOM     81  H   UNL     1     -10.276  11.297  16.297  0.00  0.00    +0.032 HD
ATOM     82  H   UNL     1      -9.383  12.682  16.829  0.00  0.00    +0.032 HD
ATOM     83  H   UNL     1     -11.621  11.324  18.383  0.00  0.00    +0.027 HD
ATOM     84  H   UNL     1     -11.712  12.880  17.569  0.00  0.00    +0.027 HD
ATOM     85  H   UNL     1     -11.183  12.605  20.186  0.00  0.00    +0.029 HD
ATOM     86  H   UNL     1     -10.616  13.970  19.271  0.00  0.00    +0.029 HD
ATOM     87  H   UNL     1      -9.042  12.471  20.842  0.00  0.00    +0.060 HD
BRANCH  65  88
ATOM     88  C   UNL     1      -6.686   7.443  16.904  0.00  0.00    -0.060 C 
ATOM     89  H   UNL     1      -5.631   7.533  17.186  0.00  0.00    +0.023 HD
ATOM     90  H   UNL     1      -6.755   6.716  16.090  0.00  0.00    +0.023 HD
ATOM     91  H   UNL     1      -7.225   7.024  17.762  0.00  0.00    +0.023 HD
ENDBRANCH  65  88
BRANCH  73  92
ATOM     92  C   UNL     1      -7.959  13.439  19.293  0.00  0.00    -0.026 C 
ATOM     93  H   UNL     1      -7.048  13.162  19.838  0.00  0.00    +0.029 HD
ATOM     94  H   UNL     1      -7.727  13.288  18.238  0.00  0.00    +0.029 HD
BRANCH  92  95
ATOM     95  C   UNL     1      -8.249  14.929  19.528  0.00  0.00    -0.045 C 
ATOM     96  H   UNL     1      -9.247  15.045  19.964  0.00  0.00    +0.027 HD
ATOM     97  H   UNL     1      -7.539  15.305  20.266  0.00  0.00    +0.027 HD
BRANCH  95  98
ATOM     98  C   UNL     1      -8.193  15.760  18.228  0.00  0.00    -0.025 C 
ATOM     99  H   UNL     1      -8.167  16.815  18.539  0.00  0.00    +0.034 HD
BRANCH  98 100
ATOM    100  C   UNL     1      -9.424  15.598  17.337  0.00  0.00    -0.059 C 
ATOM    101  H   UNL     1     -10.135  14.892  17.777  0.00  0.00    +0.024 HD
ATOM    102  H   UNL     1      -9.157  15.231  16.344  0.00  0.00    +0.024 HD
ATOM    103  H   UNL     1      -9.948  16.549  17.209  0.00  0.00    +0.024 HD
ENDBRANCH  98 100
BRANCH  98 104
ATOM    104  C   UNL     1      -6.918  15.565  17.427  0.00  0.00    -0.080 C 
ATOM    105  C   UNL     1      -5.877  16.399  17.207  0.00  0.00    -0.048 C 
ATOM    106  H   UNL     1      -6.876  14.569  16.982  0.00  0.00    +0.058 HD
BRANCH 105 107
ATOM    107  C   UNL     1      -5.750  17.749  17.861  0.00  0.00    -0.041 C 
ATOM    108  H   UNL     1      -4.856  18.290  17.544  0.00  0.00    +0.028 HD
ATOM    109  H   UNL     1      -6.598  18.389  17.597  0.00  0.00    +0.028 HD
ATOM    110  H   UNL     1      -5.729  17.637  18.953  0.00  0.00    +0.028 HD
ENDBRANCH 105 107
BRANCH 105 111
ATOM    111  C   UNL     1      -4.695  16.023  16.317  0.00  0.00    +0.073 C 
ATOM    112  H   UNL     1      -4.129  16.928  16.075  0.00  0.00    +0.064 HD
BRANCH 111 113
ATOM    113  C   UNL     1      -5.117  15.335  15.017  0.00  0.00    -0.035 C 
ATOM    114  H   UNL     1      -4.745  15.891  14.150  0.00  0.00    +0.026 HD
ATOM    115  H   UNL     1      -4.700  14.324  14.950  0.00  0.00    +0.026 HD
ATOM    116  H   UNL     1      -6.207  15.267  14.937  0.00  0.00    +0.026 HD
ENDBRANCH 111 113
BRANCH 111 117
ATOM    117  O   UNL     1      -3.794  15.143  16.992  0.00  0.00    -0.388 OA
ATOM    118  H   UNL     1      -4.324  14.623  17.622  0.00  0.00    +0.210 HD
ENDBRANCH 111 117
ENDBRANCH 105 111
ENDBRANCH  98 104
ENDBRANCH  95  98
ENDBRANCH  92  95
ENDBRANCH  73  92
ENDBRANCH  61  64
ENDBRANCH   1  61
TORSDOF 27
ENDMDL
MODEL 3
REMARK VINA RESULT:      -7.2      1.482      2.544
REMARK  Name = Bistramide A_conf1
REMARK  27 active torsions:
REMARK  status: ('A' for Active; 'I' for Inactive)
REMARK    1  A    between atoms: C_1  and  C_2
REMARK    2  A    between atoms: C_3  and  C_4
REMARK    3  A    between atoms: C_4  and  C_6
REMARK    4  A    between atoms: C_6  and  C_7
REMARK    5  A    between atoms: C_10  and  C_50
REMARK    6  A    between atoms: C_11  and  C_13
REMARK    7  A    between atoms: C_13  and  C_14
REMARK    8  A    between atoms: N_16  and  C_17
REMARK    9  A    between atoms: C_17  and  C_18
REMARK   10  A    between atoms: C_18  and  C_19
REMARK   11  A    between atoms: C_18  and  O_49
REMARK   12  A    between atoms: C_19  and  C_20
REMARK   13  A    between atoms: C_19  and  C_21
REMARK   14  A    between atoms: N_23  and  C_24
REMARK   15  A    between atoms: C_24  and  C_25
REMARK   16  A    between atoms: C_25  and  C_26
REMARK   17  A    between atoms: C_26  and  C_27
REMARK   18  A    between atoms: C_28  and  C_48
REMARK   19  A    between atoms: C_36  and  C_38
REMARK   20  A    between atoms: C_38  and  C_39
REMARK   21  A    between atoms: C_39  and  C_40
REMARK   22  A    between atoms: C_40  and  C_41
REMARK   23  A    between atoms: C_40  and  C_42
REMARK   24  A    between atoms: C_43  and  C_44
REMARK   25  A    between atoms: C_43  and  C_45
REMARK   26  A    between atoms: C_45  and  C_46
REMARK   27  A    between atoms: C_45  and  O_47
REMARK                            x       y       z     vdW  Elec       q    Type
REMARK                         _______ _______ _______ _____ _____    ______ ____
ROOT
ATOM      1  C   UNL     1       6.043  15.737  25.277  0.00  0.00    -0.035 C 
ATOM      2  H   UNL     1       5.728  16.187  26.228  0.00  0.00    +0.028 HD
ATOM      3  H   UNL     1       6.419  16.562  24.662  0.00  0.00    +0.028 HD
ENDROOT
BRANCH   1   4
ATOM      4  C   UNL     1       4.826  15.080  24.630  0.00  0.00    +0.012 C 
ATOM      5  H   UNL     1       5.030  14.045  24.332  0.00  0.00    +0.046 HD
ATOM      6  H   UNL     1       3.988  15.046  25.339  0.00  0.00    +0.046 HD
BRANCH   4   9
ATOM      7  C   UNL     1       3.847  15.085  22.370  0.00  0.00    +0.218 C 
ATOM      8  O   UNL     1       3.516  13.903  22.420  0.00  0.00    -0.275 OA
ATOM      9  N   UNL     1       4.402  15.762  23.429  0.00  0.00    -0.315 N 
ATOM     10  H   UNL     1       4.717  16.717  23.254  0.00  0.00    +0.149 HD
BRANCH   7  11
ATOM     11  C   UNL     1       3.691  15.903  21.092  0.00  0.00    +0.060 C 
ATOM     12  H   UNL     1       2.708  15.636  20.678  0.00  0.00    +0.042 HD
BRANCH  11  13
ATOM     13  C   UNL     1       3.680  17.396  21.418  0.00  0.00    -0.052 C 
ATOM     14  H   UNL     1       4.195  17.992  20.662  0.00  0.00    +0.024 HD
ATOM     15  H   UNL     1       2.650  17.760  21.496  0.00  0.00    +0.024 HD
ATOM     16  H   UNL     1       4.177  17.585  22.375  0.00  0.00    +0.024 HD
ENDBRANCH  11  13
BRANCH  11  17
ATOM     17  C   UNL     1       4.759  15.526  20.042  0.00  0.00    +0.081 C 
ATOM     18  H   UNL     1       4.978  16.413  19.443  0.00  0.00    +0.062 HD
BRANCH  17  19
ATOM     19  C   UNL     1       4.296  14.371  19.126  0.00  0.00    +0.038 C 
ATOM     20  H   UNL     1       5.078  14.104  18.409  0.00  0.00    +0.049 HD
ATOM     21  H   UNL     1       4.048  13.484  19.721  0.00  0.00    +0.049 HD
BRANCH  19  24
ATOM     22  C   UNL     1       1.980  13.836  18.321  0.00  0.00    +0.216 C 
ATOM     23  O   UNL     1       1.943  12.728  18.846  0.00  0.00    -0.276 OA
ATOM     24  N   UNL     1       3.102  14.637  18.332  0.00  0.00    -0.313 N 
ATOM     25  H   UNL     1       3.041  15.541  17.882  0.00  0.00    +0.149 HD
BRANCH  22  26
ATOM     26  C   UNL     1       0.782  14.502  17.676  0.00  0.00    +0.050 C 
ATOM     27  H   UNL     1       1.101  15.533  17.470  0.00  0.00    +0.038 HD
ATOM     28  H   UNL     1       0.568  14.002  16.724  0.00  0.00    +0.038 HD
BRANCH  26  33
ATOM     29  C   UNL     1      -2.829  15.038  18.464  0.00  0.00    +0.066 C 
ATOM     30  C   UNL     1      -2.747  15.833  19.773  0.00  0.00    -0.026 C 
ATOM     31  C   UNL     1      -1.569  15.400  20.643  0.00  0.00    -0.046 C 
ATOM     32  C   UNL     1      -0.259  15.364  19.843  0.00  0.00    -0.017 C 
ATOM     33  C   UNL     1      -0.460  14.500  18.575  0.00  0.00    +0.070 C 
ATOM     34  O   UNL     1      -1.556  15.004  17.798  0.00  0.00    -0.372 OA
ATOM     35  H   UNL     1      -3.487  15.592  17.784  0.00  0.00    +0.060 HD
ATOM     36  H   UNL     1      -3.679  15.764  20.344  0.00  0.00    +0.029 HD
ATOM     37  H   UNL     1      -2.618  16.895  19.524  0.00  0.00    +0.029 HD
ATOM     38  H   UNL     1      -1.768  14.399  21.048  0.00  0.00    +0.027 HD
ATOM     39  H   UNL     1      -1.479  16.072  21.507  0.00  0.00    +0.027 HD
ATOM     40  H   UNL     1       0.507  14.893  20.475  0.00  0.00    +0.032 HD
ATOM     41  H   UNL     1      -0.695  13.476  18.896  0.00  0.00    +0.060 HD
BRANCH  32  42
ATOM     42  C   UNL     1       0.219  16.794  19.533  0.00  0.00    -0.060 C 
ATOM     43  H   UNL     1       0.719  17.254  20.394  0.00  0.00    +0.023 HD
ATOM     44  H   UNL     1      -0.623  17.434  19.253  0.00  0.00    +0.023 HD
ATOM     45  H   UNL     1       0.921  16.791  18.690  0.00  0.00    +0.023 HD
ENDBRANCH  32  42
BRANCH  29  46
ATOM     46  C   UNL     1      -3.405  13.627  18.638  0.00  0.00    +0.036 C 
ATOM     47  H   UNL     1      -3.493  13.364  19.698  0.00  0.00    +0.037 HD
ATOM     48  H   UNL     1      -2.727  12.887  18.185  0.00  0.00    +0.037 HD
BRANCH  46  49
ATOM     49  C   UNL     1      -4.754  13.494  17.958  0.00  0.00    +0.158 C 
ATOM     50  O   UNL     1      -5.401  14.467  17.582  0.00  0.00    -0.293 OA
BRANCH  49  52
ATOM     51  C   UNL     1      -5.363  11.245  18.755  0.00  0.00    -0.084 C 
ATOM     52  C   UNL     1      -5.257  12.106  17.733  0.00  0.00    -0.023 C 
ATOM     53  H   UNL     1      -5.085  11.562  19.762  0.00  0.00    +0.057 HD
ATOM     54  H   UNL     1      -5.519  11.829  16.719  0.00  0.00    +0.065 HD
BRANCH  51  55
ATOM     55  C   UNL     1      -5.854   9.839  18.629  0.00  0.00    -0.046 C 
ATOM     56  H   UNL     1      -5.390   9.360  17.761  0.00  0.00    +0.027 HD
ATOM     57  H   UNL     1      -6.941   9.784  18.511  0.00  0.00    +0.027 HD
ATOM     58  H   UNL     1      -5.580   9.268  19.522  0.00  0.00    +0.027 HD
ENDBRANCH  51  55
ENDBRANCH  49  52
ENDBRANCH  46  49
ENDBRANCH  29  46
ENDBRANCH  26  33
ENDBRANCH  22  26
ENDBRANCH  19  24
ENDBRANCH  17  19
BRANCH  17  59
ATOM     59  O   UNL     1       5.967  15.167  20.724  0.00  0.00    -0.390 OA
ATOM     60  H   UNL     1       6.697  15.312  20.079  0.00  0.00    +0.210 HD
ENDBRANCH  17  59
ENDBRANCH  11  17
ENDBRANCH   7  11
ENDBRANCH   4   9
ENDBRANCH   1   4
BRANCH   1  61
ATOM     61  C   UNL     1       7.170  14.729  25.544  0.00  0.00    -0.025 C 
ATOM     62  H   UNL     1       7.427  14.801  26.610  0.00  0.00    +0.029 HD
ATOM     63  H   UNL     1       6.795  13.716  25.366  0.00  0.00    +0.029 HD
BRANCH  61  64
ATOM     64  C   UNL     1       8.436  15.007  24.709  0.00  0.00    +0.065 C 
ATOM     65  C   UNL     1       9.711  14.493  25.420  0.00  0.00    -0.017 C 
ATOM     66  C   UNL     1      10.961  15.249  24.938  0.00  0.00    -0.043 C 
ATOM     67  C   UNL     1      10.726  15.846  23.555  0.00  0.00    +0.002 C 
ATOM     68  C   UNL     1       9.523  16.822  23.566  0.00  0.00    +0.171 C 
ATOM     69  O   UNL     1       8.543  16.424  24.536  0.00  0.00    -0.345 OA
ATOM     70  C   UNL     1      10.000  18.236  23.967  0.00  0.00    +0.002 C 
ATOM     71  C   UNL     1      10.459  19.034  22.765  0.00  0.00    -0.046 C 
ATOM     72  C   UNL     1       9.356  19.124  21.714  0.00  0.00    -0.026 C 
ATOM     73  C   UNL     1       8.334  17.980  21.779  0.00  0.00    +0.062 C 
ATOM     74  O   UNL     1       8.969  16.785  22.245  0.00  0.00    -0.345 OA
ATOM     75  H   UNL     1       8.336  14.538  23.725  0.00  0.00    +0.060 HD
ATOM     76  H   UNL     1       9.619  14.672  26.501  0.00  0.00    +0.032 HD
ATOM     77  H   UNL     1      11.186  16.057  25.647  0.00  0.00    +0.027 HD
ATOM     78  H   UNL     1      11.843  14.600  24.921  0.00  0.00    +0.027 HD
ATOM     79  H   UNL     1      10.544  15.033  22.841  0.00  0.00    +0.032 HD
ATOM     80  H   UNL     1      11.630  16.346  23.193  0.00  0.00    +0.032 HD
ATOM     81  H   UNL     1      10.801  18.181  24.714  0.00  0.00    +0.032 HD
ATOM     82  H   UNL     1       9.198  18.788  24.470  0.00  0.00    +0.032 HD
ATOM     83  H   UNL     1      11.341  18.559  22.321  0.00  0.00    +0.027 HD
ATOM     84  H   UNL     1      10.767  20.043  23.066  0.00  0.00    +0.027 HD
ATOM     85  H   UNL     1       9.841  19.104  20.728  0.00  0.00    +0.029 HD
ATOM     86  H   UNL     1       8.870  20.104  21.768  0.00  0.00    +0.029 HD
ATOM     87  H   UNL     1       8.039  17.769  20.745  0.00  0.00    +0.060 HD
BRANCH  65  88
ATOM     88  C   UNL     1       9.886  12.983  25.221  0.00  0.00    -0.060 C 
ATOM     89  H   UNL     1       8.917  12.471  25.205  0.00  0.00    +0.023 HD
ATOM     90  H   UNL     1      10.491  12.535  26.013  0.00  0.00    +0.023 HD
ATOM     91  H   UNL     1      10.389  12.774  24.268  0.00  0.00    +0.023 HD
ENDBRANCH  65  88
BRANCH  73  92
ATOM     92  C   UNL     1       7.031  18.272  22.545  0.00  0.00    -0.026 C 
ATOM     93  H   UNL     1       6.265  17.582  22.168  0.00  0.00    +0.029 HD
ATOM     94  H   UNL     1       7.144  18.035  23.603  0.00  0.00    +0.029 HD
BRANCH  92  95
ATOM     95  C   UNL     1       6.515  19.713  22.411  0.00  0.00    -0.045 C 
ATOM     96  H   UNL     1       7.265  20.326  21.899  0.00  0.00    +0.027 HD
ATOM     97  H   UNL     1       5.629  19.703  21.775  0.00  0.00    +0.027 HD
BRANCH  95  98
ATOM     98  C   UNL     1       6.212  20.366  23.777  0.00  0.00    -0.025 C 
ATOM     99  H   UNL     1       5.511  21.189  23.575  0.00  0.00    +0.034 HD
BRANCH  98 100
ATOM    100  C   UNL     1       7.435  20.990  24.449  0.00  0.00    -0.059 C 
ATOM    101  H   UNL     1       7.316  22.073  24.550  0.00  0.00    +0.024 HD
ATOM    102  H   UNL     1       8.347  20.804  23.879  0.00  0.00    +0.024 HD
ATOM    103  H   UNL     1       7.584  20.584  25.454  0.00  0.00    +0.024 HD
ENDBRANCH  98 100
BRANCH  98 104
ATOM    104  C   UNL     1       5.471  19.459  24.743  0.00  0.00    -0.080 C 
ATOM    105  C   UNL     1       4.146  19.289  24.955  0.00  0.00    -0.048 C 
ATOM    106  H   UNL     1       6.162  18.858  25.335  0.00  0.00    +0.058 HD
BRANCH 105 107
ATOM    107  C   UNL     1       3.085  19.959  24.123  0.00  0.00    -0.041 C 
ATOM    108  H   UNL     1       3.316  19.951  23.056  0.00  0.00    +0.028 HD
ATOM    109  H   UNL     1       2.127  19.439  24.226  0.00  0.00    +0.028 HD
ATOM    110  H   UNL     1       2.951  20.997  24.451  0.00  0.00    +0.028 HD
ENDBRANCH 105 107
BRANCH 105 111
ATOM    111  C   UNL     1       3.598  18.346  26.024  0.00  0.00    +0.073 C 
ATOM    112  H   UNL     1       3.512  17.340  25.601  0.00  0.00    +0.064 HD
BRANCH 111 113
ATOM    113  C   UNL     1       2.234  18.780  26.564  0.00  0.00    -0.035 C 
ATOM    114  H   UNL     1       2.237  19.850  26.800  0.00  0.00    +0.026 HD
ATOM    115  H   UNL     1       1.445  18.621  25.820  0.00  0.00    +0.026 HD
ATOM    116  H   UNL     1       1.971  18.231  27.474  0.00  0.00    +0.026 HD
ENDBRANCH 111 113
BRANCH 111 117
ATOM    117  O   UNL     1       4.487  18.250  27.138  0.00  0.00    -0.388 OA
ATOM    118  H   UNL     1       4.242  17.445  27.628  0.00  0.00    +0.210 HD
ENDBRANCH 111 117
ENDBRANCH 105 111
ENDBRANCH  98 104
ENDBRANCH  95  98
ENDBRANCH  92  95
ENDBRANCH  73  92
ENDBRANCH  61  64
ENDBRANCH   1  61
TORSDOF 27
ENDMDL
MODEL 4
REMARK VINA RESULT:      -7.2      2.118      4.392
REMARK  Name = Bistramide A_conf1
REMARK  27 active torsions:
REMARK  status: ('A' for Active; 'I' for Inactive)
REMARK    1  A    between atoms: C_1  and  C_2
REMARK    2  A    between atoms: C_3  and  C_4
REMARK    3  A    between atoms: C_4  and  C_6
REMARK    4  A    between atoms: C_6  and  C_7
REMARK    5  A    between atoms: C_10  and  C_50
REMARK    6  A    between atoms: C_11  and  C_13
REMARK    7  A    between atoms: C_13  and  C_14
REMARK    8  A    between atoms: N_16  and  C_17
REMARK    9  A    between atoms: C_17  and  C_18
REMARK   10  A    between atoms: C_18  and  C_19
REMARK   11  A    between atoms: C_18  and  O_49
REMARK   12  A    between atoms: C_19  and  C_20
REMARK   13  A    between atoms: C_19  and  C_21
REMARK   14  A    between atoms: N_23  and  C_24
REMARK   15  A    between atoms: C_24  and  C_25
REMARK   16  A    between atoms: C_25  and  C_26
REMARK   17  A    between atoms: C_26  and  C_27
REMARK   18  A    between atoms: C_28  and  C_48
REMARK   19  A    between atoms: C_36  and  C_38
REMARK   20  A    between atoms: C_38  and  C_39
REMARK   21  A    between atoms: C_39  and  C_40
REMARK   22  A    between atoms: C_40  and  C_41
REMARK   23  A    between atoms: C_40  and  C_42
REMARK   24  A    between atoms: C_43  and  C_44
REMARK   25  A    between atoms: C_43  and  C_45
REMARK   26  A    between atoms: C_45  and  C_46
REMARK   27  A    between atoms: C_45  and  O_47
REMARK                            x       y       z     vdW  Elec       q    Type
REMARK                         _______ _______ _______ _____ _____    ______ ____
ROOT
ATOM      1  C   UNL     1       6.573  16.776  21.771  0.00  0.00    -0.035 C 
ATOM      2  H   UNL     1       7.168  15.962  21.335  0.00  0.00    +0.028 HD
ATOM      3  H   UNL     1       6.344  16.466  22.797  0.00  0.00    +0.028 HD
ENDROOT
BRANCH   1   4
ATOM      4  C   UNL     1       5.297  16.934  20.948  0.00  0.00    +0.012 C 
ATOM      5  H   UNL     1       4.589  17.625  21.419  0.00  0.00    +0.046 HD
ATOM      6  H   UNL     1       5.530  17.346  19.956  0.00  0.00    +0.046 HD
BRANCH   4   9
ATOM      7  C   UNL     1       4.477  15.068  19.564  0.00  0.00    +0.218 C 
ATOM      8  O   UNL     1       5.104  15.421  18.569  0.00  0.00    -0.275 OA
ATOM      9  N   UNL     1       4.585  15.687  20.786  0.00  0.00    -0.315 N 
ATOM     10  H   UNL     1       3.957  15.365  21.525  0.00  0.00    +0.149 HD
BRANCH   7  11
ATOM     11  C   UNL     1       3.489  13.907  19.514  0.00  0.00    +0.060 C 
ATOM     12  H   UNL     1       3.617  13.440  18.527  0.00  0.00    +0.042 HD
BRANCH  11  13
ATOM     13  C   UNL     1       3.837  12.870  20.581  0.00  0.00    -0.052 C 
ATOM     14  H   UNL     1       4.669  12.228  20.283  0.00  0.00    +0.024 HD
ATOM     15  H   UNL     1       4.108  13.366  21.518  0.00  0.00    +0.024 HD
ATOM     16  H   UNL     1       2.980  12.218  20.779  0.00  0.00    +0.024 HD
ENDBRANCH  11  13
BRANCH  11  17
ATOM     17  C   UNL     1       2.028  14.401  19.611  0.00  0.00    +0.081 C 
ATOM     18  H   UNL     1       1.717  14.343  20.657  0.00  0.00    +0.062 HD
BRANCH  17  19
ATOM     19  C   UNL     1       1.070  13.570  18.728  0.00  0.00    +0.038 C 
ATOM     20  H   UNL     1       1.464  13.469  17.713  0.00  0.00    +0.049 HD
ATOM     21  H   UNL     1       0.930  12.568  19.152  0.00  0.00    +0.049 HD
BRANCH  19  24
ATOM     22  C   UNL     1      -0.681  14.925  17.547  0.00  0.00    +0.216 C 
ATOM     23  O   UNL     1       0.100  15.419  16.740  0.00  0.00    -0.276 OA
ATOM     24  N   UNL     1      -0.277  14.108  18.582  0.00  0.00    -0.313 N 
ATOM     25  H   UNL     1      -0.991  13.736  19.195  0.00  0.00    +0.149 HD
BRANCH  22  26
ATOM     26  C   UNL     1      -2.186  15.073  17.460  0.00  0.00    +0.050 C 
ATOM     27  H   UNL     1      -2.366  16.156  17.400  0.00  0.00    +0.038 HD
ATOM     28  H   UNL     1      -2.536  14.606  16.532  0.00  0.00    +0.038 HD
BRANCH  26  33
ATOM     29  C   UNL     1      -5.137  13.714  19.301  0.00  0.00    +0.066 C 
ATOM     30  C   UNL     1      -5.076  14.506  20.614  0.00  0.00    -0.026 C 
ATOM     31  C   UNL     1      -3.642  14.787  21.056  0.00  0.00    -0.046 C 
ATOM     32  C   UNL     1      -2.807  15.389  19.917  0.00  0.00    -0.017 C 
ATOM     33  C   UNL     1      -2.917  14.479  18.670  0.00  0.00    +0.070 C 
ATOM     34  O   UNL     1      -4.292  14.306  18.301  0.00  0.00    -0.372 OA
ATOM     35  H   UNL     1      -6.154  13.813  18.905  0.00  0.00    +0.060 HD
ATOM     36  H   UNL     1      -5.622  13.996  21.415  0.00  0.00    +0.029 HD
ATOM     37  H   UNL     1      -5.584  15.467  20.460  0.00  0.00    +0.029 HD
ATOM     38  H   UNL     1      -3.174  13.849  21.386  0.00  0.00    +0.027 HD
ATOM     39  H   UNL     1      -3.647  15.454  21.929  0.00  0.00    +0.027 HD
ATOM     40  H   UNL     1      -1.759  15.413  20.247  0.00  0.00    +0.032 HD
ATOM     41  H   UNL     1      -2.493  13.500  18.927  0.00  0.00    +0.060 HD
BRANCH  32  42
ATOM     42  C   UNL     1      -3.237  16.842  19.648  0.00  0.00    -0.060 C 
ATOM     43  H   UNL     1      -2.821  17.225  18.708  0.00  0.00    +0.023 HD
ATOM     44  H   UNL     1      -2.903  17.502  20.455  0.00  0.00    +0.023 HD
ATOM     45  H   UNL     1      -4.330  16.917  19.596  0.00  0.00    +0.023 HD
ENDBRANCH  32  42
BRANCH  29  46
ATOM     46  C   UNL     1      -4.837  12.219  19.472  0.00  0.00    +0.036 C 
ATOM     47  H   UNL     1      -4.624  11.976  20.519  0.00  0.00    +0.037 HD
ATOM     48  H   UNL     1      -3.939  11.949  18.896  0.00  0.00    +0.037 HD
BRANCH  46  49
ATOM     49  C   UNL     1      -5.984  11.365  18.965  0.00  0.00    +0.158 C 
ATOM     50  O   UNL     1      -7.151  11.579  19.275  0.00  0.00    -0.293 OA
BRANCH  49  52
ATOM     51  C   UNL     1      -4.951  10.500  16.904  0.00  0.00    -0.084 C 
ATOM     52  C   UNL     1      -5.630  10.253  18.033  0.00  0.00    -0.023 C 
ATOM     53  H   UNL     1      -4.649  11.521  16.665  0.00  0.00    +0.057 HD
ATOM     54  H   UNL     1      -5.949   9.254  18.305  0.00  0.00    +0.065 HD
BRANCH  51  55
ATOM     55  C   UNL     1      -4.552   9.455  15.913  0.00  0.00    -0.046 C 
ATOM     56  H   UNL     1      -3.681   8.905  16.283  0.00  0.00    +0.027 HD
ATOM     57  H   UNL     1      -4.300   9.879  14.935  0.00  0.00    +0.027 HD
ATOM     58  H   UNL     1      -5.372   8.743  15.773  0.00  0.00    +0.027 HD
ENDBRANCH  51  55
ENDBRANCH  49  52
ENDBRANCH  46  49
ENDBRANCH  29  46
ENDBRANCH  26  33
ENDBRANCH  22  26
ENDBRANCH  19  24
ENDBRANCH  17  19
BRANCH  17  59
ATOM     59  O   UNL     1       1.984  15.782  19.231  0.00  0.00    -0.390 OA
ATOM     60  H   UNL     1       1.902  16.292  20.070  0.00  0.00    +0.210 HD
ENDBRANCH  17  59
ENDBRANCH  11  17
ENDBRANCH   7  11
ENDBRANCH   4   9
ENDBRANCH   1   4
BRANCH   1  61
ATOM     61  C   UNL     1       7.411  18.062  21.788  0.00  0.00    -0.025 C 
ATOM     62  H   UNL     1       7.579  18.357  20.743  0.00  0.00    +0.029 HD
ATOM     63  H   UNL     1       6.835  18.861  22.265  0.00  0.00    +0.029 HD
BRANCH  61  64
ATOM     64  C   UNL     1       8.780  17.879  22.475  0.00  0.00    +0.065 C 
ATOM     65  C   UNL     1       9.933  18.430  21.604  0.00  0.00    -0.017 C 
ATOM     66  C   UNL     1      11.270  17.758  21.958  0.00  0.00    -0.043 C 
ATOM     67  C   UNL     1      11.230  17.200  23.376  0.00  0.00    +0.002 C 
ATOM     68  C   UNL     1      10.090  16.165  23.537  0.00  0.00    +0.171 C 
ATOM     69  O   UNL     1       8.984  16.476  22.678  0.00  0.00    -0.345 OA
ATOM     70  C   UNL     1      10.594  14.762  23.125  0.00  0.00    +0.002 C 
ATOM     71  C   UNL     1      11.232  14.034  24.289  0.00  0.00    -0.046 C 
ATOM     72  C   UNL     1      10.265  13.926  25.464  0.00  0.00    -0.026 C 
ATOM     73  C   UNL     1       9.182  15.014  25.486  0.00  0.00    +0.062 C 
ATOM     74  O   UNL     1       9.692  16.221  24.912  0.00  0.00    -0.345 OA
ATOM     75  H   UNL     1       8.769  18.378  23.450  0.00  0.00    +0.060 HD
ATOM     76  H   UNL     1       9.726  18.208  20.547  0.00  0.00    +0.032 HD
ATOM     77  H   UNL     1      11.455  16.936  21.252  0.00  0.00    +0.027 HD
ATOM     78  H   UNL     1      12.111  18.451  21.851  0.00  0.00    +0.027 HD
ATOM     79  H   UNL     1      11.088  18.029  24.082  0.00  0.00    +0.032 HD
ATOM     80  H   UNL     1      12.196  16.760  23.645  0.00  0.00    +0.032 HD
ATOM     81  H   UNL     1      11.298  14.832  22.288  0.00  0.00    +0.032 HD
ATOM     82  H   UNL     1       9.770  14.153  22.738  0.00  0.00    +0.032 HD
ATOM     83  H   UNL     1      12.132  14.569  24.611  0.00  0.00    +0.027 HD
ATOM     84  H   UNL     1      11.558  13.031  23.985  0.00  0.00    +0.027 HD
ATOM     85  H   UNL     1      10.860  14.007  26.385  0.00  0.00    +0.029 HD
ATOM     86  H   UNL     1       9.831  12.922  25.498  0.00  0.00    +0.029 HD
ATOM     87  H   UNL     1       8.998  15.247  26.541  0.00  0.00    +0.060 HD
BRANCH  65  88
ATOM     88  C   UNL     1      10.047  19.954  21.735  0.00  0.00    -0.060 C 
ATOM     89  H   UNL     1      10.465  20.400  20.826  0.00  0.00    +0.023 HD
ATOM     90  H   UNL     1      10.683  20.243  22.576  0.00  0.00    +0.023 HD
ATOM     91  H   UNL     1       9.060  20.402  21.903  0.00  0.00    +0.023 HD
ENDBRANCH  65  88
BRANCH  73  92
ATOM     92  C   UNL     1       7.817  14.628  24.889  0.00  0.00    -0.026 C 
ATOM     93  H   UNL     1       7.565  15.378  24.128  0.00  0.00    +0.029 HD
ATOM     94  H   UNL     1       7.883  13.680  24.355  0.00  0.00    +0.029 HD
BRANCH  92  95
ATOM     95  C   UNL     1       6.669  14.546  25.907  0.00  0.00    -0.045 C 
ATOM     96  H   UNL     1       6.331  13.508  25.996  0.00  0.00    +0.027 HD
ATOM     97  H   UNL     1       7.055  14.836  26.885  0.00  0.00    +0.027 HD
BRANCH  95  98
ATOM     98  C   UNL     1       5.455  15.413  25.508  0.00  0.00    -0.025 C 
ATOM     99  H   UNL     1       4.778  15.409  26.374  0.00  0.00    +0.034 HD
BRANCH  98 100
ATOM    100  C   UNL     1       4.658  14.856  24.329  0.00  0.00    -0.059 C 
ATOM    101  H   UNL     1       3.696  14.455  24.661  0.00  0.00    +0.024 HD
ATOM    102  H   UNL     1       5.198  14.056  23.819  0.00  0.00    +0.024 HD
ATOM    103  H   UNL     1       4.448  15.635  23.590  0.00  0.00    +0.024 HD
ENDBRANCH  98 100
BRANCH  98 104
ATOM    104  C   UNL     1       5.790  16.877  25.289  0.00  0.00    -0.080 C 
ATOM    105  C   UNL     1       5.052  17.992  25.495  0.00  0.00    -0.048 C 
ATOM    106  H   UNL     1       6.805  17.002  24.910  0.00  0.00    +0.058 HD
BRANCH 105 107
ATOM    107  C   UNL     1       3.688  17.972  26.130  0.00  0.00    -0.041 C 
ATOM    108  H   UNL     1       3.718  18.162  27.205  0.00  0.00    +0.028 HD
ATOM    109  H   UNL     1       3.051  18.755  25.704  0.00  0.00    +0.028 HD
ATOM    110  H   UNL     1       3.205  17.002  25.954  0.00  0.00    +0.028 HD
ENDBRANCH 105 107
BRANCH 105 111
ATOM    111  C   UNL     1       5.564  19.391  25.160  0.00  0.00    +0.073 C 
ATOM    112  H   UNL     1       5.286  20.075  25.968  0.00  0.00    +0.064 HD
BRANCH 111 113
ATOM    113  C   UNL     1       5.015  19.929  23.838  0.00  0.00    -0.035 C 
ATOM    114  H   UNL     1       5.503  19.438  22.989  0.00  0.00    +0.026 HD
ATOM    115  H   UNL     1       3.940  19.731  23.745  0.00  0.00    +0.026 HD
ATOM    116  H   UNL     1       5.177  21.009  23.747  0.00  0.00    +0.026 HD
ENDBRANCH 111 113
BRANCH 111 117
ATOM    117  O   UNL     1       6.990  19.416  25.071  0.00  0.00    -0.388 OA
ATOM    118  H   UNL     1       7.331  19.411  25.983  0.00  0.00    +0.210 HD
ENDBRANCH 111 117
ENDBRANCH 105 111
ENDBRANCH  98 104
ENDBRANCH  95  98
ENDBRANCH  92  95
ENDBRANCH  73  92
ENDBRANCH  61  64
ENDBRANCH   1  61
TORSDOF 27
ENDMDL
MODEL 5
REMARK VINA RESULT:      -7.0      2.399     13.364
REMARK  Name = Bistramide A_conf1
REMARK  27 active torsions:
REMARK  status: ('A' for Active; 'I' for Inactive)
REMARK    1  A    between atoms: C_1  and  C_2
REMARK    2  A    between atoms: C_3  and  C_4
REMARK    3  A    between atoms: C_4  and  C_6
REMARK    4  A    between atoms: C_6  and  C_7
REMARK    5  A    between atoms: C_10  and  C_50
REMARK    6  A    between atoms: C_11  and  C_13
REMARK    7  A    between atoms: C_13  and  C_14
REMARK    8  A    between atoms: N_16  and  C_17
REMARK    9  A    between atoms: C_17  and  C_18
REMARK   10  A    between atoms: C_18  and  C_19
REMARK   11  A    between atoms: C_18  and  O_49
REMARK   12  A    between atoms: C_19  and  C_20
REMARK   13  A    between atoms: C_19  and  C_21
REMARK   14  A    between atoms: N_23  and  C_24
REMARK   15  A    between atoms: C_24  and  C_25
REMARK   16  A    between atoms: C_25  and  C_26
REMARK   17  A    between atoms: C_26  and  C_27
REMARK   18  A    between atoms: C_28  and  C_48
REMARK   19  A    between atoms: C_36  and  C_38
REMARK   20  A    between atoms: C_38  and  C_39
REMARK   21  A    between atoms: C_39  and  C_40
REMARK   22  A    between atoms: C_40  and  C_41
REMARK   23  A    between atoms: C_40  and  C_42
REMARK   24  A    between atoms: C_43  and  C_44
REMARK   25  A    between atoms: C_43  and  C_45
REMARK   26  A    between atoms: C_45  and  C_46
REMARK   27  A    between atoms: C_45  and  O_47
REMARK                            x       y       z     vdW  Elec       q    Type
REMARK                         _______ _______ _______ _____ _____    ______ ____
ROOT
ATOM      1  C   UNL     1      -1.374  14.356  18.577  0.00  0.00    -0.035 C 
ATOM      2  H   UNL     1      -1.453  14.538  19.657  0.00  0.00    +0.028 HD
ATOM      3  H   UNL     1      -1.844  13.382  18.400  0.00  0.00    +0.028 HD
ENDROOT
BRANCH   1   4
ATOM      4  C   UNL     1       0.105  14.327  18.201  0.00  0.00    +0.012 C 
ATOM      5  H   UNL     1       0.365  13.427  17.632  0.00  0.00    +0.046 HD
ATOM      6  H   UNL     1       0.354  15.187  17.564  0.00  0.00    +0.046 HD
BRANCH   4   9
ATOM      7  C   UNL     1       1.558  15.482  19.820  0.00  0.00    +0.218 C 
ATOM      8  O   UNL     1       1.269  16.602  19.407  0.00  0.00    -0.275 OA
ATOM      9  N   UNL     1       0.970  14.329  19.358  0.00  0.00    -0.315 N 
ATOM     10  H   UNL     1       1.344  13.446  19.709  0.00  0.00    +0.149 HD
BRANCH   7  11
ATOM     11  C   UNL     1       2.634  15.276  20.882  0.00  0.00    +0.060 C 
ATOM     12  H   UNL     1       2.556  16.134  21.565  0.00  0.00    +0.042 HD
BRANCH  11  13
ATOM     13  C   UNL     1       2.352  14.005  21.681  0.00  0.00    -0.052 C 
ATOM     14  H   UNL     1       2.203  14.205  22.745  0.00  0.00    +0.024 HD
ATOM     15  H   UNL     1       1.454  13.508  21.299  0.00  0.00    +0.024 HD
ATOM     16  H   UNL     1       3.188  13.303  21.597  0.00  0.00    +0.024 HD
ENDBRANCH  11  13
BRANCH  11  17
ATOM     17  C   UNL     1       4.050  15.296  20.266  0.00  0.00    +0.081 C 
ATOM     18  H   UNL     1       4.554  14.365  20.538  0.00  0.00    +0.062 HD
BRANCH  17  19
ATOM     19  C   UNL     1       4.881  16.507  20.748  0.00  0.00    +0.038 C 
ATOM     20  H   UNL     1       5.288  17.063  19.899  0.00  0.00    +0.049 HD
ATOM     21  H   UNL     1       4.260  17.184  21.347  0.00  0.00    +0.049 HD
BRANCH  19  24
ATOM     22  C   UNL     1       6.182  16.649  22.890  0.00  0.00    +0.216 C 
ATOM     23  O   UNL     1       5.465  17.512  23.386  0.00  0.00    -0.276 OA
ATOM     24  N   UNL     1       6.020  16.189  21.600  0.00  0.00    -0.313 N 
ATOM     25  H   UNL     1       6.652  15.468  21.274  0.00  0.00    +0.149 HD
BRANCH  22  26
ATOM     26  C   UNL     1       7.270  15.919  23.650  0.00  0.00    +0.050 C 
ATOM     27  H   UNL     1       6.910  15.866  24.687  0.00  0.00    +0.038 HD
ATOM     28  H   UNL     1       7.357  14.901  23.253  0.00  0.00    +0.038 HD
BRANCH  26  33
ATOM     29  C   UNL     1      10.299  17.306  21.963  0.00  0.00    +0.066 C 
ATOM     30  C   UNL     1      11.427  16.744  22.838  0.00  0.00    -0.026 C 
ATOM     31  C   UNL     1      11.031  16.658  24.310  0.00  0.00    -0.046 C 
ATOM     32  C   UNL     1       9.681  15.952  24.493  0.00  0.00    -0.017 C 
ATOM     33  C   UNL     1       8.623  16.637  23.594  0.00  0.00    +0.070 C 
ATOM     34  O   UNL     1       9.057  16.633  22.225  0.00  0.00    -0.372 OA
ATOM     35  H   UNL     1      10.537  17.059  20.922  0.00  0.00    +0.060 HD
ATOM     36  H   UNL     1      12.347  17.329  22.731  0.00  0.00    +0.029 HD
ATOM     37  H   UNL     1      11.664  15.731  22.486  0.00  0.00    +0.029 HD
ATOM     38  H   UNL     1      10.964  17.672  24.727  0.00  0.00    +0.027 HD
ATOM     39  H   UNL     1      11.819  16.143  24.876  0.00  0.00    +0.027 HD
ATOM     40  H   UNL     1       9.381  16.069  25.544  0.00  0.00    +0.032 HD
ATOM     41  H   UNL     1       8.516  17.677  23.928  0.00  0.00    +0.060 HD
BRANCH  32  42
ATOM     42  C   UNL     1       9.823  14.444  24.222  0.00  0.00    -0.060 C 
ATOM     43  H   UNL     1      10.323  14.245  23.267  0.00  0.00    +0.023 HD
ATOM     44  H   UNL     1       8.842  13.960  24.193  0.00  0.00    +0.023 HD
ATOM     45  H   UNL     1      10.401  13.963  25.020  0.00  0.00    +0.023 HD
ENDBRANCH  32  42
BRANCH  29  46
ATOM     46  C   UNL     1      10.142  18.829  22.067  0.00  0.00    +0.036 C 
ATOM     47  H   UNL     1      11.104  19.335  21.931  0.00  0.00    +0.037 HD
ATOM     48  H   UNL     1       9.782  19.100  23.071  0.00  0.00    +0.037 HD
BRANCH  46  49
ATOM     49  C   UNL     1       9.136  19.350  21.058  0.00  0.00    +0.158 C 
ATOM     50  O   UNL     1       9.358  19.359  19.852  0.00  0.00    -0.293 OA
BRANCH  49  52
ATOM     51  C   UNL     1       6.735  19.848  20.830  0.00  0.00    -0.084 C 
ATOM     52  C   UNL     1       7.831  19.831  21.602  0.00  0.00    -0.023 C 
ATOM     53  H   UNL     1       6.795  19.502  19.797  0.00  0.00    +0.057 HD
ATOM     54  H   UNL     1       7.814  20.169  22.631  0.00  0.00    +0.065 HD
BRANCH  51  55
ATOM     55  C   UNL     1       5.389  20.311  21.283  0.00  0.00    -0.046 C 
ATOM     56  H   UNL     1       5.461  20.734  22.290  0.00  0.00    +0.027 HD
ATOM     57  H   UNL     1       4.652  19.501  21.304  0.00  0.00    +0.027 HD
ATOM     58  H   UNL     1       5.018  21.091  20.611  0.00  0.00    +0.027 HD
ENDBRANCH  51  55
ENDBRANCH  49  52
ENDBRANCH  46  49
ENDBRANCH  29  46
ENDBRANCH  26  33
ENDBRANCH  22  26
ENDBRANCH  19  24
ENDBRANCH  17  19
BRANCH  17  59
ATOM     59  O   UNL     1       3.930  15.311  18.838  0.00  0.00    -0.390 OA
ATOM     60  H   UNL     1       3.057  15.722  18.643  0.00  0.00    +0.210 HD
ENDBRANCH  17  59
ENDBRANCH  11  17
ENDBRANCH   7  11
ENDBRANCH   4   9
ENDBRANCH   1   4
BRANCH   1  61
ATOM     61  C   UNL     1      -2.141  15.451  17.823  0.00  0.00    -0.025 C 
ATOM     62  H   UNL     1      -1.521  16.358  17.845  0.00  0.00    +0.029 HD
ATOM     63  H   UNL     1      -2.251  15.156  16.774  0.00  0.00    +0.029 HD
BRANCH  61  64
ATOM     64  C   UNL     1      -3.510  15.772  18.456  0.00  0.00    +0.065 C 
ATOM     65  C   UNL     1      -3.379  16.798  19.607  0.00  0.00    -0.017 C 
ATOM     66  C   UNL     1      -4.555  16.683  20.592  0.00  0.00    -0.043 C 
ATOM     67  C   UNL     1      -5.764  16.050  19.912  0.00  0.00    +0.002 C 
ATOM     68  C   UNL     1      -5.424  14.640  19.370  0.00  0.00    +0.171 C 
ATOM     69  O   UNL     1      -4.045  14.553  18.982  0.00  0.00    -0.345 OA
ATOM     70  C   UNL     1      -5.642  13.585  20.480  0.00  0.00    +0.002 C 
ATOM     71  C   UNL     1      -7.071  13.082  20.500  0.00  0.00    -0.046 C 
ATOM     72  C   UNL     1      -7.470  12.514  19.141  0.00  0.00    -0.026 C 
ATOM     73  C   UNL     1      -6.664  13.080  17.964  0.00  0.00    +0.062 C 
ATOM     74  O   UNL     1      -6.280  14.430  18.240  0.00  0.00    -0.345 OA
ATOM     75  H   UNL     1      -4.189  16.151  17.685  0.00  0.00    +0.060 HD
ATOM     76  H   UNL     1      -2.459  16.592  20.172  0.00  0.00    +0.032 HD
ATOM     77  H   UNL     1      -4.249  16.057  21.441  0.00  0.00    +0.027 HD
ATOM     78  H   UNL     1      -4.827  17.658  21.010  0.00  0.00    +0.027 HD
ATOM     79  H   UNL     1      -6.093  16.699  19.091  0.00  0.00    +0.032 HD
ATOM     80  H   UNL     1      -6.614  16.009  20.600  0.00  0.00    +0.032 HD
ATOM     81  H   UNL     1      -5.369  13.990  21.461  0.00  0.00    +0.032 HD
ATOM     82  H   UNL     1      -4.971  12.731  20.341  0.00  0.00    +0.032 HD
ATOM     83  H   UNL     1      -7.747  13.904  20.759  0.00  0.00    +0.027 HD
ATOM     84  H   UNL     1      -7.199  12.316  21.274  0.00  0.00    +0.027 HD
ATOM     85  H   UNL     1      -8.531  12.753  18.986  0.00  0.00    +0.029 HD
ATOM     86  H   UNL     1      -7.430  11.420  19.170  0.00  0.00    +0.029 HD
ATOM     87  H   UNL     1      -7.356  13.142  17.116  0.00  0.00    +0.060 HD
BRANCH  65  88
ATOM     88  C   UNL     1      -3.271  18.228  19.064  0.00  0.00    -0.060 C 
ATOM     89  H   UNL     1      -4.215  18.553  18.611  0.00  0.00    +0.023 HD
ATOM     90  H   UNL     1      -2.487  18.317  18.307  0.00  0.00    +0.023 HD
ATOM     91  H   UNL     1      -3.029  18.931  19.870  0.00  0.00    +0.023 HD
ENDBRANCH  65  88
BRANCH  73  92
ATOM     92  C   UNL     1      -5.472  12.233  17.483  0.00  0.00    -0.026 C 
ATOM     93  H   UNL     1      -5.656  11.971  16.433  0.00  0.00    +0.029 HD
ATOM     94  H   UNL     1      -4.555  12.823  17.480  0.00  0.00    +0.029 HD
BRANCH  92  95
ATOM     95  C   UNL     1      -5.232  10.946  18.285  0.00  0.00    -0.045 C 
ATOM     96  H   UNL     1      -4.215  10.951  18.693  0.00  0.00    +0.027 HD
ATOM     97  H   UNL     1      -5.912  10.940  19.138  0.00  0.00    +0.027 HD
BRANCH  95  98
ATOM     98  C   UNL     1      -5.400   9.670  17.431  0.00  0.00    -0.025 C 
ATOM     99  H   UNL     1      -4.733   8.915  17.873  0.00  0.00    +0.034 HD
BRANCH  98 100
ATOM    100  C   UNL     1      -4.964   9.840  15.976  0.00  0.00    -0.059 C 
ATOM    101  H   UNL     1      -4.094   9.214  15.753  0.00  0.00    +0.024 HD
ATOM    102  H   UNL     1      -4.701  10.875  15.752  0.00  0.00    +0.024 HD
ATOM    103  H   UNL     1      -5.761   9.545  15.287  0.00  0.00    +0.024 HD
ENDBRANCH  98 100
BRANCH  98 104
ATOM    104  C   UNL     1      -6.785   9.054  17.510  0.00  0.00    -0.080 C 
ATOM    105  C   UNL     1      -7.335   8.237  18.437  0.00  0.00    -0.048 C 
ATOM    106  H   UNL     1      -7.405   9.355  16.665  0.00  0.00    +0.058 HD
BRANCH 105 107
ATOM    107  C   UNL     1      -6.637   7.847  19.712  0.00  0.00    -0.041 C 
ATOM    108  H   UNL     1      -5.574   7.647  19.569  0.00  0.00    +0.028 HD
ATOM    109  H   UNL     1      -6.694   8.656  20.448  0.00  0.00    +0.028 HD
ATOM    110  H   UNL     1      -7.112   6.956  20.143  0.00  0.00    +0.028 HD
ENDBRANCH 105 107
BRANCH 105 111
ATOM    111  C   UNL     1      -8.752   7.680  18.305  0.00  0.00    +0.073 C 
ATOM    112  H   UNL     1      -8.768   6.935  17.503  0.00  0.00    +0.064 HD
BRANCH 111 113
ATOM    113  C   UNL     1      -9.794   8.759  18.008  0.00  0.00    -0.035 C 
ATOM    114  H   UNL     1     -10.574   8.762  18.778  0.00  0.00    +0.026 HD
ATOM    115  H   UNL     1      -9.343   9.757  18.008  0.00  0.00    +0.026 HD
ATOM    116  H   UNL     1     -10.274   8.595  17.037  0.00  0.00    +0.026 HD
ENDBRANCH 111 113
BRANCH 111 117
ATOM    117  O   UNL     1      -9.160   7.009  19.498  0.00  0.00    -0.388 OA
ATOM    118  H   UNL     1      -9.016   6.057  19.353  0.00  0.00    +0.210 HD
ENDBRANCH 111 117
ENDBRANCH 105 111
ENDBRANCH  98 104
ENDBRANCH  95  98
ENDBRANCH  92  95
ENDBRANCH  73  92
ENDBRANCH  61  64
ENDBRANCH   1  61
TORSDOF 27
ENDMDL
MODEL 6
REMARK VINA RESULT:      -6.9      2.328      4.986
REMARK  Name = Bistramide A_conf1
REMARK  27 active torsions:
REMARK  status: ('A' for Active; 'I' for Inactive)
REMARK    1  A    between atoms: C_1  and  C_2
REMARK    2  A    between atoms: C_3  and  C_4
REMARK    3  A    between atoms: C_4  and  C_6
REMARK    4  A    between atoms: C_6  and  C_7
REMARK    5  A    between atoms: C_10  and  C_50
REMARK    6  A    between atoms: C_11  and  C_13
REMARK    7  A    between atoms: C_13  and  C_14
REMARK    8  A    between atoms: N_16  and  C_17
REMARK    9  A    between atoms: C_17  and  C_18
REMARK   10  A    between atoms: C_18  and  C_19
REMARK   11  A    between atoms: C_18  and  O_49
REMARK   12  A    between atoms: C_19  and  C_20
REMARK   13  A    between atoms: C_19  and  C_21
REMARK   14  A    between atoms: N_23  and  C_24
REMARK   15  A    between atoms: C_24  and  C_25
REMARK   16  A    between atoms: C_25  and  C_26
REMARK   17  A    between atoms: C_26  and  C_27
REMARK   18  A    between atoms: C_28  and  C_48
REMARK   19  A    between atoms: C_36  and  C_38
REMARK   20  A    between atoms: C_38  and  C_39
REMARK   21  A    between atoms: C_39  and  C_40
REMARK   22  A    between atoms: C_40  and  C_41
REMARK   23  A    between atoms: C_40  and  C_42
REMARK   24  A    between atoms: C_43  and  C_44
REMARK   25  A    between atoms: C_43  and  C_45
REMARK   26  A    between atoms: C_45  and  C_46
REMARK   27  A    between atoms: C_45  and  O_47
REMARK                            x       y       z     vdW  Elec       q    Type
REMARK                         _______ _______ _______ _____ _____    ______ ____
ROOT
ATOM      1  C   UNL     1       6.141  16.100  24.910  0.00  0.00    -0.035 C 
ATOM      2  H   UNL     1       7.015  15.447  25.041  0.00  0.00    +0.028 HD
ATOM      3  H   UNL     1       6.042  16.662  25.845  0.00  0.00    +0.028 HD
ENDROOT
BRANCH   1   4
ATOM      4  C   UNL     1       4.917  15.222  24.664  0.00  0.00    +0.012 C 
ATOM      5  H   UNL     1       5.148  14.158  24.780  0.00  0.00    +0.046 HD
ATOM      6  H   UNL     1       4.127  15.456  25.391  0.00  0.00    +0.046 HD
BRANCH   4   9
ATOM      7  C   UNL     1       3.751  14.338  22.682  0.00  0.00    +0.218 C 
ATOM      8  O   UNL     1       3.432  13.289  23.236  0.00  0.00    -0.275 OA
ATOM      9  N   UNL     1       4.389  15.370  23.327  0.00  0.00    -0.315 N 
ATOM     10  H   UNL     1       4.683  16.162  22.754  0.00  0.00    +0.149 HD
BRANCH   7  11
ATOM     11  C   UNL     1       3.483  14.571  21.199  0.00  0.00    +0.060 C 
ATOM     12  H   UNL     1       3.063  15.584  21.121  0.00  0.00    +0.042 HD
BRANCH  11  13
ATOM     13  C   UNL     1       4.792  14.537  20.413  0.00  0.00    -0.052 C 
ATOM     14  H   UNL     1       4.813  13.736  19.671  0.00  0.00    +0.024 HD
ATOM     15  H   UNL     1       4.948  15.488  19.893  0.00  0.00    +0.024 HD
ATOM     16  H   UNL     1       5.641  14.378  21.086  0.00  0.00    +0.024 HD
ENDBRANCH  11  13
BRANCH  11  17
ATOM     17  C   UNL     1       2.428  13.584  20.652  0.00  0.00    +0.081 C 
ATOM     18  H   UNL     1       2.792  12.568  20.821  0.00  0.00    +0.062 HD
BRANCH  17  19
ATOM     19  C   UNL     1       2.149  13.802  19.147  0.00  0.00    +0.038 C 
ATOM     20  H   UNL     1       2.660  14.697  18.781  0.00  0.00    +0.049 HD
ATOM     21  H   UNL     1       2.492  12.938  18.564  0.00  0.00    +0.049 HD
BRANCH  19  24
ATOM     22  C   UNL     1       0.142  15.183  18.546  0.00  0.00    +0.216 C 
ATOM     23  O   UNL     1       0.683  16.258  18.784  0.00  0.00    -0.276 OA
ATOM     24  N   UNL     1       0.747  13.967  18.784  0.00  0.00    -0.313 N 
ATOM     25  H   UNL     1       0.230  13.129  18.549  0.00  0.00    +0.149 HD
BRANCH  22  26
ATOM     26  C   UNL     1      -1.213  15.052  17.881  0.00  0.00    +0.050 C 
ATOM     27  H   UNL     1      -1.412  16.038  17.437  0.00  0.00    +0.038 HD
ATOM     28  H   UNL     1      -1.144  14.310  17.078  0.00  0.00    +0.038 HD
BRANCH  26  33
ATOM     29  C   UNL     1      -4.668  14.016  18.847  0.00  0.00    +0.066 C 
ATOM     30  C   UNL     1      -5.002  15.033  19.946  0.00  0.00    -0.026 C 
ATOM     31  C   UNL     1      -3.780  15.406  20.783  0.00  0.00    -0.046 C 
ATOM     32  C   UNL     1      -2.589  15.801  19.899  0.00  0.00    -0.017 C 
ATOM     33  C   UNL     1      -2.329  14.679  18.865  0.00  0.00    +0.070 C 
ATOM     34  O   UNL     1      -3.514  14.427  18.096  0.00  0.00    -0.372 OA
ATOM     35  H   UNL     1      -5.493  14.031  18.125  0.00  0.00    +0.060 HD
ATOM     36  H   UNL     1      -5.805  14.671  20.598  0.00  0.00    +0.029 HD
ATOM     37  H   UNL     1      -5.382  15.945  19.468  0.00  0.00    +0.029 HD
ATOM     38  H   UNL     1      -3.494  14.549  21.407  0.00  0.00    +0.027 HD
ATOM     39  H   UNL     1      -4.038  16.219  21.474  0.00  0.00    +0.027 HD
ATOM     40  H   UNL     1      -1.707  15.896  20.548  0.00  0.00    +0.032 HD
ATOM     41  H   UNL     1      -2.061  13.767  19.414  0.00  0.00    +0.060 HD
BRANCH  32  42
ATOM     42  C   UNL     1      -2.834  17.177  19.253  0.00  0.00    -0.060 C 
ATOM     43  H   UNL     1      -3.816  17.234  18.770  0.00  0.00    +0.023 HD
ATOM     44  H   UNL     1      -2.074  17.391  18.495  0.00  0.00    +0.023 HD
ATOM     45  H   UNL     1      -2.775  17.971  20.007  0.00  0.00    +0.023 HD
ENDBRANCH  32  42
BRANCH  29  46
ATOM     46  C   UNL     1      -4.515  12.580  19.365  0.00  0.00    +0.036 C 
ATOM     47  H   UNL     1      -4.319  12.568  20.444  0.00  0.00    +0.037 HD
ATOM     48  H   UNL     1      -3.652  12.098  18.882  0.00  0.00    +0.037 HD
BRANCH  46  49
ATOM     49  C   UNL     1      -5.744  11.748  19.054  0.00  0.00    +0.158 C 
ATOM     50  O   UNL     1      -6.859  12.036  19.477  0.00  0.00    -0.293 OA
BRANCH  49  52
ATOM     51  C   UNL     1      -4.940  10.689  16.981  0.00  0.00    -0.084 C 
ATOM     52  C   UNL     1      -5.542  10.560  18.172  0.00  0.00    -0.023 C 
ATOM     53  H   UNL     1      -4.589  11.669  16.656  0.00  0.00    +0.057 HD
ATOM     54  H   UNL     1      -5.907   9.605  18.531  0.00  0.00    +0.065 HD
BRANCH  51  55
ATOM     55  C   UNL     1      -4.694   9.562  16.032  0.00  0.00    -0.046 C 
ATOM     56  H   UNL     1      -4.358   8.678  16.584  0.00  0.00    +0.027 HD
ATOM     57  H   UNL     1      -3.936   9.805  15.280  0.00  0.00    +0.027 HD
ATOM     58  H   UNL     1      -5.621   9.306  15.510  0.00  0.00    +0.027 HD
ENDBRANCH  51  55
ENDBRANCH  49  52
ENDBRANCH  46  49
ENDBRANCH  29  46
ENDBRANCH  26  33
ENDBRANCH  22  26
ENDBRANCH  19  24
ENDBRANCH  17  19
BRANCH  17  59
ATOM     59  O   UNL     1       1.221  13.734  21.409  0.00  0.00    -0.390 OA
ATOM     60  H   UNL     1       0.730  14.479  20.992  0.00  0.00    +0.210 HD
ENDBRANCH  17  59
ENDBRANCH  11  17
ENDBRANCH   7  11
ENDBRANCH   4   9
ENDBRANCH   1   4
BRANCH   1  61
ATOM     61  C   UNL     1       6.403  17.065  23.745  0.00  0.00    -0.025 C 
ATOM     62  H   UNL     1       7.409  16.849  23.361  0.00  0.00    +0.029 HD
ATOM     63  H   UNL     1       5.693  16.856  22.939  0.00  0.00    +0.029 HD
BRANCH  61  64
ATOM     64  C   UNL     1       6.343  18.548  24.167  0.00  0.00    +0.065 C 
ATOM     65  C   UNL     1       4.958  19.170  23.866  0.00  0.00    -0.017 C 
ATOM     66  C   UNL     1       5.054  20.698  23.718  0.00  0.00    -0.043 C 
ATOM     67  C   UNL     1       6.285  21.230  24.443  0.00  0.00    +0.002 C 
ATOM     68  C   UNL     1       7.581  20.590  23.888  0.00  0.00    +0.171 C 
ATOM     69  O   UNL     1       7.339  19.255  23.421  0.00  0.00    -0.345 OA
ATOM     70  C   UNL     1       8.089  21.402  22.675  0.00  0.00    +0.002 C 
ATOM     71  C   UNL     1       8.997  22.536  23.103  0.00  0.00    -0.046 C 
ATOM     72  C   UNL     1      10.174  22.016  23.923  0.00  0.00    -0.026 C 
ATOM     73  C   UNL     1       9.903  20.680  24.629  0.00  0.00    +0.062 C 
ATOM     74  O   UNL     1       8.518  20.582  24.973  0.00  0.00    -0.345 OA
ATOM     75  H   UNL     1       6.574  18.633  25.233  0.00  0.00    +0.060 HD
ATOM     76  H   UNL     1       4.582  18.773  22.913  0.00  0.00    +0.032 HD
ATOM     77  H   UNL     1       5.127  20.949  22.651  0.00  0.00    +0.027 HD
ATOM     78  H   UNL     1       4.154  21.197  24.091  0.00  0.00    +0.027 HD
ATOM     79  H   UNL     1       6.189  21.016  25.515  0.00  0.00    +0.032 HD
ATOM     80  H   UNL     1       6.330  22.322  24.375  0.00  0.00    +0.032 HD
ATOM     81  H   UNL     1       7.249  21.790  22.086  0.00  0.00    +0.032 HD
ATOM     82  H   UNL     1       8.636  20.758  21.978  0.00  0.00    +0.032 HD
ATOM     83  H   UNL     1       8.430  23.257  23.702  0.00  0.00    +0.027 HD
ATOM     84  H   UNL     1       9.369  23.084  22.227  0.00  0.00    +0.027 HD
ATOM     85  H   UNL     1      10.402  22.774  24.685  0.00  0.00    +0.029 HD
ATOM     86  H   UNL     1      11.071  21.969  23.298  0.00  0.00    +0.029 HD
ATOM     87  H   UNL     1      10.438  20.720  25.584  0.00  0.00    +0.060 HD
BRANCH  65  88
ATOM     88  C   UNL     1       3.938  18.799  24.949  0.00  0.00    -0.060 C 
ATOM     89  H   UNL     1       4.248  17.901  25.495  0.00  0.00    +0.023 HD
ATOM     90  H   UNL     1       2.947  18.611  24.528  0.00  0.00    +0.023 HD
ATOM     91  H   UNL     1       3.834  19.612  25.678  0.00  0.00    +0.023 HD
ENDBRANCH  65  88
BRANCH  73  92
ATOM     92  C   UNL     1      10.405  19.415  23.910  0.00  0.00    -0.026 C 
ATOM     93  H   UNL     1       9.584  19.044  23.282  0.00  0.00    +0.029 HD
ATOM     94  H   UNL     1      11.214  19.658  23.221  0.00  0.00    +0.029 HD
BRANCH  92  95
ATOM     95  C   UNL     1      10.870  18.286  24.843  0.00  0.00    -0.045 C 
ATOM     96  H   UNL     1      11.554  17.622  24.303  0.00  0.00    +0.027 HD
ATOM     97  H   UNL     1      11.441  18.728  25.660  0.00  0.00    +0.027 HD
BRANCH  95  98
ATOM     98  C   UNL     1       9.698  17.436  25.380  0.00  0.00    -0.025 C 
ATOM     99  H   UNL     1       8.829  17.681  24.754  0.00  0.00    +0.034 HD
BRANCH  98 100
ATOM    100  C   UNL     1       9.306  17.764  26.820  0.00  0.00    -0.059 C 
ATOM    101  H   UNL     1       8.963  18.800  26.906  0.00  0.00    +0.024 HD
ATOM    102  H   UNL     1      10.144  17.630  27.507  0.00  0.00    +0.024 HD
ATOM    103  H   UNL     1       8.490  17.123  27.165  0.00  0.00    +0.024 HD
ENDBRANCH  98 100
BRANCH  98 104
ATOM    104  C   UNL     1       9.891  15.940  25.202  0.00  0.00    -0.080 C 
ATOM    105  C   UNL     1       9.843  15.170  24.092  0.00  0.00    -0.048 C 
ATOM    106  H   UNL     1      10.111  15.451  26.152  0.00  0.00    +0.058 HD
BRANCH 105 107
ATOM    107  C   UNL     1       9.674  15.731  22.705  0.00  0.00    -0.041 C 
ATOM    108  H   UNL     1       9.945  16.787  22.640  0.00  0.00    +0.028 HD
ATOM    109  H   UNL     1      10.325  15.210  21.995  0.00  0.00    +0.028 HD
ATOM    110  H   UNL     1       8.635  15.609  22.374  0.00  0.00    +0.028 HD
ENDBRANCH 105 107
BRANCH 105 111
ATOM    111  C   UNL     1      10.019  13.654  24.134  0.00  0.00    +0.073 C 
ATOM    112  H   UNL     1       9.144  13.180  23.677  0.00  0.00    +0.064 HD
BRANCH 111 113
ATOM    113  C   UNL     1      10.199  13.110  25.552  0.00  0.00    -0.035 C 
ATOM    114  H   UNL     1      11.045  13.600  26.047  0.00  0.00    +0.026 HD
ATOM    115  H   UNL     1       9.313  13.306  26.167  0.00  0.00    +0.026 HD
ATOM    116  H   UNL     1      10.386  12.031  25.546  0.00  0.00    +0.026 HD
ENDBRANCH 111 113
BRANCH 111 117
ATOM    117  O   UNL     1      11.155  13.241  23.371  0.00  0.00    -0.388 OA
ATOM    118  H   UNL     1      11.032  12.297  23.167  0.00  0.00    +0.210 HD
ENDBRANCH 111 117
ENDBRANCH 105 111
ENDBRANCH  98 104
ENDBRANCH  95  98
ENDBRANCH  92  95
ENDBRANCH  73  92
ENDBRANCH  61  64
ENDBRANCH   1  61
TORSDOF 27
ENDMDL
MODEL 7
REMARK VINA RESULT:      -6.9      1.445      1.999
REMARK  Name = Bistramide A_conf1
REMARK  27 active torsions:
REMARK  status: ('A' for Active; 'I' for Inactive)
REMARK    1  A    between atoms: C_1  and  C_2
REMARK    2  A    between atoms: C_3  and  C_4
REMARK    3  A    between atoms: C_4  and  C_6
REMARK    4  A    between atoms: C_6  and  C_7
REMARK    5  A    between atoms: C_10  and  C_50
REMARK    6  A    between atoms: C_11  and  C_13
REMARK    7  A    between atoms: C_13  and  C_14
REMARK    8  A    between atoms: N_16  and  C_17
REMARK    9  A    between atoms: C_17  and  C_18
REMARK   10  A    between atoms: C_18  and  C_19
REMARK   11  A    between atoms: C_18  and  O_49
REMARK   12  A    between atoms: C_19  and  C_20
REMARK   13  A    between atoms: C_19  and  C_21
REMARK   14  A    between atoms: N_23  and  C_24
REMARK   15  A    between atoms: C_24  and  C_25
REMARK   16  A    between atoms: C_25  and  C_26
REMARK   17  A    between atoms: C_26  and  C_27
REMARK   18  A    between atoms: C_28  and  C_48
REMARK   19  A    between atoms: C_36  and  C_38
REMARK   20  A    between atoms: C_38  and  C_39
REMARK   21  A    between atoms: C_39  and  C_40
REMARK   22  A    between atoms: C_40  and  C_41
REMARK   23  A    between atoms: C_40  and  C_42
REMARK   24  A    between atoms: C_43  and  C_44
REMARK   25  A    between atoms: C_43  and  C_45
REMARK   26  A    between atoms: C_45  and  C_46
REMARK   27  A    between atoms: C_45  and  O_47
REMARK                            x       y       z     vdW  Elec       q    Type
REMARK                         _______ _______ _______ _____ _____    ______ ____
ROOT
ATOM      1  C   UNL     1       5.883  15.920  25.140  0.00  0.00    -0.035 C 
ATOM      2  H   UNL     1       5.632  16.553  26.002  0.00  0.00    +0.028 HD
ATOM      3  H   UNL     1       6.223  16.602  24.353  0.00  0.00    +0.028 HD
ENDROOT
BRANCH   1   4
ATOM      4  C   UNL     1       4.624  15.171  24.711  0.00  0.00    +0.012 C 
ATOM      5  H   UNL     1       4.679  14.105  24.956  0.00  0.00    +0.046 HD
ATOM      6  H   UNL     1       3.744  15.571  25.233  0.00  0.00    +0.046 HD
BRANCH   4   9
ATOM      7  C   UNL     1       3.830  14.197  22.592  0.00  0.00    +0.218 C 
ATOM      8  O   UNL     1       3.321  13.220  23.135  0.00  0.00    -0.275 OA
ATOM      9  N   UNL     1       4.399  15.238  23.285  0.00  0.00    -0.315 N 
ATOM     10  H   UNL     1       4.867  15.959  22.734  0.00  0.00    +0.149 HD
BRANCH   7  11
ATOM     11  C   UNL     1       3.895  14.321  21.073  0.00  0.00    +0.060 C 
ATOM     12  H   UNL     1       4.874  14.767  20.846  0.00  0.00    +0.042 HD
BRANCH  11  13
ATOM     13  C   UNL     1       3.840  12.938  20.427  0.00  0.00    -0.052 C 
ATOM     14  H   UNL     1       3.950  12.132  21.156  0.00  0.00    +0.024 HD
ATOM     15  H   UNL     1       2.886  12.800  19.907  0.00  0.00    +0.024 HD
ATOM     16  H   UNL     1       4.643  12.823  19.692  0.00  0.00    +0.024 HD
ENDBRANCH  11  13
BRANCH  11  17
ATOM     17  C   UNL     1       2.809  15.279  20.535  0.00  0.00    +0.081 C 
ATOM     18  H   UNL     1       2.916  16.238  21.047  0.00  0.00    +0.062 HD
BRANCH  17  19
ATOM     19  C   UNL     1       1.382  14.723  20.748  0.00  0.00    +0.038 C 
ATOM     20  H   UNL     1       1.352  13.645  20.567  0.00  0.00    +0.049 HD
ATOM     21  H   UNL     1       1.044  14.917  21.773  0.00  0.00    +0.049 HD
BRANCH  19  24
ATOM     22  C   UNL     1      -0.182  14.676  18.786  0.00  0.00    +0.216 C 
ATOM     23  O   UNL     1       0.286  13.647  18.308  0.00  0.00    -0.276 OA
ATOM     24  N   UNL     1       0.349  15.299  19.895  0.00  0.00    -0.313 N 
ATOM     25  H   UNL     1      -0.107  16.139  20.228  0.00  0.00    +0.149 HD
BRANCH  22  26
ATOM     26  C   UNL     1      -1.447  15.339  18.280  0.00  0.00    +0.050 C 
ATOM     27  H   UNL     1      -1.224  16.416  18.274  0.00  0.00    +0.038 HD
ATOM     28  H   UNL     1      -1.632  15.011  17.251  0.00  0.00    +0.038 HD
BRANCH  26  33
ATOM     29  C   UNL     1      -4.963  14.283  18.957  0.00  0.00    +0.066 C 
ATOM     30  C   UNL     1      -5.465  15.426  19.849  0.00  0.00    -0.026 C 
ATOM     31  C   UNL     1      -4.372  15.970  20.765  0.00  0.00    -0.046 C 
ATOM     32  C   UNL     1      -3.091  16.295  19.985  0.00  0.00    -0.017 C 
ATOM     33  C   UNL     1      -2.667  15.054  19.164  0.00  0.00    +0.070 C 
ATOM     34  O   UNL     1      -3.736  14.639  18.301  0.00  0.00    -0.372 OA
ATOM     35  H   UNL     1      -5.690  14.156  18.146  0.00  0.00    +0.060 HD
ATOM     36  H   UNL     1      -6.334  15.120  20.442  0.00  0.00    +0.029 HD
ATOM     37  H   UNL     1      -5.809  16.243  19.200  0.00  0.00    +0.029 HD
ATOM     38  H   UNL     1      -4.142  15.224  21.537  0.00  0.00    +0.027 HD
ATOM     39  H   UNL     1      -4.741  16.859  21.295  0.00  0.00    +0.027 HD
ATOM     40  H   UNL     1      -2.302  16.523  20.716  0.00  0.00    +0.032 HD
ATOM     41  H   UNL     1      -2.444  14.242  19.868  0.00  0.00    +0.060 HD
BRANCH  32  42
ATOM     42  C   UNL     1      -3.293  17.554  19.122  0.00  0.00    -0.060 C 
ATOM     43  H   UNL     1      -2.475  18.273  19.248  0.00  0.00    +0.023 HD
ATOM     44  H   UNL     1      -4.227  18.060  19.385  0.00  0.00    +0.023 HD
ATOM     45  H   UNL     1      -3.354  17.286  18.060  0.00  0.00    +0.023 HD
ENDBRANCH  32  42
BRANCH  29  46
ATOM     46  C   UNL     1      -4.835  12.942  19.693  0.00  0.00    +0.036 C 
ATOM     47  H   UNL     1      -5.214  13.016  20.718  0.00  0.00    +0.037 HD
ATOM     48  H   UNL     1      -3.774  12.658  19.769  0.00  0.00    +0.037 HD
BRANCH  46  49
ATOM     49  C   UNL     1      -5.558  11.834  18.951  0.00  0.00    +0.158 C 
ATOM     50  O   UNL     1      -6.725  11.537  19.187  0.00  0.00    -0.293 OA
BRANCH  49  52
ATOM     51  C   UNL     1      -5.401  10.275  17.052  0.00  0.00    -0.084 C 
ATOM     52  C   UNL     1      -4.788  11.129  17.883  0.00  0.00    -0.023 C 
ATOM     53  H   UNL     1      -6.473  10.097  17.152  0.00  0.00    +0.057 HD
ATOM     54  H   UNL     1      -3.726  11.332  17.819  0.00  0.00    +0.065 HD
BRANCH  51  55
ATOM     55  C   UNL     1      -4.717   9.525  15.956  0.00  0.00    -0.046 C 
ATOM     56  H   UNL     1      -4.569   8.482  16.255  0.00  0.00    +0.027 HD
ATOM     57  H   UNL     1      -3.741   9.951  15.702  0.00  0.00    +0.027 HD
ATOM     58  H   UNL     1      -5.337   9.536  15.054  0.00  0.00    +0.027 HD
ENDBRANCH  51  55
ENDBRANCH  49  52
ENDBRANCH  46  49
ENDBRANCH  29  46
ENDBRANCH  26  33
ENDBRANCH  22  26
ENDBRANCH  19  24
ENDBRANCH  17  19
BRANCH  17  59
ATOM     59  O   UNL     1       3.050  15.512  19.142  0.00  0.00    -0.390 OA
ATOM     60  H   UNL     1       2.178  15.413  18.695  0.00  0.00    +0.210 HD
ENDBRANCH  17  59
ENDBRANCH  11  17
ENDBRANCH   7  11
ENDBRANCH   4   9
ENDBRANCH   1   4
BRANCH   1  61
ATOM     61  C   UNL     1       7.019  14.963  25.530  0.00  0.00    -0.025 C 
ATOM     62  H   UNL     1       7.284  15.179  26.574  0.00  0.00    +0.029 HD
ATOM     63  H   UNL     1       6.650  13.933  25.493  0.00  0.00    +0.029 HD
BRANCH  61  64
ATOM     64  C   UNL     1       8.277  15.135  24.655  0.00  0.00    +0.065 C 
ATOM     65  C   UNL     1       9.520  14.489  25.312  0.00  0.00    -0.017 C 
ATOM     66  C   UNL     1      10.819  15.130  24.796  0.00  0.00    -0.043 C 
ATOM     67  C   UNL     1      10.595  15.772  23.432  0.00  0.00    +0.002 C 
ATOM     68  C   UNL     1       9.493  16.858  23.500  0.00  0.00    +0.171 C 
ATOM     69  O   UNL     1       8.513  16.538  24.498  0.00  0.00    -0.345 OA
ATOM     70  C   UNL     1      10.117  18.213  23.905  0.00  0.00    +0.002 C 
ATOM     71  C   UNL     1      10.608  18.985  22.699  0.00  0.00    -0.046 C 
ATOM     72  C   UNL     1       9.483  19.199  21.690  0.00  0.00    -0.026 C 
ATOM     73  C   UNL     1       8.360  18.156  21.774  0.00  0.00    +0.062 C 
ATOM     74  O   UNL     1       8.893  16.898  22.200  0.00  0.00    -0.345 OA
ATOM     75  H   UNL     1       8.098  14.695  23.668  0.00  0.00    +0.060 HD
ATOM     76  H   UNL     1       9.483  14.656  26.398  0.00  0.00    +0.032 HD
ATOM     77  H   UNL     1      11.145  15.901  25.509  0.00  0.00    +0.027 HD
ATOM     78  H   UNL     1      11.634  14.401  24.738  0.00  0.00    +0.027 HD
ATOM     79  H   UNL     1      10.312  14.993  22.713  0.00  0.00    +0.032 HD
ATOM     80  H   UNL     1      11.530  16.190  23.045  0.00  0.00    +0.032 HD
ATOM     81  H   UNL     1      10.934  18.068  24.621  0.00  0.00    +0.032 HD
ATOM     82  H   UNL     1       9.389  18.830  24.444  0.00  0.00    +0.032 HD
ATOM     83  H   UNL     1      11.425  18.436  22.217  0.00  0.00    +0.027 HD
ATOM     84  H   UNL     1      11.022  19.955  23.003  0.00  0.00    +0.027 HD
ATOM     85  H   UNL     1       9.931  19.150  20.687  0.00  0.00    +0.029 HD
ATOM     86  H   UNL     1       9.096  20.219  21.775  0.00  0.00    +0.029 HD
ATOM     87  H   UNL     1       8.011  17.993  20.748  0.00  0.00    +0.060 HD
BRANCH  65  88
ATOM     88  C   UNL     1       9.542  12.973  25.084  0.00  0.00    -0.060 C 
ATOM     89  H   UNL     1      10.562  12.578  25.142  0.00  0.00    +0.023 HD
ATOM     90  H   UNL     1       9.131  12.702  24.109  0.00  0.00    +0.023 HD
ATOM     91  H   UNL     1       8.942  12.459  25.846  0.00  0.00    +0.023 HD
ENDBRANCH  65  88
BRANCH  73  92
ATOM     92  C   UNL     1       7.118  18.557  22.590  0.00  0.00    -0.026 C 
ATOM     93  H   UNL     1       6.234  18.314  21.986  0.00  0.00    +0.029 HD
ATOM     94  H   UNL     1       7.034  17.947  23.490  0.00  0.00    +0.029 HD
BRANCH  92  95
ATOM     95  C   UNL     1       7.060  20.040  22.988  0.00  0.00    -0.045 C 
ATOM     96  H   UNL     1       6.998  20.126  24.078  0.00  0.00    +0.027 HD
ATOM     97  H   UNL     1       7.996  20.513  22.688  0.00  0.00    +0.027 HD
BRANCH  95  98
ATOM     98  C   UNL     1       5.845  20.774  22.379  0.00  0.00    -0.025 C 
ATOM     99  H   UNL     1       6.251  21.631  21.824  0.00  0.00    +0.034 HD
BRANCH  98 100
ATOM    100  C   UNL     1       4.883  21.344  23.420  0.00  0.00    -0.059 C 
ATOM    101  H   UNL     1       4.050  21.866  22.939  0.00  0.00    +0.024 HD
ATOM    102  H   UNL     1       5.381  22.049  24.087  0.00  0.00    +0.024 HD
ATOM    103  H   UNL     1       4.454  20.550  24.039  0.00  0.00    +0.024 HD
ENDBRANCH  98 100
BRANCH  98 104
ATOM    104  C   UNL     1       5.094  19.963  21.338  0.00  0.00    -0.080 C 
ATOM    105  C   UNL     1       4.346  20.357  20.283  0.00  0.00    -0.048 C 
ATOM    106  H   UNL     1       5.215  18.891  21.504  0.00  0.00    +0.058 HD
BRANCH 105 107
ATOM    107  C   UNL     1       4.202  21.797  19.867  0.00  0.00    -0.041 C 
ATOM    108  H   UNL     1       3.786  22.426  20.656  0.00  0.00    +0.028 HD
ATOM    109  H   UNL     1       5.178  22.229  19.622  0.00  0.00    +0.028 HD
ATOM    110  H   UNL     1       3.560  21.869  18.979  0.00  0.00    +0.028 HD
ENDBRANCH 105 107
BRANCH 105 111
ATOM    111  C   UNL     1       3.623  19.369  19.371  0.00  0.00    +0.073 C 
ATOM    112  H   UNL     1       3.449  19.843  18.399  0.00  0.00    +0.064 HD
BRANCH 111 113
ATOM    113  C   UNL     1       2.286  18.893  19.942  0.00  0.00    -0.035 C 
ATOM    114  H   UNL     1       1.640  19.747  20.171  0.00  0.00    +0.026 HD
ATOM    115  H   UNL     1       1.746  18.269  19.220  0.00  0.00    +0.026 HD
ATOM    116  H   UNL     1       2.427  18.315  20.862  0.00  0.00    +0.026 HD
ENDBRANCH 111 113
BRANCH 111 117
ATOM    117  O   UNL     1       4.420  18.208  19.126  0.00  0.00    -0.388 OA
ATOM    118  H   UNL     1       4.753  17.905  19.988  0.00  0.00    +0.210 HD
ENDBRANCH 111 117
ENDBRANCH 105 111
ENDBRANCH  98 104
ENDBRANCH  95  98
ENDBRANCH  92  95
ENDBRANCH  73  92
ENDBRANCH  61  64
ENDBRANCH   1  61
TORSDOF 27
ENDMDL
MODEL 8
REMARK VINA RESULT:      -6.9      4.004     13.571
REMARK  Name = Bistramide A_conf1
REMARK  27 active torsions:
REMARK  status: ('A' for Active; 'I' for Inactive)
REMARK    1  A    between atoms: C_1  and  C_2
REMARK    2  A    between atoms: C_3  and  C_4
REMARK    3  A    between atoms: C_4  and  C_6
REMARK    4  A    between atoms: C_6  and  C_7
REMARK    5  A    between atoms: C_10  and  C_50
REMARK    6  A    between atoms: C_11  and  C_13
REMARK    7  A    between atoms: C_13  and  C_14
REMARK    8  A    between atoms: N_16  and  C_17
REMARK    9  A    between atoms: C_17  and  C_18
REMARK   10  A    between atoms: C_18  and  C_19
REMARK   11  A    between atoms: C_18  and  O_49
REMARK   12  A    between atoms: C_19  and  C_20
REMARK   13  A    between atoms: C_19  and  C_21
REMARK   14  A    between atoms: N_23  and  C_24
REMARK   15  A    between atoms: C_24  and  C_25
REMARK   16  A    between atoms: C_25  and  C_26
REMARK   17  A    between atoms: C_26  and  C_27
REMARK   18  A    between atoms: C_28  and  C_48
REMARK   19  A    between atoms: C_36  and  C_38
REMARK   20  A    between atoms: C_38  and  C_39
REMARK   21  A    between atoms: C_39  and  C_40
REMARK   22  A    between atoms: C_40  and  C_41
REMARK   23  A    between atoms: C_40  and  C_42
REMARK   24  A    between atoms: C_43  and  C_44
REMARK   25  A    between atoms: C_43  and  C_45
REMARK   26  A    between atoms: C_45  and  C_46
REMARK   27  A    between atoms: C_45  and  O_47
REMARK                            x       y       z     vdW  Elec       q    Type
REMARK                         _______ _______ _______ _____ _____    ______ ____
ROOT
ATOM      1  C   UNL     1      -9.388  12.663  22.091  0.00  0.00    -0.035 C 
ATOM      2  H   UNL     1     -10.342  13.200  22.188  0.00  0.00    +0.028 HD
ATOM      3  H   UNL     1      -9.607  11.616  22.327  0.00  0.00    +0.028 HD
ENDROOT
BRANCH   1   4
ATOM      4  C   UNL     1      -8.398  13.256  23.089  0.00  0.00    +0.012 C 
ATOM      5  H   UNL     1      -8.902  13.657  23.976  0.00  0.00    +0.046 HD
ATOM      6  H   UNL     1      -7.702  12.483  23.443  0.00  0.00    +0.046 HD
BRANCH   4   9
ATOM      7  C   UNL     1      -7.157  15.371  23.319  0.00  0.00    +0.218 C 
ATOM      8  O   UNL     1      -7.176  15.345  24.547  0.00  0.00    -0.275 OA
ATOM      9  N   UNL     1      -7.641  14.354  22.533  0.00  0.00    -0.315 N 
ATOM     10  H   UNL     1      -7.653  14.514  21.525  0.00  0.00    +0.149 HD
BRANCH   7  11
ATOM     11  C   UNL     1      -6.606  16.572  22.555  0.00  0.00    +0.060 C 
ATOM     12  H   UNL     1      -7.143  16.594  21.596  0.00  0.00    +0.042 HD
BRANCH  11  13
ATOM     13  C   UNL     1      -6.919  17.865  23.306  0.00  0.00    -0.052 C 
ATOM     14  H   UNL     1      -7.502  18.566  22.705  0.00  0.00    +0.024 HD
ATOM     15  H   UNL     1      -7.484  17.647  24.219  0.00  0.00    +0.024 HD
ATOM     16  H   UNL     1      -5.995  18.376  23.596  0.00  0.00    +0.024 HD
ENDBRANCH  11  13
BRANCH  11  17
ATOM     17  C   UNL     1      -5.102  16.405  22.246  0.00  0.00    +0.081 C 
ATOM     18  H   UNL     1      -4.565  17.236  22.711  0.00  0.00    +0.062 HD
BRANCH  17  19
ATOM     19  C   UNL     1      -4.817  16.375  20.727  0.00  0.00    +0.038 C 
ATOM     20  H   UNL     1      -5.086  15.405  20.300  0.00  0.00    +0.049 HD
ATOM     21  H   UNL     1      -5.390  17.157  20.214  0.00  0.00    +0.049 HD
BRANCH  19  24
ATOM     22  C   UNL     1      -2.439  15.653  20.377  0.00  0.00    +0.216 C 
ATOM     23  O   UNL     1      -2.590  14.553  20.899  0.00  0.00    -0.276 OA
ATOM     24  N   UNL     1      -3.431  16.610  20.343  0.00  0.00    -0.313 N 
ATOM     25  H   UNL     1      -3.223  17.487  19.882  0.00  0.00    +0.149 HD
BRANCH  22  26
ATOM     26  C   UNL     1      -1.188  16.065  19.629  0.00  0.00    +0.050 C 
ATOM     27  H   UNL     1      -1.515  16.237  18.594  0.00  0.00    +0.038 HD
ATOM     28  H   UNL     1      -0.822  17.010  20.045  0.00  0.00    +0.038 HD
BRANCH  26  33
ATOM     29  C   UNL     1       2.304  14.816  20.063  0.00  0.00    +0.066 C 
ATOM     30  C   UNL     1       2.481  13.947  18.812  0.00  0.00    -0.026 C 
ATOM     31  C   UNL     1       1.190  13.238  18.410  0.00  0.00    -0.046 C 
ATOM     32  C   UNL     1       0.008  14.215  18.336  0.00  0.00    -0.017 C 
ATOM     33  C   UNL     1      -0.089  14.997  19.668  0.00  0.00    +0.070 C 
ATOM     34  O   UNL     1       1.151  15.666  19.944  0.00  0.00    -0.372 OA
ATOM     35  H   UNL     1       3.156  15.504  20.108  0.00  0.00    +0.060 HD
ATOM     36  H   UNL     1       3.285  13.214  18.943  0.00  0.00    +0.029 HD
ATOM     37  H   UNL     1       2.790  14.596  17.982  0.00  0.00    +0.029 HD
ATOM     38  H   UNL     1       0.962  12.456  19.146  0.00  0.00    +0.027 HD
ATOM     39  H   UNL     1       1.331  12.727  17.448  0.00  0.00    +0.027 HD
ATOM     40  H   UNL     1      -0.908  13.623  18.206  0.00  0.00    +0.032 HD
ATOM     41  H   UNL     1      -0.288  14.276  20.471  0.00  0.00    +0.060 HD
BRANCH  32  42
ATOM     42  C   UNL     1       0.143  15.129  17.105  0.00  0.00    -0.060 C 
ATOM     43  H   UNL     1       0.925  14.780  16.420  0.00  0.00    +0.023 HD
ATOM     44  H   UNL     1       0.391  16.152  17.405  0.00  0.00    +0.023 HD
ATOM     45  H   UNL     1      -0.804  15.171  16.552  0.00  0.00    +0.023 HD
ENDBRANCH  32  42
BRANCH  29  46
ATOM     46  C   UNL     1       2.273  14.013  21.370  0.00  0.00    +0.036 C 
ATOM     47  H   UNL     1       2.359  12.938  21.174  0.00  0.00    +0.037 HD
ATOM     48  H   UNL     1       1.309  14.164  21.879  0.00  0.00    +0.037 HD
BRANCH  46  49
ATOM     49  C   UNL     1       3.371  14.457  22.317  0.00  0.00    +0.158 C 
ATOM     50  O   UNL     1       3.675  13.816  23.318  0.00  0.00    -0.293 OA
BRANCH  49  52
ATOM     51  C   UNL     1       5.430  15.790  22.100  0.00  0.00    -0.084 C 
ATOM     52  C   UNL     1       4.099  15.710  21.958  0.00  0.00    -0.023 C 
ATOM     53  H   UNL     1       5.987  14.931  22.477  0.00  0.00    +0.057 HD
ATOM     54  H   UNL     1       3.509  16.540  21.590  0.00  0.00    +0.065 HD
BRANCH  51  55
ATOM     55  C   UNL     1       6.243  16.998  21.768  0.00  0.00    -0.046 C 
ATOM     56  H   UNL     1       7.268  16.867  22.131  0.00  0.00    +0.027 HD
ATOM     57  H   UNL     1       5.836  17.913  22.212  0.00  0.00    +0.027 HD
ATOM     58  H   UNL     1       6.281  17.134  20.683  0.00  0.00    +0.027 HD
ENDBRANCH  51  55
ENDBRANCH  49  52
ENDBRANCH  46  49
ENDBRANCH  29  46
ENDBRANCH  26  33
ENDBRANCH  22  26
ENDBRANCH  19  24
ENDBRANCH  17  19
BRANCH  17  59
ATOM     59  O   UNL     1      -4.636  15.200  22.865  0.00  0.00    -0.390 OA
ATOM     60  H   UNL     1      -4.851  14.472  22.237  0.00  0.00    +0.210 HD
ENDBRANCH  17  59
ENDBRANCH  11  17
ENDBRANCH   7  11
ENDBRANCH   4   9
ENDBRANCH   1   4
BRANCH   1  61
ATOM     61  C   UNL     1      -8.889  12.779  20.644  0.00  0.00    -0.025 C 
ATOM     62  H   UNL     1      -9.273  13.727  20.241  0.00  0.00    +0.029 HD
ATOM     63  H   UNL     1      -7.796  12.844  20.645  0.00  0.00    +0.029 HD
BRANCH  61  64
ATOM     64  C   UNL     1      -9.376  11.626  19.744  0.00  0.00    +0.065 C 
ATOM     65  C   UNL     1     -10.757  11.094  20.196  0.00  0.00    -0.017 C 
ATOM     66  C   UNL     1     -10.975   9.644  19.734  0.00  0.00    -0.043 C 
ATOM     67  C   UNL     1     -10.098   9.328  18.528  0.00  0.00    +0.002 C 
ATOM     68  C   UNL     1      -8.599   9.529  18.860  0.00  0.00    +0.171 C 
ATOM     69  O   UNL     1      -8.419  10.564  19.837  0.00  0.00    -0.345 OA
ATOM     70  C   UNL     1      -8.020   8.233  19.473  0.00  0.00    +0.002 C 
ATOM     71  C   UNL     1      -7.513   7.287  18.404  0.00  0.00    -0.046 C 
ATOM     72  C   UNL     1      -6.472   7.967  17.520  0.00  0.00    -0.026 C 
ATOM     73  C   UNL     1      -6.592   9.497  17.475  0.00  0.00    +0.062 C 
ATOM     74  O   UNL     1      -7.961   9.884  17.627  0.00  0.00    -0.345 OA
ATOM     75  H   UNL     1      -9.423  11.968  18.705  0.00  0.00    +0.060 HD
ATOM     76  H   UNL     1     -10.803  11.096  21.295  0.00  0.00    +0.032 HD
ATOM     77  H   UNL     1     -10.716   8.963  20.557  0.00  0.00    +0.027 HD
ATOM     78  H   UNL     1     -12.026   9.450  19.494  0.00  0.00    +0.027 HD
ATOM     79  H   UNL     1     -10.388   9.980  17.694  0.00  0.00    +0.032 HD
ATOM     80  H   UNL     1     -10.284   8.310  18.171  0.00  0.00    +0.032 HD
ATOM     81  H   UNL     1      -8.766   7.731  20.101  0.00  0.00    +0.032 HD
ATOM     82  H   UNL     1      -7.196   8.462  20.159  0.00  0.00    +0.032 HD
ATOM     83  H   UNL     1      -8.351   6.951  17.782  0.00  0.00    +0.027 HD
ATOM     84  H   UNL     1      -7.082   6.386  18.859  0.00  0.00    +0.027 HD
ATOM     85  H   UNL     1      -6.603   7.576  16.501  0.00  0.00    +0.029 HD
ATOM     86  H   UNL     1      -5.468   7.648  17.816  0.00  0.00    +0.029 HD
ATOM     87  H   UNL     1      -6.315   9.800  16.459  0.00  0.00    +0.060 HD
BRANCH  65  88
ATOM     88  C   UNL     1     -11.890  11.995  19.690  0.00  0.00    -0.060 C 
ATOM     89  H   UNL     1     -12.439  11.520  18.870  0.00  0.00    +0.023 HD
ATOM     90  H   UNL     1     -11.514  12.957  19.331  0.00  0.00    +0.023 HD
ATOM     91  H   UNL     1     -12.607  12.204  20.494  0.00  0.00    +0.023 HD
ENDBRANCH  65  88
BRANCH  73  92
ATOM     92  C   UNL     1      -5.666  10.281  18.422  0.00  0.00    -0.026 C 
ATOM     93  H   UNL     1      -6.301  10.788  19.160  0.00  0.00    +0.029 HD
ATOM     94  H   UNL     1      -5.036   9.601  18.996  0.00  0.00    +0.029 HD
BRANCH  92  95
ATOM     95  C   UNL     1      -4.772  11.323  17.732  0.00  0.00    -0.045 C 
ATOM     96  H   UNL     1      -3.822  10.859  17.445  0.00  0.00    +0.027 HD
ATOM     97  H   UNL     1      -5.260  11.637  16.808  0.00  0.00    +0.027 HD
BRANCH  95  98
ATOM     98  C   UNL     1      -4.461  12.535  18.637  0.00  0.00    -0.025 C 
ATOM     99  H   UNL     1      -3.401  12.445  18.916  0.00  0.00    +0.034 HD
BRANCH  98 100
ATOM    100  C   UNL     1      -5.257  12.552  19.942  0.00  0.00    -0.059 C 
ATOM    101  H   UNL     1      -5.438  13.578  20.276  0.00  0.00    +0.024 HD
ATOM    102  H   UNL     1      -4.732  12.026  20.741  0.00  0.00    +0.024 HD
ATOM    103  H   UNL     1      -6.233  12.074  19.816  0.00  0.00    +0.024 HD
ENDBRANCH  98 100
BRANCH  98 104
ATOM    104  C   UNL     1      -4.560  13.874  17.928  0.00  0.00    -0.080 C 
ATOM    105  C   UNL     1      -5.619  14.497  17.363  0.00  0.00    -0.048 C 
ATOM    106  H   UNL     1      -3.597  14.384  17.904  0.00  0.00    +0.058 HD
BRANCH 105 107
ATOM    107  C   UNL     1      -7.025  13.964  17.436  0.00  0.00    -0.041 C 
ATOM    108  H   UNL     1      -7.775  14.709  17.162  0.00  0.00    +0.028 HD
ATOM    109  H   UNL     1      -7.160  13.130  16.739  0.00  0.00    +0.028 HD
ATOM    110  H   UNL     1      -7.237  13.603  18.451  0.00  0.00    +0.028 HD
ENDBRANCH 105 107
BRANCH 105 111
ATOM    111  C   UNL     1      -5.497  15.840  16.646  0.00  0.00    +0.073 C 
ATOM    112  H   UNL     1      -6.483  16.316  16.613  0.00  0.00    +0.064 HD
BRANCH 111 113
ATOM    113  C   UNL     1      -4.955  15.712  15.222  0.00  0.00    -0.035 C 
ATOM    114  H   UNL     1      -3.881  15.494  15.237  0.00  0.00    +0.026 HD
ATOM    115  H   UNL     1      -5.440  14.889  14.685  0.00  0.00    +0.026 HD
ATOM    116  H   UNL     1      -5.106  16.635  14.652  0.00  0.00    +0.026 HD
ENDBRANCH 111 113
BRANCH 111 117
ATOM    117  O   UNL     1      -4.633  16.731  17.354  0.00  0.00    -0.388 OA
ATOM    118  H   UNL     1      -4.029  16.181  17.883  0.00  0.00    +0.210 HD
ENDBRANCH 111 117
ENDBRANCH 105 111
ENDBRANCH  98 104
ENDBRANCH  95  98
ENDBRANCH  92  95
ENDBRANCH  73  92
ENDBRANCH  61  64
ENDBRANCH   1  61
TORSDOF 27
ENDMDL
MODEL 9
REMARK VINA RESULT:      -6.9      1.556      2.857
REMARK  Name = Bistramide A_conf1
REMARK  27 active torsions:
REMARK  status: ('A' for Active; 'I' for Inactive)
REMARK    1  A    between atoms: C_1  and  C_2
REMARK    2  A    between atoms: C_3  and  C_4
REMARK    3  A    between atoms: C_4  and  C_6
REMARK    4  A    between atoms: C_6  and  C_7
REMARK    5  A    between atoms: C_10  and  C_50
REMARK    6  A    between atoms: C_11  and  C_13
REMARK    7  A    between atoms: C_13  and  C_14
REMARK    8  A    between atoms: N_16  and  C_17
REMARK    9  A    between atoms: C_17  and  C_18
REMARK   10  A    between atoms: C_18  and  C_19
REMARK   11  A    between atoms: C_18  and  O_49
REMARK   12  A    between atoms: C_19  and  C_20
REMARK   13  A    between atoms: C_19  and  C_21
REMARK   14  A    between atoms: N_23  and  C_24
REMARK   15  A    between atoms: C_24  and  C_25
REMARK   16  A    between atoms: C_25  and  C_26
REMARK   17  A    between atoms: C_26  and  C_27
REMARK   18  A    between atoms: C_28  and  C_48
REMARK   19  A    between atoms: C_36  and  C_38
REMARK   20  A    between atoms: C_38  and  C_39
REMARK   21  A    between atoms: C_39  and  C_40
REMARK   22  A    between atoms: C_40  and  C_41
REMARK   23  A    between atoms: C_40  and  C_42
REMARK   24  A    between atoms: C_43  and  C_44
REMARK   25  A    between atoms: C_43  and  C_45
REMARK   26  A    between atoms: C_45  and  C_46
REMARK   27  A    between atoms: C_45  and  O_47
REMARK                            x       y       z     vdW  Elec       q    Type
REMARK                         _______ _______ _______ _____ _____    ______ ____
ROOT
ATOM      1  C   UNL     1       6.153  15.775  25.203  0.00  0.00    -0.035 C 
ATOM      2  H   UNL     1       5.780  16.310  26.087  0.00  0.00    +0.028 HD
ATOM      3  H   UNL     1       6.624  16.532  24.567  0.00  0.00    +0.028 HD
ENDROOT
BRANCH   1   4
ATOM      4  C   UNL     1       4.964  15.128  24.497  0.00  0.00    +0.012 C 
ATOM      5  H   UNL     1       5.188  14.106  24.172  0.00  0.00    +0.046 HD
ATOM      6  H   UNL     1       4.104  15.063  25.177  0.00  0.00    +0.046 HD
BRANCH   4   9
ATOM      7  C   UNL     1       3.811  15.256  22.323  0.00  0.00    +0.218 C 
ATOM      8  O   UNL     1       3.271  14.160  22.451  0.00  0.00    -0.275 OA
ATOM      9  N   UNL     1       4.571  15.844  23.305  0.00  0.00    -0.315 N 
ATOM     10  H   UNL     1       5.042  16.718  23.063  0.00  0.00    +0.149 HD
BRANCH   7  11
ATOM     11  C   UNL     1       3.699  16.054  21.028  0.00  0.00    +0.060 C 
ATOM     12  H   UNL     1       2.720  15.798  20.597  0.00  0.00    +0.042 HD
BRANCH  11  13
ATOM     13  C   UNL     1       3.711  17.552  21.327  0.00  0.00    -0.052 C 
ATOM     14  H   UNL     1       2.721  18.003  21.237  0.00  0.00    +0.024 HD
ATOM     15  H   UNL     1       4.077  17.733  22.343  0.00  0.00    +0.024 HD
ATOM     16  H   UNL     1       4.373  18.078  20.632  0.00  0.00    +0.024 HD
ENDBRANCH  11  13
BRANCH  11  17
ATOM     17  C   UNL     1       4.782  15.636  20.009  0.00  0.00    +0.081 C 
ATOM     18  H   UNL     1       4.981  16.487  19.354  0.00  0.00    +0.062 HD
BRANCH  17  19
ATOM     19  C   UNL     1       4.353  14.411  19.169  0.00  0.00    +0.038 C 
ATOM     20  H   UNL     1       5.148  14.115  18.478  0.00  0.00    +0.049 HD
ATOM     21  H   UNL     1       4.119  13.561  19.821  0.00  0.00    +0.049 HD
BRANCH  19  24
ATOM     22  C   UNL     1       2.036  13.803  18.421  0.00  0.00    +0.216 C 
ATOM     23  O   UNL     1       1.995  12.757  19.060  0.00  0.00    -0.276 OA
ATOM     24  N   UNL     1       3.162  14.596  18.350  0.00  0.00    -0.313 N 
ATOM     25  H   UNL     1       3.104  15.449  17.807  0.00  0.00    +0.149 HD
BRANCH  22  26
ATOM     26  C   UNL     1       0.841  14.401  17.707  0.00  0.00    +0.050 C 
ATOM     27  H   UNL     1       1.153  15.417  17.425  0.00  0.00    +0.038 HD
ATOM     28  H   UNL     1       0.648  13.825  16.795  0.00  0.00    +0.038 HD
BRANCH  26  33
ATOM     29  C   UNL     1      -2.770  15.033  18.415  0.00  0.00    +0.066 C 
ATOM     30  C   UNL     1      -2.694  15.877  19.693  0.00  0.00    -0.026 C 
ATOM     31  C   UNL     1      -1.538  15.456  20.598  0.00  0.00    -0.046 C 
ATOM     32  C   UNL     1      -0.217  15.366  19.822  0.00  0.00    -0.017 C 
ATOM     33  C   UNL     1      -0.414  14.457  18.586  0.00  0.00    +0.070 C 
ATOM     34  O   UNL     1      -1.488  14.951  17.772  0.00  0.00    -0.372 OA
ATOM     35  H   UNL     1      -3.407  15.572  17.703  0.00  0.00    +0.060 HD
ATOM     36  H   UNL     1      -3.636  15.847  20.251  0.00  0.00    +0.029 HD
ATOM     37  H   UNL     1      -2.541  16.926  19.405  0.00  0.00    +0.029 HD
ATOM     38  H   UNL     1      -1.762  14.476  21.039  0.00  0.00    +0.027 HD
ATOM     39  H   UNL     1      -1.449  16.160  21.437  0.00  0.00    +0.027 HD
ATOM     40  H   UNL     1       0.530  14.906  20.485  0.00  0.00    +0.032 HD
ATOM     41  H   UNL     1      -0.673  13.451  18.942  0.00  0.00    +0.060 HD
BRANCH  32  42
ATOM     42  C   UNL     1       0.293  16.774  19.465  0.00  0.00    -0.060 C 
ATOM     43  H   UNL     1       0.474  17.383  20.359  0.00  0.00    +0.023 HD
ATOM     44  H   UNL     1      -0.433  17.303  18.840  0.00  0.00    +0.023 HD
ATOM     45  H   UNL     1       1.229  16.711  18.897  0.00  0.00    +0.023 HD
ENDBRANCH  32  42
BRANCH  29  46
ATOM     46  C   UNL     1      -3.376  13.640  18.634  0.00  0.00    +0.036 C 
ATOM     47  H   UNL     1      -3.334  13.354  19.691  0.00  0.00    +0.037 HD
ATOM     48  H   UNL     1      -2.794  12.888  18.080  0.00  0.00    +0.037 HD
BRANCH  46  49
ATOM     49  C   UNL     1      -4.807  13.576  18.136  0.00  0.00    +0.158 C 
ATOM     50  O   UNL     1      -5.567  14.537  18.193  0.00  0.00    -0.293 OA
BRANCH  49  52
ATOM     51  C   UNL     1      -5.228  11.153  18.256  0.00  0.00    -0.084 C 
ATOM     52  C   UNL     1      -5.249  12.283  17.535  0.00  0.00    -0.023 C 
ATOM     53  H   UNL     1      -4.889  11.179  19.293  0.00  0.00    +0.057 HD
ATOM     54  H   UNL     1      -5.576  12.299  16.502  0.00  0.00    +0.065 HD
BRANCH  51  55
ATOM     55  C   UNL     1      -5.650   9.815  17.743  0.00  0.00    -0.046 C 
ATOM     56  H   UNL     1      -5.277   9.673  16.724  0.00  0.00    +0.027 HD
ATOM     57  H   UNL     1      -6.738   9.695  17.730  0.00  0.00    +0.027 HD
ATOM     58  H   UNL     1      -5.229   9.025  18.373  0.00  0.00    +0.027 HD
ENDBRANCH  51  55
ENDBRANCH  49  52
ENDBRANCH  46  49
ENDBRANCH  29  46
ENDBRANCH  26  33
ENDBRANCH  22  26
ENDBRANCH  19  24
ENDBRANCH  17  19
BRANCH  17  59
ATOM     59  O   UNL     1       5.995  15.353  20.718  0.00  0.00    -0.390 OA
ATOM     60  H   UNL     1       5.734  14.817  21.501  0.00  0.00    +0.210 HD
ENDBRANCH  17  59
ENDBRANCH  11  17
ENDBRANCH   7  11
ENDBRANCH   4   9
ENDBRANCH   1   4
BRANCH   1  61
ATOM     61  C   UNL     1       7.197  14.738  25.642  0.00  0.00    -0.025 C 
ATOM     62  H   UNL     1       7.491  14.987  26.671  0.00  0.00    +0.029 HD
ATOM     63  H   UNL     1       6.732  13.748  25.666  0.00  0.00    +0.029 HD
BRANCH  61  64
ATOM     64  C   UNL     1       8.457  14.739  24.754  0.00  0.00    +0.065 C 
ATOM     65  C   UNL     1       9.619  13.957  25.411  0.00  0.00    -0.017 C 
ATOM     66  C   UNL     1      10.981  14.425  24.873  0.00  0.00    -0.043 C 
ATOM     67  C   UNL     1      10.823  15.067  23.499  0.00  0.00    +0.002 C 
ATOM     68  C   UNL     1       9.863  16.281  23.558  0.00  0.00    +0.171 C 
ATOM     69  O   UNL     1       8.862  16.100  24.570  0.00  0.00    -0.345 OA
ATOM     70  C   UNL     1      10.653  17.556  23.934  0.00  0.00    +0.002 C 
ATOM     71  C   UNL     1      11.222  18.242  22.710  0.00  0.00    -0.046 C 
ATOM     72  C   UNL     1      10.122  18.575  21.707  0.00  0.00    -0.026 C 
ATOM     73  C   UNL     1       8.879  17.681  21.820  0.00  0.00    +0.062 C 
ATOM     74  O   UNL     1       9.258  16.374  22.262  0.00  0.00    -0.345 OA
ATOM     75  H   UNL     1       8.215  14.309  23.776  0.00  0.00    +0.060 HD
ATOM     76  H   UNL     1       9.614  14.145  26.494  0.00  0.00    +0.032 HD
ATOM     77  H   UNL     1      11.406  15.161  25.569  0.00  0.00    +0.027 HD
ATOM     78  H   UNL     1      11.699  13.599  24.820  0.00  0.00    +0.027 HD
ATOM     79  H   UNL     1      10.438  14.317  22.796  0.00  0.00    +0.032 HD
ATOM     80  H   UNL     1      11.798  15.361  23.097  0.00  0.00    +0.032 HD
ATOM     81  H   UNL     1      11.454  17.323  24.645  0.00  0.00    +0.032 HD
ATOM     82  H   UNL     1      10.012  18.266  24.469  0.00  0.00    +0.032 HD
ATOM     83  H   UNL     1      11.960  17.588  22.231  0.00  0.00    +0.027 HD
ATOM     84  H   UNL     1      11.755  19.158  22.994  0.00  0.00    +0.027 HD
ATOM     85  H   UNL     1      10.549  18.456  20.701  0.00  0.00    +0.029 HD
ATOM     86  H   UNL     1       9.864  19.637  21.778  0.00  0.00    +0.029 HD
ATOM     87  H   UNL     1       8.502  17.545  20.800  0.00  0.00    +0.060 HD
BRANCH  65  88
ATOM     88  C   UNL     1       9.452  12.446  25.210  0.00  0.00    -0.060 C 
ATOM     89  H   UNL     1       8.504  12.092  25.630  0.00  0.00    +0.023 HD
ATOM     90  H   UNL     1      10.260  11.881  25.680  0.00  0.00    +0.023 HD
ATOM     91  H   UNL     1       9.456  12.195  24.141  0.00  0.00    +0.023 HD
ENDBRANCH  65  88
BRANCH  73  92
ATOM     92  C   UNL     1       7.705  18.244  22.639  0.00  0.00    -0.026 C 
ATOM     93  H   UNL     1       6.981  17.432  22.782  0.00  0.00    +0.029 HD
ATOM     94  H   UNL     1       8.032  18.524  23.641  0.00  0.00    +0.029 HD
BRANCH  92  95
ATOM     95  C   UNL     1       6.990  19.444  21.999  0.00  0.00    -0.045 C 
ATOM     96  H   UNL     1       7.464  19.686  21.042  0.00  0.00    +0.027 HD
ATOM     97  H   UNL     1       5.963  19.152  21.775  0.00  0.00    +0.027 HD
BRANCH  95  98
ATOM     98  C   UNL     1       7.029  20.706  22.888  0.00  0.00    -0.025 C 
ATOM     99  H   UNL     1       6.737  20.380  23.896  0.00  0.00    +0.034 HD
BRANCH  98 100
ATOM    100  C   UNL     1       6.030  21.786  22.471  0.00  0.00    -0.059 C 
ATOM    101  H   UNL     1       5.287  21.954  23.256  0.00  0.00    +0.024 HD
ATOM    102  H   UNL     1       5.499  21.512  21.558  0.00  0.00    +0.024 HD
ATOM    103  H   UNL     1       6.532  22.740  22.289  0.00  0.00    +0.024 HD
ENDBRANCH  98 100
BRANCH  98 104
ATOM    104  C   UNL     1       8.417  21.295  23.060  0.00  0.00    -0.080 C 
ATOM    105  C   UNL     1       9.260  21.272  24.118  0.00  0.00    -0.048 C 
ATOM    106  H   UNL     1       8.751  21.802  22.154  0.00  0.00    +0.058 HD
BRANCH 105 107
ATOM    107  C   UNL     1       8.978  20.503  25.381  0.00  0.00    -0.041 C 
ATOM    108  H   UNL     1       8.562  19.512  25.189  0.00  0.00    +0.028 HD
ATOM    109  H   UNL     1       9.901  20.336  25.947  0.00  0.00    +0.028 HD
ATOM    110  H   UNL     1       8.282  21.065  26.016  0.00  0.00    +0.028 HD
ENDBRANCH 105 107
BRANCH 105 111
ATOM    111  C   UNL     1      10.615  21.977  24.106  0.00  0.00    +0.073 C 
ATOM    112  H   UNL     1      11.372  21.287  23.718  0.00  0.00    +0.064 HD
BRANCH 111 113
ATOM    113  C   UNL     1      11.047  22.469  25.488  0.00  0.00    -0.035 C 
ATOM    114  H   UNL     1      11.075  21.637  26.201  0.00  0.00    +0.026 HD
ATOM    115  H   UNL     1      12.056  22.897  25.459  0.00  0.00    +0.026 HD
ATOM    116  H   UNL     1      10.359  23.228  25.876  0.00  0.00    +0.026 HD
ENDBRANCH 111 113
BRANCH 111 117
ATOM    117  O   UNL     1      10.605  23.108  23.233  0.00  0.00    -0.388 OA
ATOM    118  H   UNL     1      11.513  23.458  23.211  0.00  0.00    +0.210 HD
ENDBRANCH 111 117
ENDBRANCH 105 111
ENDBRANCH  98 104
ENDBRANCH  95  98
ENDBRANCH  92  95
ENDBRANCH  73  92
ENDBRANCH  61  64
ENDBRANCH   1  61
TORSDOF 27
ENDMDL
MODEL 10
REMARK VINA RESULT:      -6.9      2.031      4.055
REMARK  Name = Bistramide A_conf1
REMARK  27 active torsions:
REMARK  status: ('A' for Active; 'I' for Inactive)
REMARK    1  A    between atoms: C_1  and  C_2
REMARK    2  A    between atoms: C_3  and  C_4
REMARK    3  A    between atoms: C_4  and  C_6
REMARK    4  A    between atoms: C_6  and  C_7
REMARK    5  A    between atoms: C_10  and  C_50
REMARK    6  A    between atoms: C_11  and  C_13
REMARK    7  A    between atoms: C_13  and  C_14
REMARK    8  A    between atoms: N_16  and  C_17
REMARK    9  A    between atoms: C_17  and  C_18
REMARK   10  A    between atoms: C_18  and  C_19
REMARK   11  A    between atoms: C_18  and  O_49
REMARK   12  A    between atoms: C_19  and  C_20
REMARK   13  A    between atoms: C_19  and  C_21
REMARK   14  A    between atoms: N_23  and  C_24
REMARK   15  A    between atoms: C_24  and  C_25
REMARK   16  A    between atoms: C_25  and  C_26
REMARK   17  A    between atoms: C_26  and  C_27
REMARK   18  A    between atoms: C_28  and  C_48
REMARK   19  A    between atoms: C_36  and  C_38
REMARK   20  A    between atoms: C_38  and  C_39
REMARK   21  A    between atoms: C_39  and  C_40
REMARK   22  A    between atoms: C_40  and  C_41
REMARK   23  A    between atoms: C_40  and  C_42
REMARK   24  A    between atoms: C_43  and  C_44
REMARK   25  A    between atoms: C_43  and  C_45
REMARK   26  A    between atoms: C_45  and  C_46
REMARK   27  A    between atoms: C_45  and  O_47
REMARK                            x       y       z     vdW  Elec       q    Type
REMARK                         _______ _______ _______ _____ _____    ______ ____
ROOT
ATOM      1  C   UNL     1       5.770  17.610  21.255  0.00  0.00    -0.035 C 
ATOM      2  H   UNL     1       6.067  18.662  21.149  0.00  0.00    +0.028 HD
ATOM      3  H   UNL     1       6.681  17.022  21.094  0.00  0.00    +0.028 HD
ENDROOT
BRANCH   1   4
ATOM      4  C   UNL     1       4.720  17.297  20.193  0.00  0.00    +0.012 C 
ATOM      5  H   UNL     1       3.863  17.977  20.253  0.00  0.00    +0.046 HD
ATOM      6  H   UNL     1       5.146  17.413  19.187  0.00  0.00    +0.046 HD
BRANCH   4   9
ATOM      7  C   UNL     1       4.633  14.918  19.561  0.00  0.00    +0.218 C 
ATOM      8  O   UNL     1       5.628  14.986  18.844  0.00  0.00    -0.275 OA
ATOM      9  N   UNL     1       4.177  15.965  20.325  0.00  0.00    -0.315 N 
ATOM     10  H   UNL     1       3.294  15.827  20.819  0.00  0.00    +0.149 HD
BRANCH   7  11
ATOM     11  C   UNL     1       3.792  13.647  19.639  0.00  0.00    +0.060 C 
ATOM     12  H   UNL     1       4.311  12.901  19.021  0.00  0.00    +0.042 HD
BRANCH  11  13
ATOM     13  C   UNL     1       3.747  13.130  21.075  0.00  0.00    -0.052 C 
ATOM     14  H   UNL     1       2.741  13.163  21.500  0.00  0.00    +0.024 HD
ATOM     15  H   UNL     1       4.101  12.095  21.117  0.00  0.00    +0.024 HD
ATOM     16  H   UNL     1       4.392  13.734  21.722  0.00  0.00    +0.024 HD
ENDBRANCH  11  13
BRANCH  11  17
ATOM     17  C   UNL     1       2.387  13.860  19.033  0.00  0.00    +0.081 C 
ATOM     18  H   UNL     1       2.473  14.576  18.213  0.00  0.00    +0.062 HD
BRANCH  17  19
ATOM     19  C   UNL     1       1.371  14.375  20.079  0.00  0.00    +0.038 C 
ATOM     20  H   UNL     1       1.366  13.735  20.965  0.00  0.00    +0.049 HD
ATOM     21  H   UNL     1       1.621  15.398  20.385  0.00  0.00    +0.049 HD
BRANCH  19  24
ATOM     22  C   UNL     1      -0.690  15.618  19.367  0.00  0.00    +0.216 C 
ATOM     23  O   UNL     1      -0.244  16.725  19.651  0.00  0.00    -0.276 OA
ATOM     24  N   UNL     1      -0.014  14.445  19.629  0.00  0.00    -0.313 N 
ATOM     25  H   UNL     1      -0.452  13.576  19.352  0.00  0.00    +0.149 HD
BRANCH  22  26
ATOM     26  C   UNL     1      -1.987  15.401  18.615  0.00  0.00    +0.050 C 
ATOM     27  H   UNL     1      -2.347  16.409  18.366  0.00  0.00    +0.038 HD
ATOM     28  H   UNL     1      -1.773  14.863  17.685  0.00  0.00    +0.038 HD
BRANCH  26  33
ATOM     29  C   UNL     1      -5.263  13.703  19.186  0.00  0.00    +0.066 C 
ATOM     30  C   UNL     1      -5.733  14.364  20.489  0.00  0.00    -0.026 C 
ATOM     31  C   UNL     1      -4.573  14.680  21.431  0.00  0.00    -0.046 C 
ATOM     32  C   UNL     1      -3.450  15.437  20.709  0.00  0.00    -0.017 C 
ATOM     33  C   UNL     1      -3.038  14.650  19.441  0.00  0.00    +0.070 C 
ATOM     34  O   UNL     1      -4.178  14.438  18.596  0.00  0.00    -0.372 OA
ATOM     35  H   UNL     1      -6.084  13.785  18.464  0.00  0.00    +0.060 HD
ATOM     36  H   UNL     1      -6.477  13.748  21.006  0.00  0.00    +0.029 HD
ATOM     37  H   UNL     1      -6.237  15.306  20.236  0.00  0.00    +0.029 HD
ATOM     38  H   UNL     1      -4.169  13.742  21.835  0.00  0.00    +0.027 HD
ATOM     39  H   UNL     1      -4.940  15.256  22.291  0.00  0.00    +0.027 HD
ATOM     40  H   UNL     1      -2.588  15.488  21.390  0.00  0.00    +0.032 HD
ATOM     41  H   UNL     1      -2.646  13.676  19.760  0.00  0.00    +0.060 HD
BRANCH  32  42
ATOM     42  C   UNL     1      -3.883  16.884  20.411  0.00  0.00    -0.060 C 
ATOM     43  H   UNL     1      -4.668  16.927  19.646  0.00  0.00    +0.023 HD
ATOM     44  H   UNL     1      -3.036  17.479  20.056  0.00  0.00    +0.023 HD
ATOM     45  H   UNL     1      -4.263  17.366  21.320  0.00  0.00    +0.023 HD
ENDBRANCH  32  42
BRANCH  29  46
ATOM     46  C   UNL     1      -4.913  12.218  19.343  0.00  0.00    +0.036 C 
ATOM     47  H   UNL     1      -4.624  11.987  20.375  0.00  0.00    +0.037 HD
ATOM     48  H   UNL     1      -4.047  11.969  18.710  0.00  0.00    +0.037 HD
BRANCH  46  49
ATOM     49  C   UNL     1      -6.067  11.331  18.917  0.00  0.00    +0.158 C 
ATOM     50  O   UNL     1      -7.215  11.510  19.310  0.00  0.00    -0.293 OA
BRANCH  49  52
ATOM     51  C   UNL     1      -4.951  10.455  16.903  0.00  0.00    -0.084 C 
ATOM     52  C   UNL     1      -5.747  10.230  17.959  0.00  0.00    -0.023 C 
ATOM     53  H   UNL     1      -4.529  11.448  16.745  0.00  0.00    +0.057 HD
ATOM     54  H   UNL     1      -6.187   9.260  18.151  0.00  0.00    +0.065 HD
BRANCH  51  55
ATOM     55  C   UNL     1      -4.575   9.420  15.894  0.00  0.00    -0.046 C 
ATOM     56  H   UNL     1      -4.199   9.904  14.987  0.00  0.00    +0.027 HD
ATOM     57  H   UNL     1      -5.419   8.779  15.616  0.00  0.00    +0.027 HD
ATOM     58  H   UNL     1      -3.781   8.781  16.294  0.00  0.00    +0.027 HD
ENDBRANCH  51  55
ENDBRANCH  49  52
ENDBRANCH  46  49
ENDBRANCH  29  46
ENDBRANCH  26  33
ENDBRANCH  22  26
ENDBRANCH  19  24
ENDBRANCH  17  19
BRANCH  17  59
ATOM     59  O   UNL     1       1.936  12.622  18.469  0.00  0.00    -0.390 OA
ATOM     60  H   UNL     1       2.289  11.913  19.055  0.00  0.00    +0.210 HD
ENDBRANCH  17  59
ENDBRANCH  11  17
ENDBRANCH   7  11
ENDBRANCH   4   9
ENDBRANCH   1   4
BRANCH   1  61
ATOM     61  C   UNL     1       5.242  17.375  22.677  0.00  0.00    -0.025 C 
ATOM     62  H   UNL     1       5.291  18.336  23.207  0.00  0.00    +0.029 HD
ATOM     63  H   UNL     1       4.188  17.084  22.625  0.00  0.00    +0.029 HD
BRANCH  61  64
ATOM     64  C   UNL     1       6.066  16.335  23.462  0.00  0.00    +0.065 C 
ATOM     65  C   UNL     1       5.310  15.837  24.716  0.00  0.00    -0.017 C 
ATOM     66  C   UNL     1       6.284  15.299  25.778  0.00  0.00    -0.043 C 
ATOM     67  C   UNL     1       7.597  14.871  25.132  0.00  0.00    +0.002 C 
ATOM     68  C   UNL     1       8.266  16.054  24.391  0.00  0.00    +0.171 C 
ATOM     69  O   UNL     1       7.284  16.964  23.876  0.00  0.00    -0.345 OA
ATOM     70  C   UNL     1       9.148  16.858  25.374  0.00  0.00    +0.002 C 
ATOM     71  C   UNL     1      10.551  16.295  25.455  0.00  0.00    -0.046 C 
ATOM     72  C   UNL     1      11.202  16.248  24.076  0.00  0.00    -0.026 C 
ATOM     73  C   UNL     1      10.203  16.180  22.913  0.00  0.00    +0.062 C 
ATOM     74  O   UNL     1       9.026  15.476  23.322  0.00  0.00    -0.345 OA
ATOM     75  H   UNL     1       6.310  15.493  22.806  0.00  0.00    +0.060 HD
ATOM     76  H   UNL     1       4.766  16.679  25.169  0.00  0.00    +0.032 HD
ATOM     77  H   UNL     1       6.485  16.091  26.513  0.00  0.00    +0.027 HD
ATOM     78  H   UNL     1       5.851  14.463  26.337  0.00  0.00    +0.027 HD
ATOM     79  H   UNL     1       7.399  14.051  24.430  0.00  0.00    +0.032 HD
ATOM     80  H   UNL     1       8.274  14.447  25.881  0.00  0.00    +0.032 HD
ATOM     81  H   UNL     1       8.692  16.887  26.371  0.00  0.00    +0.032 HD
ATOM     82  H   UNL     1       9.207  17.909  25.071  0.00  0.00    +0.032 HD
ATOM     83  H   UNL     1      10.519  15.283  25.873  0.00  0.00    +0.027 HD
ATOM     84  H   UNL     1      11.169  16.895  26.136  0.00  0.00    +0.027 HD
ATOM     85  H   UNL     1      11.837  15.351  24.045  0.00  0.00    +0.029 HD
ATOM     86  H   UNL     1      11.897  17.086  23.964  0.00  0.00    +0.029 HD
ATOM     87  H   UNL     1      10.665  15.552  22.143  0.00  0.00    +0.060 HD
BRANCH  65  88
ATOM     88  C   UNL     1       4.273  14.769  24.349  0.00  0.00    -0.060 C 
ATOM     89  H   UNL     1       4.307  13.925  25.048  0.00  0.00    +0.023 HD
ATOM     90  H   UNL     1       4.431  14.377  23.341  0.00  0.00    +0.023 HD
ATOM     91  H   UNL     1       3.259  15.187  24.382  0.00  0.00    +0.023 HD
ENDBRANCH  65  88
BRANCH  73  92
ATOM     92  C   UNL     1       9.862  17.515  22.228  0.00  0.00    -0.026 C 
ATOM     93  H   UNL     1      10.135  17.422  21.169  0.00  0.00    +0.029 HD
ATOM     94  H   UNL     1       8.785  17.690  22.238  0.00  0.00    +0.029 HD
BRANCH  92  95
ATOM     95  C   UNL     1      10.570  18.743  22.821  0.00  0.00    -0.045 C 
ATOM     96  H   UNL     1      10.824  18.550  23.869  0.00  0.00    +0.027 HD
ATOM     97  H   UNL     1      11.512  18.886  22.291  0.00  0.00    +0.027 HD
BRANCH  95  98
ATOM     98  C   UNL     1       9.700  20.018  22.765  0.00  0.00    -0.025 C 
ATOM     99  H   UNL     1       9.275  20.055  21.752  0.00  0.00    +0.034 HD
BRANCH  98 100
ATOM    100  C   UNL     1      10.490  21.312  22.954  0.00  0.00    -0.059 C 
ATOM    101  H   UNL     1      10.462  21.924  22.047  0.00  0.00    +0.024 HD
ATOM    102  H   UNL     1      11.537  21.115  23.194  0.00  0.00    +0.024 HD
ATOM    103  H   UNL     1      10.073  21.916  23.766  0.00  0.00    +0.024 HD
ENDBRANCH  98 100
BRANCH  98 104
ATOM    104  C   UNL     1       8.495  19.982  23.688  0.00  0.00    -0.080 C 
ATOM    105  C   UNL     1       7.252  20.491  23.535  0.00  0.00    -0.048 C 
ATOM    106  H   UNL     1       8.714  19.440  24.609  0.00  0.00    +0.058 HD
BRANCH 105 107
ATOM    107  C   UNL     1       6.780  21.149  22.266  0.00  0.00    -0.041 C 
ATOM    108  H   UNL     1       6.052  20.545  21.721  0.00  0.00    +0.028 HD
ATOM    109  H   UNL     1       6.278  22.098  22.486  0.00  0.00    +0.028 HD
ATOM    110  H   UNL     1       7.635  21.356  21.610  0.00  0.00    +0.028 HD
ENDBRANCH 105 107
BRANCH 105 111
ATOM    111  C   UNL     1       6.181  20.387  24.620  0.00  0.00    +0.073 C 
ATOM    112  H   UNL     1       5.210  20.212  24.145  0.00  0.00    +0.064 HD
BRANCH 111 113
ATOM    113  C   UNL     1       6.092  21.638  25.495  0.00  0.00    -0.035 C 
ATOM    114  H   UNL     1       7.077  22.107  25.597  0.00  0.00    +0.026 HD
ATOM    115  H   UNL     1       5.428  22.388  25.049  0.00  0.00    +0.026 HD
ATOM    116  H   UNL     1       5.722  21.399  26.498  0.00  0.00    +0.026 HD
ENDBRANCH 111 113
BRANCH 111 117
ATOM    117  O   UNL     1       6.423  19.277  25.485  0.00  0.00    -0.388 OA
ATOM    118  H   UNL     1       5.834  18.558  25.197  0.00  0.00    +0.210 HD
ENDBRANCH 111 117
ENDBRANCH 105 111
ENDBRANCH  98 104
ENDBRANCH  95  98
ENDBRANCH  92  95
ENDBRANCH  73  92
ENDBRANCH  61  64
ENDBRANCH   1  61
TORSDOF 27
ENDMDL
