MODEL 1
REMARK VINA RESULT:      -7.0      0.000      0.000
REMARK  Name = Bistramide A_conf3
REMARK  27 active torsions:
REMARK  status: ('A' for Active; 'I' for Inactive)
REMARK    1  A    between atoms: C_1  and  C_2
REMARK    2  A    between atoms: C_3  and  C_4
REMARK    3  A    between atoms: C_4  and  C_6
REMARK    4  A    between atoms: C_6  and  C_7
REMARK    5  A    between atoms: C_10  and  C_50
REMARK    6  A    between atoms: C_11  and  C_13
REMARK    7  A    between atoms: C_13  and  C_14
REMARK    8  A    between atoms: N_16  and  C_17
REMARK    9  A    between atoms: C_17  and  C_18
REMARK   10  A    between atoms: C_18  and  C_19
REMARK   11  A    between atoms: C_18  and  O_49
REMARK   12  A    between atoms: C_19  and  C_20
REMARK   13  A    between atoms: C_19  and  C_21
REMARK   14  A    between atoms: N_23  and  C_24
REMARK   15  A    between atoms: C_24  and  C_25
REMARK   16  A    between atoms: C_25  and  C_26
REMARK   17  A    between atoms: C_26  and  C_27
REMARK   18  A    between atoms: C_28  and  C_48
REMARK   19  A    between atoms: C_36  and  C_38
REMARK   20  A    between atoms: C_38  and  C_39
REMARK   21  A    between atoms: C_39  and  C_40
REMARK   22  A    between atoms: C_40  and  C_41
REMARK   23  A    between atoms: C_40  and  C_42
REMARK   24  A    between atoms: C_43  and  C_44
REMARK   25  A    between atoms: C_43  and  C_45
REMARK   26  A    between atoms: C_45  and  C_46
REMARK   27  A    between atoms: C_45  and  O_47
REMARK                            x       y       z     vdW  Elec       q    Type
REMARK                         _______ _______ _______ _____ _____    ______ ____
ROOT
ATOM      1  C   UNL     1      10.992  18.458  22.418  0.00  0.00    -0.035 C 
ATOM      2  H   UNL     1      11.884  18.950  22.015  0.00  0.00    +0.028 HD
ATOM      3  H   UNL     1      11.291  17.441  22.691  0.00  0.00    +0.028 HD
ENDROOT
BRANCH   1   4
ATOM      4  C   UNL     1       9.928  18.380  21.323  0.00  0.00    +0.012 C 
ATOM      5  H   UNL     1      10.361  18.671  20.361  0.00  0.00    +0.046 HD
ATOM      6  H   UNL     1       9.550  17.356  21.224  0.00  0.00    +0.046 HD
BRANCH   4   9
ATOM      7  C   UNL     1       7.494  18.755  21.564  0.00  0.00    +0.218 C 
ATOM      8  O   UNL     1       7.225  17.572  21.360  0.00  0.00    -0.275 OA
ATOM      9  N   UNL     1       8.790  19.236  21.589  0.00  0.00    -0.315 N 
ATOM     10  H   UNL     1       8.959  20.223  21.751  0.00  0.00    +0.149 HD
BRANCH   7  11
ATOM     11  C   UNL     1       6.443  19.847  21.758  0.00  0.00    +0.060 C 
ATOM     12  H   UNL     1       5.627  19.402  22.344  0.00  0.00    +0.042 HD
BRANCH  11  13
ATOM     13  C   UNL     1       7.102  20.964  22.570  0.00  0.00    -0.052 C 
ATOM     14  H   UNL     1       8.188  20.824  22.635  0.00  0.00    +0.024 HD
ATOM     15  H   UNL     1       6.894  21.947  22.146  0.00  0.00    +0.024 HD
ATOM     16  H   UNL     1       6.731  20.997  23.597  0.00  0.00    +0.024 HD
ENDBRANCH  11  13
BRANCH  11  17
ATOM     17  C   UNL     1       5.874  20.330  20.402  0.00  0.00    +0.081 C 
ATOM     18  H   UNL     1       5.956  21.419  20.317  0.00  0.00    +0.062 HD
BRANCH  17  19
ATOM     19  C   UNL     1       4.414  19.916  20.123  0.00  0.00    +0.038 C 
ATOM     20  H   UNL     1       3.737  20.674  20.541  0.00  0.00    +0.049 HD
ATOM     21  H   UNL     1       4.230  19.933  19.039  0.00  0.00    +0.049 HD
BRANCH  19  24
ATOM     22  C   UNL     1       4.167  17.464  20.023  0.00  0.00    +0.216 C 
ATOM     23  O   UNL     1       4.691  17.389  18.917  0.00  0.00    -0.276 OA
ATOM     24  N   UNL     1       3.999  18.652  20.702  0.00  0.00    -0.313 N 
ATOM     25  H   UNL     1       3.495  18.659  21.580  0.00  0.00    +0.149 HD
BRANCH  22  26
ATOM     26  C   UNL     1       3.633  16.258  20.764  0.00  0.00    +0.050 C 
ATOM     27  H   UNL     1       2.799  16.599  21.392  0.00  0.00    +0.038 HD
ATOM     28  H   UNL     1       4.385  15.861  21.455  0.00  0.00    +0.038 HD
BRANCH  26  33
ATOM     29  C   UNL     1       1.037  14.313  18.923  0.00  0.00    +0.066 C 
ATOM     30  C   UNL     1       1.989  13.357  18.200  0.00  0.00    -0.026 C 
ATOM     31  C   UNL     1       2.987  12.725  19.168  0.00  0.00    -0.046 C 
ATOM     32  C   UNL     1       3.513  13.730  20.218  0.00  0.00    -0.017 C 
ATOM     33  C   UNL     1       3.129  15.173  19.808  0.00  0.00    +0.070 C 
ATOM     34  O   UNL     1       1.700  15.307  19.721  0.00  0.00    -0.372 OA
ATOM     35  H   UNL     1       0.435  13.724  19.627  0.00  0.00    +0.060 HD
ATOM     36  H   UNL     1       1.438  12.568  17.679  0.00  0.00    +0.029 HD
ATOM     37  H   UNL     1       2.546  13.897  17.423  0.00  0.00    +0.029 HD
ATOM     38  H   UNL     1       2.519  11.856  19.650  0.00  0.00    +0.027 HD
ATOM     39  H   UNL     1       3.832  12.330  18.583  0.00  0.00    +0.027 HD
ATOM     40  H   UNL     1       4.607  13.637  20.242  0.00  0.00    +0.032 HD
ATOM     41  H   UNL     1       3.541  15.394  18.813  0.00  0.00    +0.060 HD
BRANCH  32  42
ATOM     42  C   UNL     1       2.996  13.340  21.609  0.00  0.00    -0.060 C 
ATOM     43  H   UNL     1       3.798  13.345  22.353  0.00  0.00    +0.023 HD
ATOM     44  H   UNL     1       2.215  14.021  21.957  0.00  0.00    +0.023 HD
ATOM     45  H   UNL     1       2.583  12.327  21.606  0.00  0.00    +0.023 HD
ENDBRANCH  32  42
BRANCH  29  46
ATOM     46  C   UNL     1       0.107  15.045  17.959  0.00  0.00    +0.036 C 
ATOM     47  H   UNL     1       0.014  14.493  17.016  0.00  0.00    +0.037 HD
ATOM     48  H   UNL     1       0.521  16.016  17.660  0.00  0.00    +0.037 HD
BRANCH  46  49
ATOM     49  C   UNL     1      -1.275  15.224  18.545  0.00  0.00    +0.158 C 
ATOM     50  O   UNL     1      -1.568  16.239  19.179  0.00  0.00    -0.293 OA
BRANCH  49  52
ATOM     51  C   UNL     1      -3.440  14.055  19.086  0.00  0.00    -0.084 C 
ATOM     52  C   UNL     1      -2.331  14.197  18.341  0.00  0.00    -0.023 C 
ATOM     53  H   UNL     1      -3.652  14.706  19.931  0.00  0.00    +0.057 HD
ATOM     54  H   UNL     1      -2.140  13.540  17.495  0.00  0.00    +0.065 HD
BRANCH  51  55
ATOM     55  C   UNL     1      -4.459  12.992  18.822  0.00  0.00    -0.046 C 
ATOM     56  H   UNL     1      -4.683  12.459  19.748  0.00  0.00    +0.027 HD
ATOM     57  H   UNL     1      -4.069  12.279  18.088  0.00  0.00    +0.027 HD
ATOM     58  H   UNL     1      -5.394  13.407  18.434  0.00  0.00    +0.027 HD
ENDBRANCH  51  55
ENDBRANCH  49  52
ENDBRANCH  46  49
ENDBRANCH  29  46
ENDBRANCH  26  33
ENDBRANCH  22  26
ENDBRANCH  19  24
ENDBRANCH  17  19
BRANCH  17  59
ATOM     59  O   UNL     1       6.645  19.768  19.321  0.00  0.00    -0.390 OA
ATOM     60  H   UNL     1       6.180  19.930  18.483  0.00  0.00    +0.210 HD
ENDBRANCH  17  59
ENDBRANCH  11  17
ENDBRANCH   7  11
ENDBRANCH   4   9
ENDBRANCH   1   4
BRANCH   1  61
ATOM     61  C   UNL     1      10.503  19.195  23.674  0.00  0.00    -0.025 C 
ATOM     62  H   UNL     1       9.506  19.604  23.476  0.00  0.00    +0.029 HD
ATOM     63  H   UNL     1      11.168  20.044  23.876  0.00  0.00    +0.029 HD
BRANCH  61  64
ATOM     64  C   UNL     1      10.482  18.279  24.908  0.00  0.00    +0.065 C 
ATOM     65  C   UNL     1      11.168  18.917  26.135  0.00  0.00    -0.017 C 
ATOM     66  C   UNL     1      11.280  17.896  27.279  0.00  0.00    -0.043 C 
ATOM     67  C   UNL     1      11.899  16.589  26.783  0.00  0.00    +0.002 C 
ATOM     68  C   UNL     1      11.156  16.058  25.551  0.00  0.00    +0.171 C 
ATOM     69  O   UNL     1      11.161  17.072  24.544  0.00  0.00    -0.345 OA
ATOM     70  C   UNL     1      11.902  14.843  24.981  0.00  0.00    +0.002 C 
ATOM     71  C   UNL     1      11.183  14.280  23.750  0.00  0.00    -0.046 C 
ATOM     72  C   UNL     1       9.670  14.466  23.839  0.00  0.00    -0.026 C 
ATOM     73  C   UNL     1       9.226  14.599  25.294  0.00  0.00    +0.062 C 
ATOM     74  O   UNL     1       9.818  15.730  25.945  0.00  0.00    -0.345 OA
ATOM     75  H   UNL     1       9.436  18.051  25.138  0.00  0.00    +0.060 HD
ATOM     76  H   UNL     1      12.188  19.204  25.852  0.00  0.00    +0.032 HD
ATOM     77  H   UNL     1      11.893  18.302  28.091  0.00  0.00    +0.027 HD
ATOM     78  H   UNL     1      10.287  17.698  27.704  0.00  0.00    +0.027 HD
ATOM     79  H   UNL     1      11.877  15.851  27.592  0.00  0.00    +0.032 HD
ATOM     80  H   UNL     1      12.950  16.787  26.534  0.00  0.00    +0.032 HD
ATOM     81  H   UNL     1      11.954  14.056  25.746  0.00  0.00    +0.032 HD
ATOM     82  H   UNL     1      12.932  15.100  24.700  0.00  0.00    +0.032 HD
ATOM     83  H   UNL     1      11.549  14.763  22.835  0.00  0.00    +0.027 HD
ATOM     84  H   UNL     1      11.431  13.216  23.649  0.00  0.00    +0.027 HD
ATOM     85  H   UNL     1       9.408  15.374  23.284  0.00  0.00    +0.029 HD
ATOM     86  H   UNL     1       9.163  13.636  23.336  0.00  0.00    +0.029 HD
ATOM     87  H   UNL     1       9.553  13.705  25.845  0.00  0.00    +0.060 HD
BRANCH  65  88
ATOM     88  C   UNL     1      10.441  20.167  26.637  0.00  0.00    -0.060 C 
ATOM     89  H   UNL     1      10.839  21.068  26.164  0.00  0.00    +0.023 HD
ATOM     90  H   UNL     1      10.554  20.282  27.721  0.00  0.00    +0.023 HD
ATOM     91  H   UNL     1       9.369  20.122  26.409  0.00  0.00    +0.023 HD
ENDBRANCH  65  88
BRANCH  73  92
ATOM     92  C   UNL     1       7.701  14.694  25.466  0.00  0.00    -0.026 C 
ATOM     93  H   UNL     1       7.497  14.832  26.529  0.00  0.00    +0.029 HD
ATOM     94  H   UNL     1       7.253  13.738  25.171  0.00  0.00    +0.029 HD
BRANCH  92  95
ATOM     95  C   UNL     1       7.043  15.835  24.675  0.00  0.00    -0.045 C 
ATOM     96  H   UNL     1       7.146  15.622  23.602  0.00  0.00    +0.027 HD
ATOM     97  H   UNL     1       7.591  16.762  24.864  0.00  0.00    +0.027 HD
BRANCH  95  98
ATOM     98  C   UNL     1       5.549  16.099  24.960  0.00  0.00    -0.025 C 
ATOM     99  H   UNL     1       5.442  16.019  26.047  0.00  0.00    +0.034 HD
BRANCH  98 100
ATOM    100  C   UNL     1       4.642  15.029  24.354  0.00  0.00    -0.059 C 
ATOM    101  H   UNL     1       3.772  14.857  24.998  0.00  0.00    +0.024 HD
ATOM    102  H   UNL     1       5.171  14.079  24.251  0.00  0.00    +0.024 HD
ATOM    103  H   UNL     1       4.263  15.315  23.368  0.00  0.00    +0.024 HD
ENDBRANCH  98 100
BRANCH  98 104
ATOM    104  C   UNL     1       5.111  17.471  24.486  0.00  0.00    -0.080 C 
ATOM    105  C   UNL     1       4.252  18.326  25.083  0.00  0.00    -0.048 C 
ATOM    106  H   UNL     1       5.559  17.758  23.539  0.00  0.00    +0.058 HD
BRANCH 105 107
ATOM    107  C   UNL     1       3.522  18.024  26.375  0.00  0.00    -0.041 C 
ATOM    108  H   UNL     1       3.954  18.516  27.247  0.00  0.00    +0.028 HD
ATOM    109  H   UNL     1       2.473  18.332  26.299  0.00  0.00    +0.028 HD
ATOM    110  H   UNL     1       3.546  16.948  26.582  0.00  0.00    +0.028 HD
ENDBRANCH 105 107
BRANCH 105 111
ATOM    111  C   UNL     1       3.897  19.694  24.516  0.00  0.00    +0.073 C 
ATOM    112  H   UNL     1       4.825  20.206  24.240  0.00  0.00    +0.064 HD
BRANCH 111 113
ATOM    113  C   UNL     1       3.090  20.645  25.402  0.00  0.00    -0.035 C 
ATOM    114  H   UNL     1       2.381  20.102  26.035  0.00  0.00    +0.026 HD
ATOM    115  H   UNL     1       3.771  21.214  26.049  0.00  0.00    +0.026 HD
ATOM    116  H   UNL     1       2.545  21.382  24.802  0.00  0.00    +0.026 HD
ENDBRANCH 111 113
BRANCH 111 117
ATOM    117  O   UNL     1       3.153  19.495  23.314  0.00  0.00    -0.388 OA
ATOM    118  H   UNL     1       3.745  19.725  22.577  0.00  0.00    +0.210 HD
ENDBRANCH 111 117
ENDBRANCH 105 111
ENDBRANCH  98 104
ENDBRANCH  95  98
ENDBRANCH  92  95
ENDBRANCH  73  92
ENDBRANCH  61  64
ENDBRANCH   1  61
TORSDOF 27
ENDMDL
MODEL 2
REMARK VINA RESULT:      -6.5      5.161     12.873
REMARK  Name = Bistramide A_conf3
REMARK  27 active torsions:
REMARK  status: ('A' for Active; 'I' for Inactive)
REMARK    1  A    between atoms: C_1  and  C_2
REMARK    2  A    between atoms: C_3  and  C_4
REMARK    3  A    between atoms: C_4  and  C_6
REMARK    4  A    between atoms: C_6  and  C_7
REMARK    5  A    between atoms: C_10  and  C_50
REMARK    6  A    between atoms: C_11  and  C_13
REMARK    7  A    between atoms: C_13  and  C_14
REMARK    8  A    between atoms: N_16  and  C_17
REMARK    9  A    between atoms: C_17  and  C_18
REMARK   10  A    between atoms: C_18  and  C_19
REMARK   11  A    between atoms: C_18  and  O_49
REMARK   12  A    between atoms: C_19  and  C_20
REMARK   13  A    between atoms: C_19  and  C_21
REMARK   14  A    between atoms: N_23  and  C_24
REMARK   15  A    between atoms: C_24  and  C_25
REMARK   16  A    between atoms: C_25  and  C_26
REMARK   17  A    between atoms: C_26  and  C_27
REMARK   18  A    between atoms: C_28  and  C_48
REMARK   19  A    between atoms: C_36  and  C_38
REMARK   20  A    between atoms: C_38  and  C_39
REMARK   21  A    between atoms: C_39  and  C_40
REMARK   22  A    between atoms: C_40  and  C_41
REMARK   23  A    between atoms: C_40  and  C_42
REMARK   24  A    between atoms: C_43  and  C_44
REMARK   25  A    between atoms: C_43  and  C_45
REMARK   26  A    between atoms: C_45  and  C_46
REMARK   27  A    between atoms: C_45  and  O_47
REMARK                            x       y       z     vdW  Elec       q    Type
REMARK                         _______ _______ _______ _____ _____    ______ ____
ROOT
ATOM      1  C   UNL     1      -1.601  14.859  18.126  0.00  0.00    -0.035 C 
ATOM      2  H   UNL     1      -1.663  15.118  19.189  0.00  0.00    +0.028 HD
ATOM      3  H   UNL     1      -1.881  13.804  18.044  0.00  0.00    +0.028 HD
ENDROOT
BRANCH   1   4
ATOM      4  C   UNL     1      -0.155  15.020  17.658  0.00  0.00    +0.012 C 
ATOM      5  H   UNL     1       0.208  14.077  17.239  0.00  0.00    +0.046 HD
ATOM      6  H   UNL     1      -0.085  15.783  16.874  0.00  0.00    +0.046 HD
BRANCH   4   9
ATOM      7  C   UNL     1       1.418  14.488  19.493  0.00  0.00    +0.218 C 
ATOM      8  O   UNL     1       1.348  13.277  19.290  0.00  0.00    -0.275 OA
ATOM      9  N   UNL     1       0.737  15.418  18.728  0.00  0.00    -0.315 N 
ATOM     10  H   UNL     1       0.820  16.406  18.942  0.00  0.00    +0.149 HD
BRANCH   7  11
ATOM     11  C   UNL     1       2.213  15.116  20.637  0.00  0.00    +0.060 C 
ATOM     12  H   UNL     1       1.662  16.015  20.949  0.00  0.00    +0.042 HD
BRANCH  11  13
ATOM     13  C   UNL     1       2.225  14.102  21.783  0.00  0.00    -0.052 C 
ATOM     14  H   UNL     1       1.328  14.193  22.407  0.00  0.00    +0.024 HD
ATOM     15  H   UNL     1       2.302  13.079  21.415  0.00  0.00    +0.024 HD
ATOM     16  H   UNL     1       3.081  14.246  22.446  0.00  0.00    +0.024 HD
ENDBRANCH  11  13
BRANCH  11  17
ATOM     17  C   UNL     1       3.629  15.537  20.176  0.00  0.00    +0.081 C 
ATOM     18  H   UNL     1       4.389  14.906  20.648  0.00  0.00    +0.062 HD
BRANCH  17  19
ATOM     19  C   UNL     1       3.983  17.017  20.425  0.00  0.00    +0.038 C 
ATOM     20  H   UNL     1       3.190  17.483  21.027  0.00  0.00    +0.049 HD
ATOM     21  H   UNL     1       4.889  17.077  21.047  0.00  0.00    +0.049 HD
BRANCH  19  24
ATOM     22  C   UNL     1       5.006  18.888  19.186  0.00  0.00    +0.216 C 
ATOM     23  O   UNL     1       5.758  19.178  20.110  0.00  0.00    -0.276 OA
ATOM     24  N   UNL     1       4.112  17.840  19.237  0.00  0.00    -0.313 N 
ATOM     25  H   UNL     1       3.468  17.695  18.470  0.00  0.00    +0.149 HD
BRANCH  22  26
ATOM     26  C   UNL     1       4.967  19.659  17.884  0.00  0.00    +0.050 C 
ATOM     27  H   UNL     1       4.685  18.954  17.091  0.00  0.00    +0.038 HD
ATOM     28  H   UNL     1       5.964  20.026  17.618  0.00  0.00    +0.038 HD
BRANCH  26  33
ATOM     29  C   UNL     1       1.546  21.143  17.791  0.00  0.00    +0.066 C 
ATOM     30  C   UNL     1       1.966  22.607  17.950  0.00  0.00    -0.026 C 
ATOM     31  C   UNL     1       3.073  22.979  16.967  0.00  0.00    -0.046 C 
ATOM     32  C   UNL     1       4.128  21.860  16.809  0.00  0.00    -0.017 C 
ATOM     33  C   UNL     1       3.947  20.801  17.923  0.00  0.00    +0.070 C 
ATOM     34  O   UNL     1       2.637  20.211  17.848  0.00  0.00    -0.372 OA
ATOM     35  H   UNL     1       1.107  21.022  16.792  0.00  0.00    +0.060 HD
ATOM     36  H   UNL     1       1.115  23.280  17.812  0.00  0.00    +0.029 HD
ATOM     37  H   UNL     1       2.327  22.786  18.971  0.00  0.00    +0.029 HD
ATOM     38  H   UNL     1       2.623  23.238  15.999  0.00  0.00    +0.027 HD
ATOM     39  H   UNL     1       3.563  23.896  17.330  0.00  0.00    +0.027 HD
ATOM     40  H   UNL     1       5.117  22.326  16.906  0.00  0.00    +0.032 HD
ATOM     41  H   UNL     1       4.033  21.285  18.907  0.00  0.00    +0.060 HD
BRANCH  32  42
ATOM     42  C   UNL     1       4.045  21.269  15.395  0.00  0.00    -0.060 C 
ATOM     43  H   UNL     1       3.065  21.444  14.941  0.00  0.00    +0.023 HD
ATOM     44  H   UNL     1       4.801  21.698  14.732  0.00  0.00    +0.023 HD
ATOM     45  H   UNL     1       4.189  20.184  15.413  0.00  0.00    +0.023 HD
ENDBRANCH  32  42
BRANCH  29  46
ATOM     46  C   UNL     1       0.523  20.716  18.841  0.00  0.00    +0.036 C 
ATOM     47  H   UNL     1      -0.394  20.352  18.362  0.00  0.00    +0.037 HD
ATOM     48  H   UNL     1       0.188  21.568  19.446  0.00  0.00    +0.037 HD
BRANCH  46  49
ATOM     49  C   UNL     1       1.063  19.622  19.732  0.00  0.00    +0.158 C 
ATOM     50  O   UNL     1       1.032  18.442  19.379  0.00  0.00    -0.293 OA
BRANCH  49  52
ATOM     51  C   UNL     1       2.525  20.961  21.287  0.00  0.00    -0.084 C 
ATOM     52  C   UNL     1       1.684  19.942  21.045  0.00  0.00    -0.023 C 
ATOM     53  H   UNL     1       2.830  21.652  20.504  0.00  0.00    +0.057 HD
ATOM     54  H   UNL     1       1.386  19.266  21.844  0.00  0.00    +0.065 HD
BRANCH  51  55
ATOM     55  C   UNL     1       3.115  21.220  22.636  0.00  0.00    -0.046 C 
ATOM     56  H   UNL     1       4.174  21.461  22.536  0.00  0.00    +0.027 HD
ATOM     57  H   UNL     1       3.012  20.327  23.263  0.00  0.00    +0.027 HD
ATOM     58  H   UNL     1       2.624  22.055  23.147  0.00  0.00    +0.027 HD
ENDBRANCH  51  55
ENDBRANCH  49  52
ENDBRANCH  46  49
ENDBRANCH  29  46
ENDBRANCH  26  33
ENDBRANCH  22  26
ENDBRANCH  19  24
ENDBRANCH  17  19
BRANCH  17  59
ATOM     59  O   UNL     1       3.755  15.347  18.753  0.00  0.00    -0.390 OA
ATOM     60  H   UNL     1       3.848  16.215  18.324  0.00  0.00    +0.210 HD
ENDBRANCH  17  59
ENDBRANCH  11  17
ENDBRANCH   7  11
ENDBRANCH   4   9
ENDBRANCH   1   4
BRANCH   1  61
ATOM     61  C   UNL     1      -2.590  15.709  17.315  0.00  0.00    -0.025 C 
ATOM     62  H   UNL     1      -2.285  15.695  16.263  0.00  0.00    +0.029 HD
ATOM     63  H   UNL     1      -2.533  16.751  17.656  0.00  0.00    +0.029 HD
BRANCH  61  64
ATOM     64  C   UNL     1      -4.037  15.215  17.470  0.00  0.00    +0.065 C 
ATOM     65  C   UNL     1      -5.018  15.940  16.523  0.00  0.00    -0.017 C 
ATOM     66  C   UNL     1      -6.467  15.542  16.844  0.00  0.00    -0.043 C 
ATOM     67  C   UNL     1      -6.756  15.697  18.337  0.00  0.00    +0.002 C 
ATOM     68  C   UNL     1      -5.711  14.959  19.182  0.00  0.00    +0.171 C 
ATOM     69  O   UNL     1      -4.414  15.448  18.832  0.00  0.00    -0.345 OA
ATOM     70  C   UNL     1      -5.932  15.273  20.669  0.00  0.00    +0.002 C 
ATOM     71  C   UNL     1      -4.907  14.547  21.547  0.00  0.00    -0.046 C 
ATOM     72  C   UNL     1      -4.493  13.204  20.947  0.00  0.00    -0.026 C 
ATOM     73  C   UNL     1      -5.576  12.674  20.009  0.00  0.00    +0.062 C 
ATOM     74  O   UNL     1      -5.825  13.557  18.907  0.00  0.00    -0.345 OA
ATOM     75  H   UNL     1      -4.047  14.140  17.270  0.00  0.00    +0.060 HD
ATOM     76  H   UNL     1      -4.930  17.020  16.693  0.00  0.00    +0.032 HD
ATOM     77  H   UNL     1      -7.167  16.162  16.274  0.00  0.00    +0.027 HD
ATOM     78  H   UNL     1      -6.648  14.502  16.538  0.00  0.00    +0.027 HD
ATOM     79  H   UNL     1      -7.761  15.316  18.551  0.00  0.00    +0.032 HD
ATOM     80  H   UNL     1      -6.744  16.769  18.573  0.00  0.00    +0.032 HD
ATOM     81  H   UNL     1      -6.939  14.948  20.964  0.00  0.00    +0.032 HD
ATOM     82  H   UNL     1      -5.861  16.352  20.866  0.00  0.00    +0.032 HD
ATOM     83  H   UNL     1      -4.011  15.165  21.688  0.00  0.00    +0.027 HD
ATOM     84  H   UNL     1      -5.334  14.401  22.547  0.00  0.00    +0.027 HD
ATOM     85  H   UNL     1      -3.559  13.356  20.392  0.00  0.00    +0.029 HD
ATOM     86  H   UNL     1      -4.269  12.492  21.748  0.00  0.00    +0.029 HD
ATOM     87  H   UNL     1      -6.517  12.589  20.571  0.00  0.00    +0.060 HD
BRANCH  65  88
ATOM     88  C   UNL     1      -4.729  15.664  15.045  0.00  0.00    -0.060 C 
ATOM     89  H   UNL     1      -4.126  16.463  14.608  0.00  0.00    +0.023 HD
ATOM     90  H   UNL     1      -5.657  15.591  14.468  0.00  0.00    +0.023 HD
ATOM     91  H   UNL     1      -4.174  14.726  14.918  0.00  0.00    +0.023 HD
ENDBRANCH  65  88
BRANCH  73  92
ATOM     92  C   UNL     1      -5.268  11.279  19.441  0.00  0.00    -0.026 C 
ATOM     93  H   UNL     1      -6.033  10.596  19.815  0.00  0.00    +0.029 HD
ATOM     94  H   UNL     1      -4.306  10.939  19.844  0.00  0.00    +0.029 HD
BRANCH  92  95
ATOM     95  C   UNL     1      -5.236  11.210  17.907  0.00  0.00    -0.045 C 
ATOM     96  H   UNL     1      -4.301  11.666  17.555  0.00  0.00    +0.027 HD
ATOM     97  H   UNL     1      -6.052  11.819  17.506  0.00  0.00    +0.027 HD
BRANCH  95  98
ATOM     98  C   UNL     1      -5.339   9.804  17.279  0.00  0.00    -0.025 C 
ATOM     99  H   UNL     1      -4.692   9.165  17.888  0.00  0.00    +0.034 HD
BRANCH  98 100
ATOM    100  C   UNL     1      -4.782   9.759  15.857  0.00  0.00    -0.059 C 
ATOM    101  H   UNL     1      -5.453  10.282  15.167  0.00  0.00    +0.024 HD
ATOM    102  H   UNL     1      -4.686   8.728  15.507  0.00  0.00    +0.024 HD
ATOM    103  H   UNL     1      -3.800  10.236  15.778  0.00  0.00    +0.024 HD
ENDBRANCH  98 100
BRANCH  98 104
ATOM    104  C   UNL     1      -6.761   9.277  17.288  0.00  0.00    -0.080 C 
ATOM    105  C   UNL     1      -7.340   8.451  18.185  0.00  0.00    -0.048 C 
ATOM    106  H   UNL     1      -7.350   9.624  16.442  0.00  0.00    +0.058 HD
BRANCH 105 107
ATOM    107  C   UNL     1      -6.616   7.856  19.375  0.00  0.00    -0.041 C 
ATOM    108  H   UNL     1      -6.634   6.767  19.398  0.00  0.00    +0.028 HD
ATOM    109  H   UNL     1      -5.567   8.175  19.379  0.00  0.00    +0.028 HD
ATOM    110  H   UNL     1      -7.078   8.195  20.308  0.00  0.00    +0.028 HD
ENDBRANCH 105 107
BRANCH 105 111
ATOM    111  C   UNL     1      -8.791   7.997  18.098  0.00  0.00    +0.073 C 
ATOM    112  H   UNL     1      -8.920   7.424  17.173  0.00  0.00    +0.064 HD
BRANCH 111 113
ATOM    113  C   UNL     1      -9.878   9.074  18.128  0.00  0.00    -0.035 C 
ATOM    114  H   UNL     1     -10.301   9.247  17.133  0.00  0.00    +0.026 HD
ATOM    115  H   UNL     1     -10.687   8.763  18.802  0.00  0.00    +0.026 HD
ATOM    116  H   UNL     1      -9.491  10.019  18.524  0.00  0.00    +0.026 HD
ENDBRANCH 111 113
BRANCH 111 117
ATOM    117  O   UNL     1      -9.043   7.105  19.183  0.00  0.00    -0.388 OA
ATOM    118  H   UNL     1      -9.387   7.644  19.915  0.00  0.00    +0.210 HD
ENDBRANCH 111 117
ENDBRANCH 105 111
ENDBRANCH  98 104
ENDBRANCH  95  98
ENDBRANCH  92  95
ENDBRANCH  73  92
ENDBRANCH  61  64
ENDBRANCH   1  61
TORSDOF 27
ENDMDL
MODEL 3
REMARK VINA RESULT:      -6.5      2.620      5.785
REMARK  Name = Bistramide A_conf3
REMARK  27 active torsions:
REMARK  status: ('A' for Active; 'I' for Inactive)
REMARK    1  A    between atoms: C_1  and  C_2
REMARK    2  A    between atoms: C_3  and  C_4
REMARK    3  A    between atoms: C_4  and  C_6
REMARK    4  A    between atoms: C_6  and  C_7
REMARK    5  A    between atoms: C_10  and  C_50
REMARK    6  A    between atoms: C_11  and  C_13
REMARK    7  A    between atoms: C_13  and  C_14
REMARK    8  A    between atoms: N_16  and  C_17
REMARK    9  A    between atoms: C_17  and  C_18
REMARK   10  A    between atoms: C_18  and  C_19
REMARK   11  A    between atoms: C_18  and  O_49
REMARK   12  A    between atoms: C_19  and  C_20
REMARK   13  A    between atoms: C_19  and  C_21
REMARK   14  A    between atoms: N_23  and  C_24
REMARK   15  A    between atoms: C_24  and  C_25
REMARK   16  A    between atoms: C_25  and  C_26
REMARK   17  A    between atoms: C_26  and  C_27
REMARK   18  A    between atoms: C_28  and  C_48
REMARK   19  A    between atoms: C_36  and  C_38
REMARK   20  A    between atoms: C_38  and  C_39
REMARK   21  A    between atoms: C_39  and  C_40
REMARK   22  A    between atoms: C_40  and  C_41
REMARK   23  A    between atoms: C_40  and  C_42
REMARK   24  A    between atoms: C_43  and  C_44
REMARK   25  A    between atoms: C_43  and  C_45
REMARK   26  A    between atoms: C_45  and  C_46
REMARK   27  A    between atoms: C_45  and  O_47
REMARK                            x       y       z     vdW  Elec       q    Type
REMARK                         _______ _______ _______ _____ _____    ______ ____
ROOT
ATOM      1  C   UNL     1       6.693  15.938  22.261  0.00  0.00    -0.035 C 
ATOM      2  H   UNL     1       7.538  15.269  22.457  0.00  0.00    +0.028 HD
ATOM      3  H   UNL     1       5.989  15.804  23.089  0.00  0.00    +0.028 HD
ENDROOT
BRANCH   1   4
ATOM      4  C   UNL     1       6.010  15.511  20.962  0.00  0.00    +0.012 C 
ATOM      5  H   UNL     1       6.028  16.336  20.243  0.00  0.00    +0.046 HD
ATOM      6  H   UNL     1       6.536  14.663  20.510  0.00  0.00    +0.046 HD
BRANCH   4   9
ATOM      7  C   UNL     1       4.029  14.154  20.362  0.00  0.00    +0.218 C 
ATOM      8  O   UNL     1       4.627  13.559  19.467  0.00  0.00    -0.275 OA
ATOM      9  N   UNL     1       4.633  15.109  21.161  0.00  0.00    -0.315 N 
ATOM     10  H   UNL     1       4.094  15.579  21.880  0.00  0.00    +0.149 HD
BRANCH   7  11
ATOM     11  C   UNL     1       2.545  13.964  20.671  0.00  0.00    +0.060 C 
ATOM     12  H   UNL     1       2.247  13.007  20.218  0.00  0.00    +0.042 HD
BRANCH  11  13
ATOM     13  C   UNL     1       2.412  13.870  22.192  0.00  0.00    -0.052 C 
ATOM     14  H   UNL     1       2.604  12.851  22.549  0.00  0.00    +0.024 HD
ATOM     15  H   UNL     1       3.089  14.559  22.699  0.00  0.00    +0.024 HD
ATOM     16  H   UNL     1       1.408  14.135  22.532  0.00  0.00    +0.024 HD
ENDBRANCH  11  13
BRANCH  11  17
ATOM     17  C   UNL     1       1.690  15.094  20.050  0.00  0.00    +0.081 C 
ATOM     18  H   UNL     1       2.056  16.074  20.374  0.00  0.00    +0.062 HD
BRANCH  17  19
ATOM     19  C   UNL     1       0.178  15.004  20.342  0.00  0.00    +0.038 C 
ATOM     20  H   UNL     1      -0.015  14.134  20.986  0.00  0.00    +0.049 HD
ATOM     21  H   UNL     1      -0.132  15.876  20.937  0.00  0.00    +0.049 HD
BRANCH  19  24
ATOM     22  C   UNL     1      -1.712  15.707  18.922  0.00  0.00    +0.216 C 
ATOM     23  O   UNL     1      -1.963  16.682  19.622  0.00  0.00    -0.276 OA
ATOM     24  N   UNL     1      -0.676  14.835  19.182  0.00  0.00    -0.313 N 
ATOM     25  H   UNL     1      -0.563  14.009  18.608  0.00  0.00    +0.149 HD
BRANCH  22  26
ATOM     26  C   UNL     1      -2.520  15.344  17.695  0.00  0.00    +0.050 C 
ATOM     27  H   UNL     1      -2.206  14.341  17.377  0.00  0.00    +0.038 HD
ATOM     28  H   UNL     1      -2.280  16.011  16.859  0.00  0.00    +0.038 HD
BRANCH  26  33
ATOM     29  C   UNL     1      -5.846  13.744  18.231  0.00  0.00    +0.066 C 
ATOM     30  C   UNL     1      -6.646  15.031  18.453  0.00  0.00    -0.026 C 
ATOM     31  C   UNL     1      -6.370  16.055  17.354  0.00  0.00    -0.046 C 
ATOM     32  C   UNL     1      -4.880  16.103  16.948  0.00  0.00    -0.017 C 
ATOM     33  C   UNL     1      -4.025  15.331  17.981  0.00  0.00    +0.070 C 
ATOM     34  O   UNL     1      -4.437  13.955  18.047  0.00  0.00    -0.372 OA
ATOM     35  H   UNL     1      -6.199  13.282  17.300  0.00  0.00    +0.060 HD
ATOM     36  H   UNL     1      -7.720  14.826  18.499  0.00  0.00    +0.029 HD
ATOM     37  H   UNL     1      -6.383  15.475  19.422  0.00  0.00    +0.029 HD
ATOM     38  H   UNL     1      -7.010  15.835  16.489  0.00  0.00    +0.027 HD
ATOM     39  H   UNL     1      -6.684  17.045  17.720  0.00  0.00    +0.027 HD
ATOM     40  H   UNL     1      -4.576  17.158  16.939  0.00  0.00    +0.032 HD
ATOM     41  H   UNL     1      -4.172  15.767  18.980  0.00  0.00    +0.060 HD
BRANCH  32  42
ATOM     42  C   UNL     1      -4.718  15.576  15.516  0.00  0.00    -0.060 C 
ATOM     43  H   UNL     1      -4.562  14.494  15.499  0.00  0.00    +0.023 HD
ATOM     44  H   UNL     1      -5.597  15.794  14.903  0.00  0.00    +0.023 HD
ATOM     45  H   UNL     1      -3.847  16.023  15.027  0.00  0.00    +0.023 HD
ENDBRANCH  32  42
BRANCH  29  46
ATOM     46  C   UNL     1      -6.015  12.751  19.378  0.00  0.00    +0.036 C 
ATOM     47  H   UNL     1      -6.840  13.055  20.035  0.00  0.00    +0.037 HD
ATOM     48  H   UNL     1      -5.138  12.746  20.038  0.00  0.00    +0.037 HD
BRANCH  46  49
ATOM     49  C   UNL     1      -6.297  11.356  18.871  0.00  0.00    +0.158 C 
ATOM     50  O   UNL     1      -7.359  10.790  19.130  0.00  0.00    -0.293 OA
BRANCH  49  52
ATOM     51  C   UNL     1      -5.534  10.216  16.758  0.00  0.00    -0.084 C 
ATOM     52  C   UNL     1      -5.315  10.642  18.012  0.00  0.00    -0.023 C 
ATOM     53  H   UNL     1      -6.490  10.364  16.260  0.00  0.00    +0.057 HD
ATOM     54  H   UNL     1      -4.349  10.490  18.491  0.00  0.00    +0.065 HD
BRANCH  51  55
ATOM     55  C   UNL     1      -4.496   9.499  15.955  0.00  0.00    -0.046 C 
ATOM     56  H   UNL     1      -4.566   9.802  14.908  0.00  0.00    +0.027 HD
ATOM     57  H   UNL     1      -4.657   8.418  16.022  0.00  0.00    +0.027 HD
ATOM     58  H   UNL     1      -3.482   9.717  16.304  0.00  0.00    +0.027 HD
ENDBRANCH  51  55
ENDBRANCH  49  52
ENDBRANCH  46  49
ENDBRANCH  29  46
ENDBRANCH  26  33
ENDBRANCH  22  26
ENDBRANCH  19  24
ENDBRANCH  17  19
BRANCH  17  59
ATOM     59  O   UNL     1       1.805  15.061  18.613  0.00  0.00    -0.390 OA
ATOM     60  H   UNL     1       1.222  14.364  18.265  0.00  0.00    +0.210 HD
ENDBRANCH  17  59
ENDBRANCH  11  17
ENDBRANCH   7  11
ENDBRANCH   4   9
ENDBRANCH   1   4
BRANCH   1  61
ATOM     61  C   UNL     1       7.168  17.399  22.233  0.00  0.00    -0.025 C 
ATOM     62  H   UNL     1       6.584  17.973  22.960  0.00  0.00    +0.029 HD
ATOM     63  H   UNL     1       6.965  17.825  21.243  0.00  0.00    +0.029 HD
BRANCH  61  64
ATOM     64  C   UNL     1       8.673  17.520  22.525  0.00  0.00    +0.065 C 
ATOM     65  C   UNL     1       9.394  18.471  21.545  0.00  0.00    -0.017 C 
ATOM     66  C   UNL     1      10.915  18.415  21.764  0.00  0.00    -0.043 C 
ATOM     67  C   UNL     1      11.412  16.969  21.767  0.00  0.00    +0.002 C 
ATOM     68  C   UNL     1      10.612  16.112  22.756  0.00  0.00    +0.171 C 
ATOM     69  O   UNL     1       9.226  16.203  22.422  0.00  0.00    -0.345 OA
ATOM     70  C   UNL     1      11.022  14.639  22.613  0.00  0.00    +0.002 C 
ATOM     71  C   UNL     1      10.247  13.750  23.592  0.00  0.00    -0.046 C 
ATOM     72  C   UNL     1       9.917  14.487  24.889  0.00  0.00    -0.026 C 
ATOM     73  C   UNL     1      10.897  15.634  25.125  0.00  0.00    +0.062 C 
ATOM     74  O   UNL     1      10.858  16.611  24.078  0.00  0.00    -0.345 OA
ATOM     75  H   UNL     1       8.787  17.882  23.552  0.00  0.00    +0.060 HD
ATOM     76  H   UNL     1       9.199  18.127  20.522  0.00  0.00    +0.032 HD
ATOM     77  H   UNL     1      11.432  18.974  20.978  0.00  0.00    +0.027 HD
ATOM     78  H   UNL     1      11.175  18.898  22.716  0.00  0.00    +0.027 HD
ATOM     79  H   UNL     1      12.477  16.956  22.021  0.00  0.00    +0.032 HD
ATOM     80  H   UNL     1      11.301  16.573  20.749  0.00  0.00    +0.032 HD
ATOM     81  H   UNL     1      12.095  14.537  22.822  0.00  0.00    +0.032 HD
ATOM     82  H   UNL     1      10.847  14.272  21.592  0.00  0.00    +0.032 HD
ATOM     83  H   UNL     1       9.314  13.396  23.136  0.00  0.00    +0.027 HD
ATOM     84  H   UNL     1      10.840  12.852  23.804  0.00  0.00    +0.027 HD
ATOM     85  H   UNL     1       8.896  14.878  24.805  0.00  0.00    +0.029 HD
ATOM     86  H   UNL     1       9.912  13.781  25.726  0.00  0.00    +0.029 HD
ATOM     87  H   UNL     1      11.918  15.225  25.145  0.00  0.00    +0.060 HD
BRANCH  65  88
ATOM     88  C   UNL     1       8.915  19.919  21.663  0.00  0.00    -0.060 C 
ATOM     89  H   UNL     1       9.482  20.575  20.998  0.00  0.00    +0.023 HD
ATOM     90  H   UNL     1       9.036  20.294  22.685  0.00  0.00    +0.023 HD
ATOM     91  H   UNL     1       7.855  20.011  21.390  0.00  0.00    +0.023 HD
ENDBRANCH  65  88
BRANCH  73  92
ATOM     92  C   UNL     1      10.683  16.360  26.463  0.00  0.00    -0.026 C 
ATOM     93  H   UNL     1      11.510  16.087  27.122  0.00  0.00    +0.029 HD
ATOM     94  H   UNL     1       9.763  15.983  26.925  0.00  0.00    +0.029 HD
BRANCH  92  95
ATOM     95  C   UNL     1      10.612  17.890  26.351  0.00  0.00    -0.045 C 
ATOM     96  H   UNL     1      11.084  18.194  25.406  0.00  0.00    +0.027 HD
ATOM     97  H   UNL     1      11.206  18.335  27.154  0.00  0.00    +0.027 HD
BRANCH  95  98
ATOM     98  C   UNL     1       9.204  18.520  26.396  0.00  0.00    -0.025 C 
ATOM     99  H   UNL     1       9.130  19.134  25.493  0.00  0.00    +0.034 HD
BRANCH  98 100
ATOM    100  C   UNL     1       9.026  19.467  27.582  0.00  0.00    -0.059 C 
ATOM    101  H   UNL     1       8.910  20.499  27.232  0.00  0.00    +0.024 HD
ATOM    102  H   UNL     1       9.898  19.437  28.241  0.00  0.00    +0.024 HD
ATOM    103  H   UNL     1       8.142  19.226  28.180  0.00  0.00    +0.024 HD
ENDBRANCH  98 100
BRANCH  98 104
ATOM    104  C   UNL     1       8.110  17.470  26.412  0.00  0.00    -0.080 C 
ATOM    105  C   UNL     1       6.832  17.589  25.992  0.00  0.00    -0.048 C 
ATOM    106  H   UNL     1       8.435  16.521  26.832  0.00  0.00    +0.058 HD
BRANCH 105 107
ATOM    107  C   UNL     1       6.241  18.869  25.438  0.00  0.00    -0.041 C 
ATOM    108  H   UNL     1       6.699  19.773  25.841  0.00  0.00    +0.028 HD
ATOM    109  H   UNL     1       6.347  18.896  24.348  0.00  0.00    +0.028 HD
ATOM    110  H   UNL     1       5.174  18.929  25.677  0.00  0.00    +0.028 HD
ENDBRANCH 105 107
BRANCH 105 111
ATOM    111  C   UNL     1       5.819  16.453  26.044  0.00  0.00    +0.073 C 
ATOM    112  H   UNL     1       5.361  16.443  27.039  0.00  0.00    +0.064 HD
BRANCH 111 113
ATOM    113  C   UNL     1       6.321  15.037  25.753  0.00  0.00    -0.035 C 
ATOM    114  H   UNL     1       6.825  14.602  26.621  0.00  0.00    +0.026 HD
ATOM    115  H   UNL     1       5.473  14.393  25.483  0.00  0.00    +0.026 HD
ATOM    116  H   UNL     1       7.004  15.025  24.897  0.00  0.00    +0.026 HD
ENDBRANCH 111 113
BRANCH 111 117
ATOM    117  O   UNL     1       4.782  16.741  25.107  0.00  0.00    -0.388 OA
ATOM    118  H   UNL     1       5.213  16.893  24.249  0.00  0.00    +0.210 HD
ENDBRANCH 111 117
ENDBRANCH 105 111
ENDBRANCH  98 104
ENDBRANCH  95  98
ENDBRANCH  92  95
ENDBRANCH  73  92
ENDBRANCH  61  64
ENDBRANCH   1  61
TORSDOF 27
ENDMDL
MODEL 4
REMARK VINA RESULT:      -6.5      2.579      5.357
REMARK  Name = Bistramide A_conf3
REMARK  27 active torsions:
REMARK  status: ('A' for Active; 'I' for Inactive)
REMARK    1  A    between atoms: C_1  and  C_2
REMARK    2  A    between atoms: C_3  and  C_4
REMARK    3  A    between atoms: C_4  and  C_6
REMARK    4  A    between atoms: C_6  and  C_7
REMARK    5  A    between atoms: C_10  and  C_50
REMARK    6  A    between atoms: C_11  and  C_13
REMARK    7  A    between atoms: C_13  and  C_14
REMARK    8  A    between atoms: N_16  and  C_17
REMARK    9  A    between atoms: C_17  and  C_18
REMARK   10  A    between atoms: C_18  and  C_19
REMARK   11  A    between atoms: C_18  and  O_49
REMARK   12  A    between atoms: C_19  and  C_20
REMARK   13  A    between atoms: C_19  and  C_21
REMARK   14  A    between atoms: N_23  and  C_24
REMARK   15  A    between atoms: C_24  and  C_25
REMARK   16  A    between atoms: C_25  and  C_26
REMARK   17  A    between atoms: C_26  and  C_27
REMARK   18  A    between atoms: C_28  and  C_48
REMARK   19  A    between atoms: C_36  and  C_38
REMARK   20  A    between atoms: C_38  and  C_39
REMARK   21  A    between atoms: C_39  and  C_40
REMARK   22  A    between atoms: C_40  and  C_41
REMARK   23  A    between atoms: C_40  and  C_42
REMARK   24  A    between atoms: C_43  and  C_44
REMARK   25  A    between atoms: C_43  and  C_45
REMARK   26  A    between atoms: C_45  and  C_46
REMARK   27  A    between atoms: C_45  and  O_47
REMARK                            x       y       z     vdW  Elec       q    Type
REMARK                         _______ _______ _______ _____ _____    ______ ____
ROOT
ATOM      1  C   UNL     1       6.806  16.170  22.080  0.00  0.00    -0.035 C 
ATOM      2  H   UNL     1       7.576  15.619  21.528  0.00  0.00    +0.028 HD
ATOM      3  H   UNL     1       6.440  15.496  22.862  0.00  0.00    +0.028 HD
ENDROOT
BRANCH   1   4
ATOM      4  C   UNL     1       5.650  16.495  21.133  0.00  0.00    +0.012 C 
ATOM      5  H   UNL     1       4.981  17.225  21.599  0.00  0.00    +0.046 HD
ATOM      6  H   UNL     1       6.025  16.932  20.201  0.00  0.00    +0.046 HD
BRANCH   4   9
ATOM      7  C   UNL     1       4.390  15.131  19.498  0.00  0.00    +0.218 C 
ATOM      8  O   UNL     1       4.621  15.908  18.572  0.00  0.00    -0.275 OA
ATOM      9  N   UNL     1       4.873  15.325  20.779  0.00  0.00    -0.315 N 
ATOM     10  H   UNL     1       4.645  14.660  21.511  0.00  0.00    +0.149 HD
BRANCH   7  11
ATOM     11  C   UNL     1       3.502  13.894  19.370  0.00  0.00    +0.060 C 
ATOM     12  H   UNL     1       3.806  13.379  18.448  0.00  0.00    +0.042 HD
BRANCH  11  13
ATOM     13  C   UNL     1       3.803  13.000  20.576  0.00  0.00    -0.052 C 
ATOM     14  H   UNL     1       4.666  12.351  20.386  0.00  0.00    +0.024 HD
ATOM     15  H   UNL     1       3.989  13.587  21.476  0.00  0.00    +0.024 HD
ATOM     16  H   UNL     1       2.965  12.342  20.816  0.00  0.00    +0.024 HD
ENDBRANCH  11  13
BRANCH  11  17
ATOM     17  C   UNL     1       2.008  14.281  19.253  0.00  0.00    +0.081 C 
ATOM     18  H   UNL     1       1.832  14.861  18.341  0.00  0.00    +0.062 HD
BRANCH  17  19
ATOM     19  C   UNL     1       1.441  15.061  20.458  0.00  0.00    +0.038 C 
ATOM     20  H   UNL     1       2.030  14.821  21.354  0.00  0.00    +0.049 HD
ATOM     21  H   UNL     1       1.586  16.139  20.297  0.00  0.00    +0.049 HD
BRANCH  19  24
ATOM     22  C   UNL     1      -0.971  15.571  20.367  0.00  0.00    +0.216 C 
ATOM     23  O   UNL     1      -0.804  16.555  19.654  0.00  0.00    -0.276 OA
ATOM     24  N   UNL     1       0.062  14.768  20.801  0.00  0.00    -0.313 N 
ATOM     25  H   UNL     1      -0.131  14.011  21.446  0.00  0.00    +0.149 HD
BRANCH  22  26
ATOM     26  C   UNL     1      -2.332  15.134  20.862  0.00  0.00    +0.050 C 
ATOM     27  H   UNL     1      -2.888  16.038  21.140  0.00  0.00    +0.038 HD
ATOM     28  H   UNL     1      -2.241  14.543  21.780  0.00  0.00    +0.038 HD
BRANCH  26  33
ATOM     29  C   UNL     1      -4.546  14.823  17.876  0.00  0.00    +0.066 C 
ATOM     30  C   UNL     1      -4.576  13.293  17.817  0.00  0.00    -0.026 C 
ATOM     31  C   UNL     1      -4.908  12.689  19.179  0.00  0.00    -0.046 C 
ATOM     32  C   UNL     1      -4.208  13.427  20.343  0.00  0.00    -0.017 C 
ATOM     33  C   UNL     1      -3.117  14.374  19.788  0.00  0.00    +0.070 C 
ATOM     34  O   UNL     1      -3.700  15.352  18.909  0.00  0.00    -0.372 OA
ATOM     35  H   UNL     1      -5.559  15.173  18.117  0.00  0.00    +0.060 HD
ATOM     36  H   UNL     1      -5.300  12.941  17.075  0.00  0.00    +0.029 HD
ATOM     37  H   UNL     1      -3.601  12.911  17.489  0.00  0.00    +0.029 HD
ATOM     38  H   UNL     1      -5.998  12.680  19.313  0.00  0.00    +0.027 HD
ATOM     39  H   UNL     1      -4.595  11.633  19.172  0.00  0.00    +0.027 HD
ATOM     40  H   UNL     1      -3.740  12.665  20.980  0.00  0.00    +0.032 HD
ATOM     41  H   UNL     1      -2.391  13.795  19.199  0.00  0.00    +0.060 HD
BRANCH  32  42
ATOM     42  C   UNL     1      -5.256  14.149  21.199  0.00  0.00    -0.060 C 
ATOM     43  H   UNL     1      -5.753  14.947  20.642  0.00  0.00    +0.023 HD
ATOM     44  H   UNL     1      -6.029  13.463  21.557  0.00  0.00    +0.023 HD
ATOM     45  H   UNL     1      -4.794  14.622  22.072  0.00  0.00    +0.023 HD
ENDBRANCH  32  42
BRANCH  29  46
ATOM     46  C   UNL     1      -4.103  15.447  16.556  0.00  0.00    +0.036 C 
ATOM     47  H   UNL     1      -3.654  14.690  15.901  0.00  0.00    +0.037 HD
ATOM     48  H   UNL     1      -3.299  16.179  16.707  0.00  0.00    +0.037 HD
BRANCH  46  49
ATOM     49  C   UNL     1      -5.260  16.086  15.824  0.00  0.00    +0.158 C 
ATOM     50  O   UNL     1      -5.642  15.650  14.737  0.00  0.00    -0.293 OA
BRANCH  49  52
ATOM     51  C   UNL     1      -7.144  17.159  17.108  0.00  0.00    -0.084 C 
ATOM     52  C   UNL     1      -5.996  17.235  16.414  0.00  0.00    -0.023 C 
ATOM     53  H   UNL     1      -7.641  16.209  17.293  0.00  0.00    +0.057 HD
ATOM     54  H   UNL     1      -5.511  18.195  16.246  0.00  0.00    +0.065 HD
BRANCH  51  55
ATOM     55  C   UNL     1      -7.830  18.362  17.670  0.00  0.00    -0.046 C 
ATOM     56  H   UNL     1      -7.090  19.118  17.937  0.00  0.00    +0.027 HD
ATOM     57  H   UNL     1      -8.392  18.083  18.568  0.00  0.00    +0.027 HD
ATOM     58  H   UNL     1      -8.528  18.809  16.955  0.00  0.00    +0.027 HD
ENDBRANCH  51  55
ENDBRANCH  49  52
ENDBRANCH  46  49
ENDBRANCH  29  46
ENDBRANCH  26  33
ENDBRANCH  22  26
ENDBRANCH  19  24
ENDBRANCH  17  19
BRANCH  17  59
ATOM     59  O   UNL     1       1.202  13.091  19.153  0.00  0.00    -0.390 OA
ATOM     60  H   UNL     1       1.787  12.315  19.109  0.00  0.00    +0.210 HD
ENDBRANCH  17  59
ENDBRANCH  11  17
ENDBRANCH   7  11
ENDBRANCH   4   9
ENDBRANCH   1   4
BRANCH   1  61
ATOM     61  C   UNL     1       7.413  17.421  22.732  0.00  0.00    -0.025 C 
ATOM     62  H   UNL     1       6.955  17.561  23.717  0.00  0.00    +0.029 HD
ATOM     63  H   UNL     1       7.161  18.301  22.127  0.00  0.00    +0.029 HD
BRANCH  61  64
ATOM     64  C   UNL     1       8.942  17.323  22.851  0.00  0.00    +0.065 C 
ATOM     65  C   UNL     1       9.675  18.041  21.697  0.00  0.00    -0.017 C 
ATOM     66  C   UNL     1      11.185  17.760  21.762  0.00  0.00    -0.043 C 
ATOM     67  C   UNL     1      11.455  16.261  21.883  0.00  0.00    +0.002 C 
ATOM     68  C   UNL     1      10.661  15.647  23.042  0.00  0.00    +0.171 C 
ATOM     69  O   UNL     1       9.274  15.930  22.845  0.00  0.00    -0.345 OA
ATOM     70  C   UNL     1      10.823  14.120  23.030  0.00  0.00    +0.002 C 
ATOM     71  C   UNL     1      10.046  13.471  24.182  0.00  0.00    -0.046 C 
ATOM     72  C   UNL     1       9.990  14.376  25.411  0.00  0.00    -0.026 C 
ATOM     73  C   UNL     1      11.154  15.366  25.409  0.00  0.00    +0.062 C 
ATOM     74  O   UNL     1      11.136  16.227  24.264  0.00  0.00    -0.345 OA
ATOM     75  H   UNL     1       9.232  17.761  23.810  0.00  0.00    +0.060 HD
ATOM     76  H   UNL     1       9.309  17.635  20.746  0.00  0.00    +0.032 HD
ATOM     77  H   UNL     1      11.683  18.147  20.867  0.00  0.00    +0.027 HD
ATOM     78  H   UNL     1      11.628  18.286  22.619  0.00  0.00    +0.027 HD
ATOM     79  H   UNL     1      12.529  16.099  22.025  0.00  0.00    +0.032 HD
ATOM     80  H   UNL     1      11.164  15.789  20.935  0.00  0.00    +0.032 HD
ATOM     81  H   UNL     1      11.886  13.866  23.138  0.00  0.00    +0.032 HD
ATOM     82  H   UNL     1      10.473  13.688  22.083  0.00  0.00    +0.032 HD
ATOM     83  H   UNL     1       9.022  13.230  23.869  0.00  0.00    +0.027 HD
ATOM     84  H   UNL     1      10.518  12.514  24.435  0.00  0.00    +0.027 HD
ATOM     85  H   UNL     1       9.038  14.919  25.388  0.00  0.00    +0.029 HD
ATOM     86  H   UNL     1       9.980  13.767  26.321  0.00  0.00    +0.029 HD
ATOM     87  H   UNL     1      12.096  14.800  25.370  0.00  0.00    +0.060 HD
BRANCH  65  88
ATOM     88  C   UNL     1       9.438  19.553  21.694  0.00  0.00    -0.060 C 
ATOM     89  H   UNL     1       8.382  19.784  21.853  0.00  0.00    +0.023 HD
ATOM     90  H   UNL     1       9.736  19.999  20.738  0.00  0.00    +0.023 HD
ATOM     91  H   UNL     1      10.007  20.047  22.492  0.00  0.00    +0.023 HD
ENDBRANCH  65  88
BRANCH  73  92
ATOM     92  C   UNL     1      11.215  16.246  26.668  0.00  0.00    -0.026 C 
ATOM     93  H   UNL     1      12.199  16.108  27.119  0.00  0.00    +0.029 HD
ATOM     94  H   UNL     1      10.474  15.881  27.389  0.00  0.00    +0.029 HD
BRANCH  92  95
ATOM     95  C   UNL     1      10.985  17.742  26.408  0.00  0.00    -0.045 C 
ATOM     96  H   UNL     1      11.030  17.921  25.325  0.00  0.00    +0.027 HD
ATOM     97  H   UNL     1      11.806  18.311  26.853  0.00  0.00    +0.027 HD
BRANCH  95  98
ATOM     98  C   UNL     1       9.659  18.336  26.928  0.00  0.00    -0.025 C 
ATOM     99  H   UNL     1       9.527  19.276  26.383  0.00  0.00    +0.034 HD
BRANCH  98 100
ATOM    100  C   UNL     1       9.724  18.699  28.411  0.00  0.00    -0.059 C 
ATOM    101  H   UNL     1       9.927  17.806  29.013  0.00  0.00    +0.024 HD
ATOM    102  H   UNL     1       8.775  19.120  28.753  0.00  0.00    +0.024 HD
ATOM    103  H   UNL     1      10.515  19.423  28.629  0.00  0.00    +0.024 HD
ENDBRANCH  98 100
BRANCH  98 104
ATOM    104  C   UNL     1       8.483  17.412  26.679  0.00  0.00    -0.080 C 
ATOM    105  C   UNL     1       7.186  17.741  26.496  0.00  0.00    -0.048 C 
ATOM    106  H   UNL     1       8.762  16.361  26.664  0.00  0.00    +0.058 HD
BRANCH 105 107
ATOM    107  C   UNL     1       6.660  19.160  26.545  0.00  0.00    -0.041 C 
ATOM    108  H   UNL     1       7.006  19.784  25.721  0.00  0.00    +0.028 HD
ATOM    109  H   UNL     1       5.565  19.160  26.530  0.00  0.00    +0.028 HD
ATOM    110  H   UNL     1       6.987  19.653  27.467  0.00  0.00    +0.028 HD
ENDBRANCH 105 107
BRANCH 105 111
ATOM    111  C   UNL     1       6.087  16.719  26.237  0.00  0.00    +0.073 C 
ATOM    112  H   UNL     1       5.531  16.565  27.169  0.00  0.00    +0.064 HD
BRANCH 111 113
ATOM    113  C   UNL     1       6.502  15.342  25.714  0.00  0.00    -0.035 C 
ATOM    114  H   UNL     1       7.449  15.389  25.167  0.00  0.00    +0.026 HD
ATOM    115  H   UNL     1       6.619  14.647  26.556  0.00  0.00    +0.026 HD
ATOM    116  H   UNL     1       5.732  14.915  25.064  0.00  0.00    +0.026 HD
ENDBRANCH 111 113
BRANCH 111 117
ATOM    117  O   UNL     1       5.175  17.279  25.293  0.00  0.00    -0.388 OA
ATOM    118  H   UNL     1       4.842  16.542  24.753  0.00  0.00    +0.210 HD
ENDBRANCH 111 117
ENDBRANCH 105 111
ENDBRANCH  98 104
ENDBRANCH  95  98
ENDBRANCH  92  95
ENDBRANCH  73  92
ENDBRANCH  61  64
ENDBRANCH   1  61
TORSDOF 27
ENDMDL
MODEL 5
REMARK VINA RESULT:      -6.5      2.622      6.388
REMARK  Name = Bistramide A_conf3
REMARK  27 active torsions:
REMARK  status: ('A' for Active; 'I' for Inactive)
REMARK    1  A    between atoms: C_1  and  C_2
REMARK    2  A    between atoms: C_3  and  C_4
REMARK    3  A    between atoms: C_4  and  C_6
REMARK    4  A    between atoms: C_6  and  C_7
REMARK    5  A    between atoms: C_10  and  C_50
REMARK    6  A    between atoms: C_11  and  C_13
REMARK    7  A    between atoms: C_13  and  C_14
REMARK    8  A    between atoms: N_16  and  C_17
REMARK    9  A    between atoms: C_17  and  C_18
REMARK   10  A    between atoms: C_18  and  C_19
REMARK   11  A    between atoms: C_18  and  O_49
REMARK   12  A    between atoms: C_19  and  C_20
REMARK   13  A    between atoms: C_19  and  C_21
REMARK   14  A    between atoms: N_23  and  C_24
REMARK   15  A    between atoms: C_24  and  C_25
REMARK   16  A    between atoms: C_25  and  C_26
REMARK   17  A    between atoms: C_26  and  C_27
REMARK   18  A    between atoms: C_28  and  C_48
REMARK   19  A    between atoms: C_36  and  C_38
REMARK   20  A    between atoms: C_38  and  C_39
REMARK   21  A    between atoms: C_39  and  C_40
REMARK   22  A    between atoms: C_40  and  C_41
REMARK   23  A    between atoms: C_40  and  C_42
REMARK   24  A    between atoms: C_43  and  C_44
REMARK   25  A    between atoms: C_43  and  C_45
REMARK   26  A    between atoms: C_45  and  C_46
REMARK   27  A    between atoms: C_45  and  O_47
REMARK                            x       y       z     vdW  Elec       q    Type
REMARK                         _______ _______ _______ _____ _____    ______ ____
ROOT
ATOM      1  C   UNL     1       5.461  14.870  19.683  0.00  0.00    -0.035 C 
ATOM      2  H   UNL     1       6.188  15.630  19.376  0.00  0.00    +0.028 HD
ATOM      3  H   UNL     1       6.011  13.929  19.775  0.00  0.00    +0.028 HD
ENDROOT
BRANCH   1   4
ATOM      4  C   UNL     1       4.406  14.717  18.586  0.00  0.00    +0.012 C 
ATOM      5  H   UNL     1       4.569  15.468  17.806  0.00  0.00    +0.046 HD
ATOM      6  H   UNL     1       4.476  13.729  18.119  0.00  0.00    +0.046 HD
BRANCH   4   9
ATOM      7  C   UNL     1       2.081  13.912  18.845  0.00  0.00    +0.218 C 
ATOM      8  O   UNL     1       2.305  12.868  18.233  0.00  0.00    -0.275 OA
ATOM      9  N   UNL     1       3.055  14.864  19.087  0.00  0.00    -0.315 N 
ATOM     10  H   UNL     1       2.818  15.713  19.587  0.00  0.00    +0.149 HD
BRANCH   7  11
ATOM     11  C   UNL     1       0.702  14.318  19.364  0.00  0.00    +0.060 C 
ATOM     12  H   UNL     1       0.121  13.392  19.479  0.00  0.00    +0.042 HD
BRANCH  11  13
ATOM     13  C   UNL     1       0.912  14.961  20.736  0.00  0.00    -0.052 C 
ATOM     14  H   UNL     1       1.485  14.306  21.402  0.00  0.00    +0.024 HD
ATOM     15  H   UNL     1       1.419  15.923  20.657  0.00  0.00    +0.024 HD
ATOM     16  H   UNL     1      -0.036  15.165  21.241  0.00  0.00    +0.024 HD
ENDBRANCH  11  13
BRANCH  11  17
ATOM     17  C   UNL     1      -0.029  15.241  18.360  0.00  0.00    +0.081 C 
ATOM     18  H   UNL     1       0.095  16.291  18.644  0.00  0.00    +0.062 HD
BRANCH  17  19
ATOM     19  C   UNL     1      -1.533  14.946  18.179  0.00  0.00    +0.038 C 
ATOM     20  H   UNL     1      -2.027  15.833  17.760  0.00  0.00    +0.049 HD
ATOM     21  H   UNL     1      -1.662  14.159  17.421  0.00  0.00    +0.049 HD
BRANCH  19  24
ATOM     22  C   UNL     1      -2.717  15.613  20.237  0.00  0.00    +0.216 C 
ATOM     23  O   UNL     1      -2.569  16.810  20.015  0.00  0.00    -0.276 OA
ATOM     24  N   UNL     1      -2.259  14.624  19.393  0.00  0.00    -0.313 N 
ATOM     25  H   UNL     1      -2.349  13.653  19.666  0.00  0.00    +0.149 HD
BRANCH  22  26
ATOM     26  C   UNL     1      -3.411  15.084  21.473  0.00  0.00    +0.050 C 
ATOM     27  H   UNL     1      -3.633  15.943  22.120  0.00  0.00    +0.038 HD
ATOM     28  H   UNL     1      -2.740  14.439  22.052  0.00  0.00    +0.038 HD
BRANCH  26  33
ATOM     29  C   UNL     1      -6.345  14.229  19.334  0.00  0.00    +0.066 C 
ATOM     30  C   UNL     1      -7.008  13.243  20.301  0.00  0.00    -0.026 C 
ATOM     31  C   UNL     1      -7.131  13.836  21.703  0.00  0.00    -0.046 C 
ATOM     32  C   UNL     1      -5.879  14.641  22.120  0.00  0.00    -0.017 C 
ATOM     33  C   UNL     1      -4.719  14.362  21.134  0.00  0.00    +0.070 C 
ATOM     34  O   UNL     1      -5.090  14.750  19.799  0.00  0.00    -0.372 OA
ATOM     35  H   UNL     1      -7.005  15.099  19.231  0.00  0.00    +0.060 HD
ATOM     36  H   UNL     1      -7.998  12.944  19.943  0.00  0.00    +0.029 HD
ATOM     37  H   UNL     1      -6.418  12.320  20.360  0.00  0.00    +0.029 HD
ATOM     38  H   UNL     1      -8.036  14.456  21.753  0.00  0.00    +0.027 HD
ATOM     39  H   UNL     1      -7.290  13.009  22.413  0.00  0.00    +0.027 HD
ATOM     40  H   UNL     1      -5.592  14.303  23.125  0.00  0.00    +0.032 HD
ATOM     41  H   UNL     1      -4.503  13.284  21.115  0.00  0.00    +0.060 HD
BRANCH  32  42
ATOM     42  C   UNL     1      -6.235  16.129  22.228  0.00  0.00    -0.060 C 
ATOM     43  H   UNL     1      -6.865  16.455  21.397  0.00  0.00    +0.023 HD
ATOM     44  H   UNL     1      -6.769  16.351  23.157  0.00  0.00    +0.023 HD
ATOM     45  H   UNL     1      -5.336  16.753  22.199  0.00  0.00    +0.023 HD
ENDBRANCH  32  42
BRANCH  29  46
ATOM     46  C   UNL     1      -6.104  13.616  17.957  0.00  0.00    +0.036 C 
ATOM     47  H   UNL     1      -5.619  14.340  17.290  0.00  0.00    +0.037 HD
ATOM     48  H   UNL     1      -7.049  13.381  17.451  0.00  0.00    +0.037 HD
BRANCH  46  49
ATOM     49  C   UNL     1      -5.234  12.384  18.038  0.00  0.00    +0.158 C 
ATOM     50  O   UNL     1      -4.039  12.470  18.322  0.00  0.00    -0.293 OA
BRANCH  49  52
ATOM     51  C   UNL     1      -5.272  10.072  17.038  0.00  0.00    -0.084 C 
ATOM     52  C   UNL     1      -5.805  11.029  17.816  0.00  0.00    -0.023 C 
ATOM     53  H   UNL     1      -4.347  10.228  16.487  0.00  0.00    +0.057 HD
ATOM     54  H   UNL     1      -6.728  10.850  18.364  0.00  0.00    +0.065 HD
BRANCH  51  55
ATOM     55  C   UNL     1      -5.907   8.730  16.858  0.00  0.00    -0.046 C 
ATOM     56  H   UNL     1      -5.362   8.163  16.102  0.00  0.00    +0.027 HD
ATOM     57  H   UNL     1      -6.945   8.853  16.529  0.00  0.00    +0.027 HD
ATOM     58  H   UNL     1      -5.908   8.148  17.785  0.00  0.00    +0.027 HD
ENDBRANCH  51  55
ENDBRANCH  49  52
ENDBRANCH  46  49
ENDBRANCH  29  46
ENDBRANCH  26  33
ENDBRANCH  22  26
ENDBRANCH  19  24
ENDBRANCH  17  19
BRANCH  17  59
ATOM     59  O   UNL     1       0.551  15.093  17.049  0.00  0.00    -0.390 OA
ATOM     60  H   UNL     1       1.505  14.927  17.141  0.00  0.00    +0.210 HD
ENDBRANCH  17  59
ENDBRANCH  11  17
ENDBRANCH   7  11
ENDBRANCH   4   9
ENDBRANCH   1   4
BRANCH   1  61
ATOM     61  C   UNL     1       4.855  15.238  21.046  0.00  0.00    -0.025 C 
ATOM     62  H   UNL     1       5.040  14.416  21.746  0.00  0.00    +0.029 HD
ATOM     63  H   UNL     1       3.767  15.337  20.942  0.00  0.00    +0.029 HD
BRANCH  61  64
ATOM     64  C   UNL     1       5.422  16.558  21.591  0.00  0.00    +0.065 C 
ATOM     65  C   UNL     1       5.021  17.778  20.731  0.00  0.00    -0.017 C 
ATOM     66  C   UNL     1       5.759  19.038  21.210  0.00  0.00    -0.043 C 
ATOM     67  C   UNL     1       7.260  18.779  21.328  0.00  0.00    +0.002 C 
ATOM     68  C   UNL     1       7.542  17.536  22.180  0.00  0.00    +0.171 C 
ATOM     69  O   UNL     1       6.847  16.425  21.610  0.00  0.00    -0.345 OA
ATOM     70  C   UNL     1       9.042  17.208  22.139  0.00  0.00    +0.002 C 
ATOM     71  C   UNL     1       9.363  15.972  22.987  0.00  0.00    -0.046 C 
ATOM     72  C   UNL     1       8.433  15.853  24.193  0.00  0.00    -0.026 C 
ATOM     73  C   UNL     1       7.860  17.217  24.572  0.00  0.00    +0.062 C 
ATOM     74  O   UNL     1       7.087  17.798  23.514  0.00  0.00    -0.345 OA
ATOM     75  H   UNL     1       5.055  16.684  22.614  0.00  0.00    +0.060 HD
ATOM     76  H   UNL     1       5.334  17.590  19.696  0.00  0.00    +0.032 HD
ATOM     77  H   UNL     1       5.587  19.866  20.515  0.00  0.00    +0.027 HD
ATOM     78  H   UNL     1       5.361  19.359  22.183  0.00  0.00    +0.027 HD
ATOM     79  H   UNL     1       7.745  19.660  21.762  0.00  0.00    +0.032 HD
ATOM     80  H   UNL     1       7.658  18.639  20.314  0.00  0.00    +0.032 HD
ATOM     81  H   UNL     1       9.612  18.061  22.533  0.00  0.00    +0.032 HD
ATOM     82  H   UNL     1       9.384  17.027  21.111  0.00  0.00    +0.032 HD
ATOM     83  H   UNL     1       9.284  15.059  22.383  0.00  0.00    +0.027 HD
ATOM     84  H   UNL     1      10.408  16.028  23.316  0.00  0.00    +0.027 HD
ATOM     85  H   UNL     1       7.620  15.167  23.926  0.00  0.00    +0.029 HD
ATOM     86  H   UNL     1       8.968  15.392  25.030  0.00  0.00    +0.029 HD
ATOM     87  H   UNL     1       8.694  17.904  24.776  0.00  0.00    +0.060 HD
BRANCH  65  88
ATOM     88  C   UNL     1       3.513  18.036  20.736  0.00  0.00    -0.060 C 
ATOM     89  H   UNL     1       3.016  17.471  19.944  0.00  0.00    +0.023 HD
ATOM     90  H   UNL     1       3.293  19.098  20.577  0.00  0.00    +0.023 HD
ATOM     91  H   UNL     1       3.060  17.734  21.689  0.00  0.00    +0.023 HD
ENDBRANCH  65  88
BRANCH  73  92
ATOM     92  C   UNL     1       6.989  17.187  25.839  0.00  0.00    -0.026 C 
ATOM     93  H   UNL     1       6.324  18.052  25.801  0.00  0.00    +0.029 HD
ATOM     94  H   UNL     1       7.636  17.313  26.714  0.00  0.00    +0.029 HD
BRANCH  92  95
ATOM     95  C   UNL     1       6.147  15.912  26.000  0.00  0.00    -0.045 C 
ATOM     96  H   UNL     1       6.217  15.576  27.044  0.00  0.00    +0.027 HD
ATOM     97  H   UNL     1       6.581  15.118  25.386  0.00  0.00    +0.027 HD
BRANCH  95  98
ATOM     98  C   UNL     1       4.650  16.025  25.642  0.00  0.00    -0.025 C 
ATOM     99  H   UNL     1       4.111  15.705  26.540  0.00  0.00    +0.034 HD
BRANCH  98 100
ATOM    100  C   UNL     1       4.244  15.066  24.525  0.00  0.00    -0.059 C 
ATOM    101  H   UNL     1       5.045  14.343  24.333  0.00  0.00    +0.024 HD
ATOM    102  H   UNL     1       4.055  15.606  23.594  0.00  0.00    +0.024 HD
ATOM    103  H   UNL     1       3.345  14.493  24.773  0.00  0.00    +0.024 HD
ENDBRANCH  98 100
BRANCH  98 104
ATOM    104  C   UNL     1       4.258  17.442  25.268  0.00  0.00    -0.080 C 
ATOM    105  C   UNL     1       3.472  18.300  25.954  0.00  0.00    -0.048 C 
ATOM    106  H   UNL     1       4.674  17.762  24.316  0.00  0.00    +0.058 HD
BRANCH 105 107
ATOM    107  C   UNL     1       2.790  17.958  27.262  0.00  0.00    -0.041 C 
ATOM    108  H   UNL     1       3.398  18.171  28.141  0.00  0.00    +0.028 HD
ATOM    109  H   UNL     1       1.852  18.516  27.358  0.00  0.00    +0.028 HD
ATOM    110  H   UNL     1       2.555  16.889  27.299  0.00  0.00    +0.028 HD
ENDBRANCH 105 107
BRANCH 105 111
ATOM    111  C   UNL     1       3.158  19.713  25.482  0.00  0.00    +0.073 C 
ATOM    112  H   UNL     1       3.611  20.422  26.184  0.00  0.00    +0.064 HD
BRANCH 111 113
ATOM    113  C   UNL     1       1.686  20.101  25.321  0.00  0.00    -0.035 C 
ATOM    114  H   UNL     1       1.427  20.268  24.271  0.00  0.00    +0.026 HD
ATOM    115  H   UNL     1       1.048  19.298  25.714  0.00  0.00    +0.026 HD
ATOM    116  H   UNL     1       1.446  20.999  25.898  0.00  0.00    +0.026 HD
ENDBRANCH 111 113
BRANCH 111 117
ATOM    117  O   UNL     1       3.793  19.910  24.219  0.00  0.00    -0.388 OA
ATOM    118  H   UNL     1       4.751  19.883  24.380  0.00  0.00    +0.210 HD
ENDBRANCH 111 117
ENDBRANCH 105 111
ENDBRANCH  98 104
ENDBRANCH  95  98
ENDBRANCH  92  95
ENDBRANCH  73  92
ENDBRANCH  61  64
ENDBRANCH   1  61
TORSDOF 27
ENDMDL
MODEL 6
REMARK VINA RESULT:      -6.5      1.932      9.422
REMARK  Name = Bistramide A_conf3
REMARK  27 active torsions:
REMARK  status: ('A' for Active; 'I' for Inactive)
REMARK    1  A    between atoms: C_1  and  C_2
REMARK    2  A    between atoms: C_3  and  C_4
REMARK    3  A    between atoms: C_4  and  C_6
REMARK    4  A    between atoms: C_6  and  C_7
REMARK    5  A    between atoms: C_10  and  C_50
REMARK    6  A    between atoms: C_11  and  C_13
REMARK    7  A    between atoms: C_13  and  C_14
REMARK    8  A    between atoms: N_16  and  C_17
REMARK    9  A    between atoms: C_17  and  C_18
REMARK   10  A    between atoms: C_18  and  C_19
REMARK   11  A    between atoms: C_18  and  O_49
REMARK   12  A    between atoms: C_19  and  C_20
REMARK   13  A    between atoms: C_19  and  C_21
REMARK   14  A    between atoms: N_23  and  C_24
REMARK   15  A    between atoms: C_24  and  C_25
REMARK   16  A    between atoms: C_25  and  C_26
REMARK   17  A    between atoms: C_26  and  C_27
REMARK   18  A    between atoms: C_28  and  C_48
REMARK   19  A    between atoms: C_36  and  C_38
REMARK   20  A    between atoms: C_38  and  C_39
REMARK   21  A    between atoms: C_39  and  C_40
REMARK   22  A    between atoms: C_40  and  C_41
REMARK   23  A    between atoms: C_40  and  C_42
REMARK   24  A    between atoms: C_43  and  C_44
REMARK   25  A    between atoms: C_43  and  C_45
REMARK   26  A    between atoms: C_45  and  C_46
REMARK   27  A    between atoms: C_45  and  O_47
REMARK                            x       y       z     vdW  Elec       q    Type
REMARK                         _______ _______ _______ _____ _____    ______ ____
ROOT
ATOM      1  C   UNL     1       3.765  18.542  19.779  0.00  0.00    -0.035 C 
ATOM      2  H   UNL     1       4.003  18.961  18.795  0.00  0.00    +0.028 HD
ATOM      3  H   UNL     1       2.686  18.359  19.788  0.00  0.00    +0.028 HD
ENDROOT
BRANCH   1   4
ATOM      4  C   UNL     1       4.098  19.576  20.855  0.00  0.00    +0.012 C 
ATOM      5  H   UNL     1       3.608  20.527  20.622  0.00  0.00    +0.046 HD
ATOM      6  H   UNL     1       3.735  19.245  21.835  0.00  0.00    +0.046 HD
BRANCH   4   9
ATOM      7  C   UNL     1       6.092  20.211  22.175  0.00  0.00    +0.218 C 
ATOM      8  O   UNL     1       5.444  20.345  23.212  0.00  0.00    -0.275 OA
ATOM      9  N   UNL     1       5.521  19.814  20.979  0.00  0.00    -0.315 N 
ATOM     10  H   UNL     1       6.097  19.728  20.149  0.00  0.00    +0.149 HD
BRANCH   7  11
ATOM     11  C   UNL     1       7.584  20.516  22.057  0.00  0.00    +0.060 C 
ATOM     12  H   UNL     1       7.800  20.634  20.986  0.00  0.00    +0.042 HD
BRANCH  11  13
ATOM     13  C   UNL     1       7.828  21.845  22.775  0.00  0.00    -0.052 C 
ATOM     14  H   UNL     1       8.898  22.078  22.832  0.00  0.00    +0.024 HD
ATOM     15  H   UNL     1       7.309  22.669  22.285  0.00  0.00    +0.024 HD
ATOM     16  H   UNL     1       7.458  21.828  23.802  0.00  0.00    +0.024 HD
ENDBRANCH  11  13
BRANCH  11  17
ATOM     17  C   UNL     1       8.443  19.354  22.611  0.00  0.00    +0.081 C 
ATOM     18  H   UNL     1       8.912  19.641  23.558  0.00  0.00    +0.062 HD
BRANCH  17  19
ATOM     19  C   UNL     1       9.534  18.834  21.651  0.00  0.00    +0.038 C 
ATOM     20  H   UNL     1       9.211  18.998  20.614  0.00  0.00    +0.049 HD
ATOM     21  H   UNL     1      10.444  19.441  21.769  0.00  0.00    +0.049 HD
BRANCH  19  24
ATOM     22  C   UNL     1      10.847  16.959  22.570  0.00  0.00    +0.216 C 
ATOM     23  O   UNL     1      11.531  17.695  23.274  0.00  0.00    -0.276 OA
ATOM     24  N   UNL     1       9.836  17.419  21.753  0.00  0.00    -0.313 N 
ATOM     25  H   UNL     1       9.354  16.771  21.143  0.00  0.00    +0.149 HD
BRANCH  22  26
ATOM     26  C   UNL     1      11.044  15.460  22.511  0.00  0.00    +0.050 C 
ATOM     27  H   UNL     1      12.113  15.261  22.659  0.00  0.00    +0.038 HD
ATOM     28  H   UNL     1      10.803  15.075  21.514  0.00  0.00    +0.038 HD
BRANCH  26  33
ATOM     29  C   UNL     1       8.567  15.205  25.288  0.00  0.00    +0.066 C 
ATOM     30  C   UNL     1       8.734  13.706  25.557  0.00  0.00    -0.026 C 
ATOM     31  C   UNL     1      10.205  13.326  25.703  0.00  0.00    -0.046 C 
ATOM     32  C   UNL     1      11.111  14.058  24.686  0.00  0.00    -0.017 C 
ATOM     33  C   UNL     1      10.244  14.732  23.596  0.00  0.00    +0.070 C 
ATOM     34  O   UNL     1       9.350  15.691  24.186  0.00  0.00    -0.372 OA
ATOM     35  H   UNL     1       8.929  15.750  26.170  0.00  0.00    +0.060 HD
ATOM     36  H   UNL     1       8.188  13.403  26.457  0.00  0.00    +0.029 HD
ATOM     37  H   UNL     1       8.299  13.126  24.734  0.00  0.00    +0.029 HD
ATOM     38  H   UNL     1      10.527  13.522  26.735  0.00  0.00    +0.027 HD
ATOM     39  H   UNL     1      10.295  12.238  25.559  0.00  0.00    +0.027 HD
ATOM     40  H   UNL     1      11.759  13.303  24.222  0.00  0.00    +0.032 HD
ATOM     41  H   UNL     1       9.627  13.973  23.094  0.00  0.00    +0.060 HD
BRANCH  32  42
ATOM     42  C   UNL     1      12.025  15.043  25.426  0.00  0.00    -0.060 C 
ATOM     43  H   UNL     1      13.001  14.601  25.645  0.00  0.00    +0.023 HD
ATOM     44  H   UNL     1      12.195  15.953  24.844  0.00  0.00    +0.023 HD
ATOM     45  H   UNL     1      11.593  15.335  26.389  0.00  0.00    +0.023 HD
ENDBRANCH  32  42
BRANCH  29  46
ATOM     46  C   UNL     1       7.114  15.589  25.023  0.00  0.00    +0.036 C 
ATOM     47  H   UNL     1       6.446  14.745  25.236  0.00  0.00    +0.037 HD
ATOM     48  H   UNL     1       6.942  15.803  23.961  0.00  0.00    +0.037 HD
BRANCH  46  49
ATOM     49  C   UNL     1       6.685  16.765  25.870  0.00  0.00    +0.158 C 
ATOM     50  O   UNL     1       7.336  17.810  25.880  0.00  0.00    -0.293 OA
BRANCH  49  52
ATOM     51  C   UNL     1       4.428  17.583  26.632  0.00  0.00    -0.084 C 
ATOM     52  C   UNL     1       5.443  16.706  26.686  0.00  0.00    -0.023 C 
ATOM     53  H   UNL     1       4.444  18.440  25.962  0.00  0.00    +0.057 HD
ATOM     54  H   UNL     1       5.405  15.851  27.359  0.00  0.00    +0.065 HD
BRANCH  51  55
ATOM     55  C   UNL     1       3.208  17.462  27.489  0.00  0.00    -0.046 C 
ATOM     56  H   UNL     1       3.471  17.649  28.532  0.00  0.00    +0.027 HD
ATOM     57  H   UNL     1       2.795  16.451  27.404  0.00  0.00    +0.027 HD
ATOM     58  H   UNL     1       2.430  18.175  27.202  0.00  0.00    +0.027 HD
ENDBRANCH  51  55
ENDBRANCH  49  52
ENDBRANCH  46  49
ENDBRANCH  29  46
ENDBRANCH  26  33
ENDBRANCH  22  26
ENDBRANCH  19  24
ENDBRANCH  17  19
BRANCH  17  59
ATOM     59  O   UNL     1       7.603  18.216  22.889  0.00  0.00    -0.390 OA
ATOM     60  H   UNL     1       7.909  17.789  23.708  0.00  0.00    +0.210 HD
ENDBRANCH  17  59
ENDBRANCH  11  17
ENDBRANCH   7  11
ENDBRANCH   4   9
ENDBRANCH   1   4
BRANCH   1  61
ATOM     61  C   UNL     1       4.505  17.211  19.981  0.00  0.00    -0.025 C 
ATOM     62  H   UNL     1       5.421  17.402  20.551  0.00  0.00    +0.029 HD
ATOM     63  H   UNL     1       4.807  16.815  19.003  0.00  0.00    +0.029 HD
BRANCH  61  64
ATOM     64  C   UNL     1       3.629  16.167  20.690  0.00  0.00    +0.065 C 
ATOM     65  C   UNL     1       4.256  15.658  22.006  0.00  0.00    -0.017 C 
ATOM     66  C   UNL     1       3.434  14.492  22.577  0.00  0.00    -0.043 C 
ATOM     67  C   UNL     1       3.186  13.426  21.509  0.00  0.00    +0.002 C 
ATOM     68  C   UNL     1       2.585  14.044  20.241  0.00  0.00    +0.171 C 
ATOM     69  O   UNL     1       3.459  15.076  19.778  0.00  0.00    -0.345 OA
ATOM     70  C   UNL     1       2.507  12.981  19.135  0.00  0.00    +0.002 C 
ATOM     71  C   UNL     1       1.904  13.561  17.851  0.00  0.00    -0.046 C 
ATOM     72  C   UNL     1       0.876  14.652  18.147  0.00  0.00    -0.026 C 
ATOM     73  C   UNL     1       0.294  14.481  19.549  0.00  0.00    +0.062 C 
ATOM     74  O   UNL     1       1.294  14.571  20.571  0.00  0.00    -0.345 OA
ATOM     75  H   UNL     1       2.656  16.627  20.891  0.00  0.00    +0.060 HD
ATOM     76  H   UNL     1       5.260  15.273  21.786  0.00  0.00    +0.032 HD
ATOM     77  H   UNL     1       3.956  14.039  23.426  0.00  0.00    +0.027 HD
ATOM     78  H   UNL     1       2.473  14.862  22.961  0.00  0.00    +0.027 HD
ATOM     79  H   UNL     1       2.519  12.658  21.916  0.00  0.00    +0.032 HD
ATOM     80  H   UNL     1       4.149  12.951  21.278  0.00  0.00    +0.032 HD
ATOM     81  H   UNL     1       1.874  12.149  19.474  0.00  0.00    +0.032 HD
ATOM     82  H   UNL     1       3.499  12.570  18.903  0.00  0.00    +0.032 HD
ATOM     83  H   UNL     1       2.691  13.977  17.209  0.00  0.00    +0.027 HD
ATOM     84  H   UNL     1       1.442  12.749  17.276  0.00  0.00    +0.027 HD
ATOM     85  H   UNL     1       1.381  15.622  18.068  0.00  0.00    +0.029 HD
ATOM     86  H   UNL     1       0.094  14.644  17.381  0.00  0.00    +0.029 HD
ATOM     87  H   UNL     1      -0.153  13.479  19.624  0.00  0.00    +0.060 HD
BRANCH  65  88
ATOM     88  C   UNL     1       4.386  16.756  23.064  0.00  0.00    -0.060 C 
ATOM     89  H   UNL     1       3.828  16.498  23.967  0.00  0.00    +0.023 HD
ATOM     90  H   UNL     1       3.998  17.711  22.693  0.00  0.00    +0.023 HD
ATOM     91  H   UNL     1       5.434  16.905  23.356  0.00  0.00    +0.023 HD
ENDBRANCH  65  88
BRANCH  73  92
ATOM     92  C   UNL     1      -0.819  15.489  19.879  0.00  0.00    -0.026 C 
ATOM     93  H   UNL     1      -0.376  16.487  19.855  0.00  0.00    +0.029 HD
ATOM     94  H   UNL     1      -1.161  15.312  20.905  0.00  0.00    +0.029 HD
BRANCH  92  95
ATOM     95  C   UNL     1      -2.019  15.447  18.922  0.00  0.00    -0.045 C 
ATOM     96  H   UNL     1      -1.810  14.715  18.130  0.00  0.00    +0.027 HD
ATOM     97  H   UNL     1      -2.118  16.420  18.432  0.00  0.00    +0.027 HD
BRANCH  95  98
ATOM     98  C   UNL     1      -3.384  15.088  19.545  0.00  0.00    -0.025 C 
ATOM     99  H   UNL     1      -4.116  15.717  19.027  0.00  0.00    +0.034 HD
BRANCH  98 100
ATOM    100  C   UNL     1      -3.465  15.456  21.026  0.00  0.00    -0.059 C 
ATOM    101  H   UNL     1      -3.623  14.558  21.634  0.00  0.00    +0.024 HD
ATOM    102  H   UNL     1      -4.300  16.135  21.216  0.00  0.00    +0.024 HD
ATOM    103  H   UNL     1      -2.549  15.935  21.387  0.00  0.00    +0.024 HD
ENDBRANCH  98 100
BRANCH  98 104
ATOM    104  C   UNL     1      -3.727  13.621  19.363  0.00  0.00    -0.080 C 
ATOM    105  C   UNL     1      -4.853  13.085  18.846  0.00  0.00    -0.048 C 
ATOM    106  H   UNL     1      -2.945  12.954  19.718  0.00  0.00    +0.058 HD
BRANCH 105 107
ATOM    107  C   UNL     1      -6.034  13.901  18.367  0.00  0.00    -0.041 C 
ATOM    108  H   UNL     1      -5.880  14.366  17.393  0.00  0.00    +0.028 HD
ATOM    109  H   UNL     1      -6.929  13.272  18.301  0.00  0.00    +0.028 HD
ATOM    110  H   UNL     1      -6.242  14.715  19.070  0.00  0.00    +0.028 HD
ENDBRANCH 105 107
BRANCH 105 111
ATOM    111  C   UNL     1      -5.080  11.586  18.699  0.00  0.00    +0.073 C 
ATOM    112  H   UNL     1      -4.415  11.065  19.398  0.00  0.00    +0.064 HD
BRANCH 111 113
ATOM    113  C   UNL     1      -4.875  10.965  17.316  0.00  0.00    -0.035 C 
ATOM    114  H   UNL     1      -5.676  10.261  17.068  0.00  0.00    +0.026 HD
ATOM    115  H   UNL     1      -4.857  11.756  16.555  0.00  0.00    +0.026 HD
ATOM    116  H   UNL     1      -3.911  10.450  17.250  0.00  0.00    +0.026 HD
ENDBRANCH 111 113
BRANCH 111 117
ATOM    117  O   UNL     1      -6.419  11.300  19.103  0.00  0.00    -0.388 OA
ATOM    118  H   UNL     1      -6.872  10.929  18.327  0.00  0.00    +0.210 HD
ENDBRANCH 111 117
ENDBRANCH 105 111
ENDBRANCH  98 104
ENDBRANCH  95  98
ENDBRANCH  92  95
ENDBRANCH  73  92
ENDBRANCH  61  64
ENDBRANCH   1  61
TORSDOF 27
ENDMDL
MODEL 7
REMARK VINA RESULT:      -6.5      3.766     13.203
REMARK  Name = Bistramide A_conf3
REMARK  27 active torsions:
REMARK  status: ('A' for Active; 'I' for Inactive)
REMARK    1  A    between atoms: C_1  and  C_2
REMARK    2  A    between atoms: C_3  and  C_4
REMARK    3  A    between atoms: C_4  and  C_6
REMARK    4  A    between atoms: C_6  and  C_7
REMARK    5  A    between atoms: C_10  and  C_50
REMARK    6  A    between atoms: C_11  and  C_13
REMARK    7  A    between atoms: C_13  and  C_14
REMARK    8  A    between atoms: N_16  and  C_17
REMARK    9  A    between atoms: C_17  and  C_18
REMARK   10  A    between atoms: C_18  and  C_19
REMARK   11  A    between atoms: C_18  and  O_49
REMARK   12  A    between atoms: C_19  and  C_20
REMARK   13  A    between atoms: C_19  and  C_21
REMARK   14  A    between atoms: N_23  and  C_24
REMARK   15  A    between atoms: C_24  and  C_25
REMARK   16  A    between atoms: C_25  and  C_26
REMARK   17  A    between atoms: C_26  and  C_27
REMARK   18  A    between atoms: C_28  and  C_48
REMARK   19  A    between atoms: C_36  and  C_38
REMARK   20  A    between atoms: C_38  and  C_39
REMARK   21  A    between atoms: C_39  and  C_40
REMARK   22  A    between atoms: C_40  and  C_41
REMARK   23  A    between atoms: C_40  and  C_42
REMARK   24  A    between atoms: C_43  and  C_44
REMARK   25  A    between atoms: C_43  and  C_45
REMARK   26  A    between atoms: C_45  and  C_46
REMARK   27  A    between atoms: C_45  and  O_47
REMARK                            x       y       z     vdW  Elec       q    Type
REMARK                         _______ _______ _______ _____ _____    ______ ____
ROOT
ATOM      1  C   UNL     1      -2.567  16.545  19.084  0.00  0.00    -0.035 C 
ATOM      2  H   UNL     1      -2.082  17.517  18.939  0.00  0.00    +0.028 HD
ATOM      3  H   UNL     1      -3.520  16.742  19.586  0.00  0.00    +0.028 HD
ENDROOT
BRANCH   1   4
ATOM      4  C   UNL     1      -1.697  15.686  20.003  0.00  0.00    +0.012 C 
ATOM      5  H   UNL     1      -1.116  16.328  20.672  0.00  0.00    +0.046 HD
ATOM      6  H   UNL     1      -2.319  15.032  20.624  0.00  0.00    +0.046 HD
BRANCH   4   9
ATOM      7  C   UNL     1       0.530  14.657  19.681  0.00  0.00    +0.218 C 
ATOM      8  O   UNL     1       0.984  15.160  20.708  0.00  0.00    -0.275 OA
ATOM      9  N   UNL     1      -0.778  14.840  19.271  0.00  0.00    -0.315 N 
ATOM     10  H   UNL     1      -1.101  14.411  18.410  0.00  0.00    +0.149 HD
BRANCH   7  11
ATOM     11  C   UNL     1       1.356  13.820  18.705  0.00  0.00    +0.060 C 
ATOM     12  H   UNL     1       1.130  12.767  18.921  0.00  0.00    +0.042 HD
BRANCH  11  13
ATOM     13  C   UNL     1       0.869  14.166  17.296  0.00  0.00    -0.052 C 
ATOM     14  H   UNL     1       1.060  13.346  16.594  0.00  0.00    +0.024 HD
ATOM     15  H   UNL     1      -0.195  14.405  17.284  0.00  0.00    +0.024 HD
ATOM     16  H   UNL     1       1.377  15.046  16.892  0.00  0.00    +0.024 HD
ENDBRANCH  11  13
BRANCH  11  17
ATOM     17  C   UNL     1       2.872  14.055  18.904  0.00  0.00    +0.081 C 
ATOM     18  H   UNL     1       3.430  13.734  18.017  0.00  0.00    +0.062 HD
BRANCH  17  19
ATOM     19  C   UNL     1       3.479  13.374  20.148  0.00  0.00    +0.038 C 
ATOM     20  H   UNL     1       2.676  12.903  20.731  0.00  0.00    +0.049 HD
ATOM     21  H   UNL     1       4.129  12.545  19.831  0.00  0.00    +0.049 HD
BRANCH  19  24
ATOM     22  C   UNL     1       3.839  14.300  22.406  0.00  0.00    +0.216 C 
ATOM     23  O   UNL     1       2.969  13.595  22.906  0.00  0.00    -0.276 OA
ATOM     24  N   UNL     1       4.173  14.255  21.069  0.00  0.00    -0.313 N 
ATOM     25  H   UNL     1       4.850  14.912  20.701  0.00  0.00    +0.149 HD
BRANCH  22  26
ATOM     26  C   UNL     1       4.639  15.310  23.200  0.00  0.00    +0.050 C 
ATOM     27  H   UNL     1       5.695  15.177  22.934  0.00  0.00    +0.038 HD
ATOM     28  H   UNL     1       4.571  15.103  24.274  0.00  0.00    +0.038 HD
BRANCH  26  33
ATOM     29  C   UNL     1       4.711  18.509  21.283  0.00  0.00    +0.066 C 
ATOM     30  C   UNL     1       3.677  19.262  22.125  0.00  0.00    -0.026 C 
ATOM     31  C   UNL     1       3.994  19.165  23.615  0.00  0.00    -0.046 C 
ATOM     32  C   UNL     1       4.486  17.759  24.028  0.00  0.00    -0.017 C 
ATOM     33  C   UNL     1       4.221  16.750  22.884  0.00  0.00    +0.070 C 
ATOM     34  O   UNL     1       4.919  17.148  21.691  0.00  0.00    -0.372 OA
ATOM     35  H   UNL     1       5.681  19.007  21.413  0.00  0.00    +0.060 HD
ATOM     36  H   UNL     1       3.620  20.315  21.833  0.00  0.00    +0.029 HD
ATOM     37  H   UNL     1       2.676  18.847  21.950  0.00  0.00    +0.029 HD
ATOM     38  H   UNL     1       4.733  19.935  23.877  0.00  0.00    +0.027 HD
ATOM     39  H   UNL     1       3.082  19.415  24.179  0.00  0.00    +0.027 HD
ATOM     40  H   UNL     1       3.915  17.459  24.917  0.00  0.00    +0.032 HD
ATOM     41  H   UNL     1       3.147  16.736  22.647  0.00  0.00    +0.060 HD
BRANCH  32  42
ATOM     42  C   UNL     1       5.961  17.829  24.441  0.00  0.00    -0.060 C 
ATOM     43  H   UNL     1       6.443  16.849  24.386  0.00  0.00    +0.023 HD
ATOM     44  H   UNL     1       6.528  18.514  23.805  0.00  0.00    +0.023 HD
ATOM     45  H   UNL     1       6.065  18.167  25.477  0.00  0.00    +0.023 HD
ENDBRANCH  32  42
BRANCH  29  46
ATOM     46  C   UNL     1       4.351  18.493  19.800  0.00  0.00    +0.036 C 
ATOM     47  H   UNL     1       3.297  18.759  19.654  0.00  0.00    +0.037 HD
ATOM     48  H   UNL     1       4.432  17.484  19.377  0.00  0.00    +0.037 HD
BRANCH  46  49
ATOM     49  C   UNL     1       5.202  19.461  19.009  0.00  0.00    +0.158 C 
ATOM     50  O   UNL     1       6.237  19.929  19.484  0.00  0.00    -0.293 OA
BRANCH  49  52
ATOM     51  C   UNL     1       4.427  21.063  17.226  0.00  0.00    -0.084 C 
ATOM     52  C   UNL     1       4.832  19.845  17.621  0.00  0.00    -0.023 C 
ATOM     53  H   UNL     1       4.331  21.891  17.925  0.00  0.00    +0.057 HD
ATOM     54  H   UNL     1       4.928  19.031  16.904  0.00  0.00    +0.065 HD
BRANCH  51  55
ATOM     55  C   UNL     1       4.067  21.375  15.809  0.00  0.00    -0.046 C 
ATOM     56  H   UNL     1       3.446  20.575  15.401  0.00  0.00    +0.027 HD
ATOM     57  H   UNL     1       4.978  21.459  15.205  0.00  0.00    +0.027 HD
ATOM     58  H   UNL     1       3.512  22.314  15.722  0.00  0.00    +0.027 HD
ENDBRANCH  51  55
ENDBRANCH  49  52
ENDBRANCH  46  49
ENDBRANCH  29  46
ENDBRANCH  26  33
ENDBRANCH  22  26
ENDBRANCH  19  24
ENDBRANCH  17  19
BRANCH  17  59
ATOM     59  O   UNL     1       3.131  15.463  19.072  0.00  0.00    -0.390 OA
ATOM     60  H   UNL     1       3.873  15.577  19.690  0.00  0.00    +0.210 HD
ENDBRANCH  17  59
ENDBRANCH  11  17
ENDBRANCH   7  11
ENDBRANCH   4   9
ENDBRANCH   1   4
BRANCH   1  61
ATOM     61  C   UNL     1      -2.838  15.880  17.726  0.00  0.00    -0.025 C 
ATOM     62  H   UNL     1      -2.070  15.118  17.548  0.00  0.00    +0.029 HD
ATOM     63  H   UNL     1      -2.741  16.630  16.932  0.00  0.00    +0.029 HD
BRANCH  61  64
ATOM     64  C   UNL     1      -4.244  15.263  17.658  0.00  0.00    +0.065 C 
ATOM     65  C   UNL     1      -5.146  15.956  16.613  0.00  0.00    -0.017 C 
ATOM     66  C   UNL     1      -6.586  15.427  16.712  0.00  0.00    -0.043 C 
ATOM     67  C   UNL     1      -7.087  15.479  18.155  0.00  0.00    +0.002 C 
ATOM     68  C   UNL     1      -6.106  14.784  19.107  0.00  0.00    +0.171 C 
ATOM     69  O   UNL     1      -4.822  15.393  18.961  0.00  0.00    -0.345 OA
ATOM     70  C   UNL     1      -6.553  15.001  20.560  0.00  0.00    +0.002 C 
ATOM     71  C   UNL     1      -5.598  14.314  21.542  0.00  0.00    -0.046 C 
ATOM     72  C   UNL     1      -4.992  13.043  20.951  0.00  0.00    -0.026 C 
ATOM     73  C   UNL     1      -5.887  12.477  19.850  0.00  0.00    +0.062 C 
ATOM     74  O   UNL     1      -6.060  13.394  18.762  0.00  0.00    -0.345 OA
ATOM     75  H   UNL     1      -4.133  14.202  17.414  0.00  0.00    +0.060 HD
ATOM     76  H   UNL     1      -5.177  17.029  16.838  0.00  0.00    +0.032 HD
ATOM     77  H   UNL     1      -7.253  16.017  16.075  0.00  0.00    +0.027 HD
ATOM     78  H   UNL     1      -6.632  14.393  16.341  0.00  0.00    +0.027 HD
ATOM     79  H   UNL     1      -8.075  15.008  18.210  0.00  0.00    +0.032 HD
ATOM     80  H   UNL     1      -7.200  16.535  18.434  0.00  0.00    +0.032 HD
ATOM     81  H   UNL     1      -7.559  14.581  20.698  0.00  0.00    +0.032 HD
ATOM     82  H   UNL     1      -6.604  16.070  20.808  0.00  0.00    +0.032 HD
ATOM     83  H   UNL     1      -4.787  14.994  21.832  0.00  0.00    +0.027 HD
ATOM     84  H   UNL     1      -6.143  14.082  22.466  0.00  0.00    +0.027 HD
ATOM     85  H   UNL     1      -4.008  13.297  20.539  0.00  0.00    +0.029 HD
ATOM     86  H   UNL     1      -4.817  12.310  21.745  0.00  0.00    +0.029 HD
ATOM     87  H   UNL     1      -6.885  12.287  20.271  0.00  0.00    +0.060 HD
BRANCH  65  88
ATOM     88  C   UNL     1      -4.636  15.782  15.180  0.00  0.00    -0.060 C 
ATOM     89  H   UNL     1      -5.407  16.051  14.455  0.00  0.00    +0.023 HD
ATOM     90  H   UNL     1      -4.345  14.743  14.988  0.00  0.00    +0.023 HD
ATOM     91  H   UNL     1      -3.765  16.421  14.988  0.00  0.00    +0.023 HD
ENDBRANCH  65  88
BRANCH  73  92
ATOM     92  C   UNL     1      -5.385  11.143  19.274  0.00  0.00    -0.026 C 
ATOM     93  H   UNL     1      -5.797  10.343  19.891  0.00  0.00    +0.029 HD
ATOM     94  H   UNL     1      -4.294  11.102  19.378  0.00  0.00    +0.029 HD
BRANCH  92  95
ATOM     95  C   UNL     1      -5.771  10.898  17.808  0.00  0.00    -0.045 C 
ATOM     96  H   UNL     1      -5.313  11.682  17.189  0.00  0.00    +0.027 HD
ATOM     97  H   UNL     1      -6.854  11.009  17.702  0.00  0.00    +0.027 HD
BRANCH  95  98
ATOM     98  C   UNL     1      -5.372   9.533  17.209  0.00  0.00    -0.025 C 
ATOM     99  H   UNL     1      -4.671   9.094  17.926  0.00  0.00    +0.034 HD
BRANCH  98 100
ATOM    100  C   UNL     1      -4.612   9.675  15.890  0.00  0.00    -0.059 C 
ATOM    101  H   UNL     1      -3.804  10.409  15.993  0.00  0.00    +0.024 HD
ATOM    102  H   UNL     1      -5.275  10.022  15.093  0.00  0.00    +0.024 HD
ATOM    103  H   UNL     1      -4.157   8.734  15.568  0.00  0.00    +0.024 HD
ENDBRANCH  98 100
BRANCH  98 104
ATOM    104  C   UNL     1      -6.568   8.622  17.015  0.00  0.00    -0.080 C 
ATOM    105  C   UNL     1      -7.184   7.845  17.932  0.00  0.00    -0.048 C 
ATOM    106  H   UNL     1      -6.937   8.615  15.993  0.00  0.00    +0.058 HD
BRANCH 105 107
ATOM    107  C   UNL     1      -6.735   7.725  19.374  0.00  0.00    -0.041 C 
ATOM    108  H   UNL     1      -5.655   7.793  19.503  0.00  0.00    +0.028 HD
ATOM    109  H   UNL     1      -7.197   8.511  19.982  0.00  0.00    +0.028 HD
ATOM    110  H   UNL     1      -7.037   6.756  19.785  0.00  0.00    +0.028 HD
ENDBRANCH 105 107
BRANCH 105 111
ATOM    111  C   UNL     1      -8.395   6.976  17.622  0.00  0.00    +0.073 C 
ATOM    112  H   UNL     1      -8.923   7.410  16.766  0.00  0.00    +0.064 HD
BRANCH 111 113
ATOM    113  C   UNL     1      -9.422   6.761  18.736  0.00  0.00    -0.035 C 
ATOM    114  H   UNL     1      -8.940   6.662  19.714  0.00  0.00    +0.026 HD
ATOM    115  H   UNL     1     -10.113   7.613  18.771  0.00  0.00    +0.026 HD
ATOM    116  H   UNL     1     -10.035   5.873  18.546  0.00  0.00    +0.026 HD
ENDBRANCH 111 113
BRANCH 111 117
ATOM    117  O   UNL     1      -7.926   5.691  17.218  0.00  0.00    -0.388 OA
ATOM    118  H   UNL     1      -7.020   5.814  16.888  0.00  0.00    +0.210 HD
ENDBRANCH 111 117
ENDBRANCH 105 111
ENDBRANCH  98 104
ENDBRANCH  95  98
ENDBRANCH  92  95
ENDBRANCH  73  92
ENDBRANCH  61  64
ENDBRANCH   1  61
TORSDOF 27
ENDMDL
MODEL 8
REMARK VINA RESULT:      -6.5      2.737      5.882
REMARK  Name = Bistramide A_conf3
REMARK  27 active torsions:
REMARK  status: ('A' for Active; 'I' for Inactive)
REMARK    1  A    between atoms: C_1  and  C_2
REMARK    2  A    between atoms: C_3  and  C_4
REMARK    3  A    between atoms: C_4  and  C_6
REMARK    4  A    between atoms: C_6  and  C_7
REMARK    5  A    between atoms: C_10  and  C_50
REMARK    6  A    between atoms: C_11  and  C_13
REMARK    7  A    between atoms: C_13  and  C_14
REMARK    8  A    between atoms: N_16  and  C_17
REMARK    9  A    between atoms: C_17  and  C_18
REMARK   10  A    between atoms: C_18  and  C_19
REMARK   11  A    between atoms: C_18  and  O_49
REMARK   12  A    between atoms: C_19  and  C_20
REMARK   13  A    between atoms: C_19  and  C_21
REMARK   14  A    between atoms: N_23  and  C_24
REMARK   15  A    between atoms: C_24  and  C_25
REMARK   16  A    between atoms: C_25  and  C_26
REMARK   17  A    between atoms: C_26  and  C_27
REMARK   18  A    between atoms: C_28  and  C_48
REMARK   19  A    between atoms: C_36  and  C_38
REMARK   20  A    between atoms: C_38  and  C_39
REMARK   21  A    between atoms: C_39  and  C_40
REMARK   22  A    between atoms: C_40  and  C_41
REMARK   23  A    between atoms: C_40  and  C_42
REMARK   24  A    between atoms: C_43  and  C_44
REMARK   25  A    between atoms: C_43  and  C_45
REMARK   26  A    between atoms: C_45  and  C_46
REMARK   27  A    between atoms: C_45  and  O_47
REMARK                            x       y       z     vdW  Elec       q    Type
REMARK                         _______ _______ _______ _____ _____    ______ ____
ROOT
ATOM      1  C   UNL     1       6.872  16.206  22.455  0.00  0.00    -0.035 C 
ATOM      2  H   UNL     1       7.611  15.499  22.060  0.00  0.00    +0.028 HD
ATOM      3  H   UNL     1       6.398  15.718  23.312  0.00  0.00    +0.028 HD
ENDROOT
BRANCH   1   4
ATOM      4  C   UNL     1       5.809  16.463  21.386  0.00  0.00    +0.012 C 
ATOM      5  H   UNL     1       5.190  17.318  21.675  0.00  0.00    +0.046 HD
ATOM      6  H   UNL     1       6.277  16.699  20.424  0.00  0.00    +0.046 HD
BRANCH   4   9
ATOM      7  C   UNL     1       4.951  14.607  19.993  0.00  0.00    +0.218 C 
ATOM      8  O   UNL     1       5.718  14.861  19.065  0.00  0.00    -0.275 OA
ATOM      9  N   UNL     1       4.942  15.322  21.177  0.00  0.00    -0.315 N 
ATOM     10  H   UNL     1       4.282  15.079  21.908  0.00  0.00    +0.149 HD
BRANCH   7  11
ATOM     11  C   UNL     1       3.881  13.517  19.940  0.00  0.00    +0.060 C 
ATOM     12  H   UNL     1       4.394  12.582  19.674  0.00  0.00    +0.042 HD
BRANCH  11  13
ATOM     13  C   UNL     1       3.297  13.394  21.349  0.00  0.00    -0.052 C 
ATOM     14  H   UNL     1       4.055  13.600  22.115  0.00  0.00    +0.024 HD
ATOM     15  H   UNL     1       2.451  14.065  21.495  0.00  0.00    +0.024 HD
ATOM     16  H   UNL     1       2.919  12.389  21.549  0.00  0.00    +0.024 HD
ENDBRANCH  11  13
BRANCH  11  17
ATOM     17  C   UNL     1       2.816  13.824  18.861  0.00  0.00    +0.081 C 
ATOM     18  H   UNL     1       3.295  14.099  17.915  0.00  0.00    +0.062 HD
BRANCH  17  19
ATOM     19  C   UNL     1       1.799  14.920  19.242  0.00  0.00    +0.038 C 
ATOM     20  H   UNL     1       1.382  14.697  20.234  0.00  0.00    +0.049 HD
ATOM     21  H   UNL     1       2.322  15.880  19.359  0.00  0.00    +0.049 HD
BRANCH  19  24
ATOM     22  C   UNL     1      -0.632  14.943  18.825  0.00  0.00    +0.216 C 
ATOM     23  O   UNL     1      -0.904  14.753  20.006  0.00  0.00    -0.276 OA
ATOM     24  N   UNL     1       0.659  15.053  18.354  0.00  0.00    -0.313 N 
ATOM     25  H   UNL     1       0.822  15.139  17.359  0.00  0.00    +0.149 HD
BRANCH  22  26
ATOM     26  C   UNL     1      -1.686  15.065  17.746  0.00  0.00    +0.050 C 
ATOM     27  H   UNL     1      -1.597  14.186  17.096  0.00  0.00    +0.038 HD
ATOM     28  H   UNL     1      -1.490  15.933  17.107  0.00  0.00    +0.038 HD
BRANCH  26  33
ATOM     29  C   UNL     1      -5.012  13.654  18.674  0.00  0.00    +0.066 C 
ATOM     30  C   UNL     1      -5.605  14.934  19.272  0.00  0.00    -0.026 C 
ATOM     31  C   UNL     1      -5.426  16.122  18.331  0.00  0.00    -0.046 C 
ATOM     32  C   UNL     1      -4.043  16.132  17.641  0.00  0.00    -0.017 C 
ATOM     33  C   UNL     1      -3.102  15.114  18.330  0.00  0.00    +0.070 C 
ATOM     34  O   UNL     1      -3.648  13.786  18.244  0.00  0.00    -0.372 OA
ATOM     35  H   UNL     1      -5.584  13.405  17.771  0.00  0.00    +0.060 HD
ATOM     36  H   UNL     1      -6.667  14.807  19.502  0.00  0.00    +0.029 HD
ATOM     37  H   UNL     1      -5.116  15.164  20.227  0.00  0.00    +0.029 HD
ATOM     38  H   UNL     1      -6.239  16.121  17.591  0.00  0.00    +0.027 HD
ATOM     39  H   UNL     1      -5.551  17.047  18.916  0.00  0.00    +0.027 HD
ATOM     40  H   UNL     1      -3.629  17.143  17.750  0.00  0.00    +0.032 HD
ATOM     41  H   UNL     1      -3.009  15.363  19.397  0.00  0.00    +0.060 HD
BRANCH  32  42
ATOM     42  C   UNL     1      -4.215  15.875  16.138  0.00  0.00    -0.060 C 
ATOM     43  H   UNL     1      -4.882  15.030  15.947  0.00  0.00    +0.023 HD
ATOM     44  H   UNL     1      -4.625  16.747  15.622  0.00  0.00    +0.023 HD
ATOM     45  H   UNL     1      -3.258  15.626  15.669  0.00  0.00    +0.023 HD
ENDBRANCH  32  42
BRANCH  29  46
ATOM     46  C   UNL     1      -5.074  12.478  19.645  0.00  0.00    +0.036 C 
ATOM     47  H   UNL     1      -5.536  12.782  20.593  0.00  0.00    +0.037 HD
ATOM     48  H   UNL     1      -4.070  12.142  19.935  0.00  0.00    +0.037 HD
BRANCH  46  49
ATOM     49  C   UNL     1      -5.867  11.325  19.075  0.00  0.00    +0.158 C 
ATOM     50  O   UNL     1      -7.055  11.171  19.358  0.00  0.00    -0.293 OA
BRANCH  49  52
ATOM     51  C   UNL     1      -5.234  10.482  16.786  0.00  0.00    -0.084 C 
ATOM     52  C   UNL     1      -5.244  10.366  18.124  0.00  0.00    -0.023 C 
ATOM     53  H   UNL     1      -5.707  11.321  16.279  0.00  0.00    +0.057 HD
ATOM     54  H   UNL     1      -4.759   9.522  18.613  0.00  0.00    +0.065 HD
BRANCH  51  55
ATOM     55  C   UNL     1      -4.590   9.472  15.892  0.00  0.00    -0.046 C 
ATOM     56  H   UNL     1      -5.329   8.735  15.575  0.00  0.00    +0.027 HD
ATOM     57  H   UNL     1      -3.787   8.958  16.431  0.00  0.00    +0.027 HD
ATOM     58  H   UNL     1      -4.161   9.930  14.995  0.00  0.00    +0.027 HD
ENDBRANCH  51  55
ENDBRANCH  49  52
ENDBRANCH  46  49
ENDBRANCH  29  46
ENDBRANCH  26  33
ENDBRANCH  22  26
ENDBRANCH  19  24
ENDBRANCH  17  19
BRANCH  17  59
ATOM     59  O   UNL     1       2.029  12.644  18.602  0.00  0.00    -0.390 OA
ATOM     60  H   UNL     1       1.086  12.870  18.673  0.00  0.00    +0.210 HD
ENDBRANCH  17  59
ENDBRANCH  11  17
ENDBRANCH   7  11
ENDBRANCH   4   9
ENDBRANCH   1   4
BRANCH   1  61
ATOM     61  C   UNL     1       7.568  17.492  22.925  0.00  0.00    -0.025 C 
ATOM     62  H   UNL     1       7.177  17.762  23.912  0.00  0.00    +0.029 HD
ATOM     63  H   UNL     1       7.314  18.311  22.240  0.00  0.00    +0.029 HD
BRANCH  61  64
ATOM     64  C   UNL     1       9.096  17.338  22.967  0.00  0.00    +0.065 C 
ATOM     65  C   UNL     1       9.796  18.020  21.770  0.00  0.00    -0.017 C 
ATOM     66  C   UNL     1      11.295  17.682  21.762  0.00  0.00    -0.043 C 
ATOM     67  C   UNL     1      11.515  16.174  21.882  0.00  0.00    +0.002 C 
ATOM     68  C   UNL     1      10.758  15.599  23.086  0.00  0.00    +0.171 C 
ATOM     69  O   UNL     1       9.375  15.933  22.957  0.00  0.00    -0.345 OA
ATOM     70  C   UNL     1      10.862  14.067  23.079  0.00  0.00    +0.002 C 
ATOM     71  C   UNL     1      10.122  13.456  24.274  0.00  0.00    -0.046 C 
ATOM     72  C   UNL     1      10.163  14.371  25.497  0.00  0.00    -0.026 C 
ATOM     73  C   UNL     1      11.361  15.316  25.427  0.00  0.00    +0.062 C 
ATOM     74  O   UNL     1      11.317  16.170  24.276  0.00  0.00    -0.345 OA
ATOM     75  H   UNL     1       9.452  17.771  23.906  0.00  0.00    +0.060 HD
ATOM     76  H   UNL     1       9.366  17.620  20.844  0.00  0.00    +0.032 HD
ATOM     77  H   UNL     1      11.761  18.043  20.839  0.00  0.00    +0.027 HD
ATOM     78  H   UNL     1      11.801  18.197  22.590  0.00  0.00    +0.027 HD
ATOM     79  H   UNL     1      12.588  15.973  21.971  0.00  0.00    +0.032 HD
ATOM     80  H   UNL     1      11.158  15.707  20.955  0.00  0.00    +0.032 HD
ATOM     81  H   UNL     1      11.919  13.773  23.135  0.00  0.00    +0.032 HD
ATOM     82  H   UNL     1      10.448  13.642  22.155  0.00  0.00    +0.032 HD
ATOM     83  H   UNL     1       9.075  13.252  24.016  0.00  0.00    +0.027 HD
ATOM     84  H   UNL     1      10.570  12.484  24.512  0.00  0.00    +0.027 HD
ATOM     85  H   UNL     1       9.231  14.950  25.517  0.00  0.00    +0.029 HD
ATOM     86  H   UNL     1      10.176  13.769  26.411  0.00  0.00    +0.029 HD
ATOM     87  H   UNL     1      12.278  14.714  25.345  0.00  0.00    +0.060 HD
BRANCH  65  88
ATOM     88  C   UNL     1       9.615  19.540  21.766  0.00  0.00    -0.060 C 
ATOM     89  H   UNL     1       9.737  19.945  20.759  0.00  0.00    +0.023 HD
ATOM     90  H   UNL     1      10.352  20.027  22.414  0.00  0.00    +0.023 HD
ATOM     91  H   UNL     1       8.614  19.822  22.116  0.00  0.00    +0.023 HD
ENDBRANCH  65  88
BRANCH  73  92
ATOM     92  C   UNL     1      11.519  16.202  26.673  0.00  0.00    -0.026 C 
ATOM     93  H   UNL     1      12.362  15.814  27.247  0.00  0.00    +0.029 HD
ATOM     94  H   UNL     1      10.625  16.094  27.298  0.00  0.00    +0.029 HD
BRANCH  92  95
ATOM     95  C   UNL     1      11.757  17.689  26.369  0.00  0.00    -0.045 C 
ATOM     96  H   UNL     1      12.053  17.788  25.315  0.00  0.00    +0.027 HD
ATOM     97  H   UNL     1      12.602  18.044  26.966  0.00  0.00    +0.027 HD
BRANCH  95  98
ATOM     98  C   UNL     1      10.568  18.641  26.614  0.00  0.00    -0.025 C 
ATOM     99  H   UNL     1      10.761  19.104  27.587  0.00  0.00    +0.034 HD
BRANCH  98 100
ATOM    100  C   UNL     1       9.241  17.894  26.743  0.00  0.00    -0.059 C 
ATOM    101  H   UNL     1       9.349  16.861  26.394  0.00  0.00    +0.024 HD
ATOM    102  H   UNL     1       8.464  18.368  26.136  0.00  0.00    +0.024 HD
ATOM    103  H   UNL     1       8.885  17.852  27.777  0.00  0.00    +0.024 HD
ENDBRANCH  98 100
BRANCH  98 104
ATOM    104  C   UNL     1      10.455  19.703  25.538  0.00  0.00    -0.080 C 
ATOM    105  C   UNL     1      10.654  21.034  25.654  0.00  0.00    -0.048 C 
ATOM    106  H   UNL     1      10.165  19.301  24.571  0.00  0.00    +0.058 HD
BRANCH 105 107
ATOM    107  C   UNL     1      11.008  21.724  26.954  0.00  0.00    -0.041 C 
ATOM    108  H   UNL     1      11.048  22.811  26.876  0.00  0.00    +0.028 HD
ATOM    109  H   UNL     1      10.278  21.469  27.731  0.00  0.00    +0.028 HD
ATOM    110  H   UNL     1      11.997  21.401  27.297  0.00  0.00    +0.028 HD
ENDBRANCH 105 107
BRANCH 105 111
ATOM    111  C   UNL     1      10.524  22.008  24.490  0.00  0.00    +0.073 C 
ATOM    112  H   UNL     1      11.072  21.600  23.634  0.00  0.00    +0.064 HD
BRANCH 111 113
ATOM    113  C   UNL     1      11.008  23.444  24.705  0.00  0.00    -0.035 C 
ATOM    114  H   UNL     1      12.040  23.576  24.365  0.00  0.00    +0.026 HD
ATOM    115  H   UNL     1      10.365  24.138  24.148  0.00  0.00    +0.026 HD
ATOM    116  H   UNL     1      10.938  23.734  25.759  0.00  0.00    +0.026 HD
ENDBRANCH 111 113
BRANCH 111 117
ATOM    117  O   UNL     1       9.148  22.072  24.117  0.00  0.00    -0.388 OA
ATOM    118  H   UNL     1       8.970  21.289  23.570  0.00  0.00    +0.210 HD
ENDBRANCH 111 117
ENDBRANCH 105 111
ENDBRANCH  98 104
ENDBRANCH  95  98
ENDBRANCH  92  95
ENDBRANCH  73  92
ENDBRANCH  61  64
ENDBRANCH   1  61
TORSDOF 27
ENDMDL
MODEL 9
REMARK VINA RESULT:      -6.5      2.680      6.258
REMARK  Name = Bistramide A_conf3
REMARK  27 active torsions:
REMARK  status: ('A' for Active; 'I' for Inactive)
REMARK    1  A    between atoms: C_1  and  C_2
REMARK    2  A    between atoms: C_3  and  C_4
REMARK    3  A    between atoms: C_4  and  C_6
REMARK    4  A    between atoms: C_6  and  C_7
REMARK    5  A    between atoms: C_10  and  C_50
REMARK    6  A    between atoms: C_11  and  C_13
REMARK    7  A    between atoms: C_13  and  C_14
REMARK    8  A    between atoms: N_16  and  C_17
REMARK    9  A    between atoms: C_17  and  C_18
REMARK   10  A    between atoms: C_18  and  C_19
REMARK   11  A    between atoms: C_18  and  O_49
REMARK   12  A    between atoms: C_19  and  C_20
REMARK   13  A    between atoms: C_19  and  C_21
REMARK   14  A    between atoms: N_23  and  C_24
REMARK   15  A    between atoms: C_24  and  C_25
REMARK   16  A    between atoms: C_25  and  C_26
REMARK   17  A    between atoms: C_26  and  C_27
REMARK   18  A    between atoms: C_28  and  C_48
REMARK   19  A    between atoms: C_36  and  C_38
REMARK   20  A    between atoms: C_38  and  C_39
REMARK   21  A    between atoms: C_39  and  C_40
REMARK   22  A    between atoms: C_40  and  C_41
REMARK   23  A    between atoms: C_40  and  C_42
REMARK   24  A    between atoms: C_43  and  C_44
REMARK   25  A    between atoms: C_43  and  C_45
REMARK   26  A    between atoms: C_45  and  C_46
REMARK   27  A    between atoms: C_45  and  O_47
REMARK                            x       y       z     vdW  Elec       q    Type
REMARK                         _______ _______ _______ _____ _____    ______ ____
ROOT
ATOM      1  C   UNL     1       5.831  15.895  26.169  0.00  0.00    -0.035 C 
ATOM      2  H   UNL     1       5.740  15.554  27.206  0.00  0.00    +0.028 HD
ATOM      3  H   UNL     1       4.816  15.938  25.762  0.00  0.00    +0.028 HD
ENDROOT
BRANCH   1   4
ATOM      4  C   UNL     1       6.635  14.864  25.374  0.00  0.00    +0.012 C 
ATOM      5  H   UNL     1       6.661  13.914  25.917  0.00  0.00    +0.046 HD
ATOM      6  H   UNL     1       6.170  14.680  24.399  0.00  0.00    +0.046 HD
BRANCH   4   9
ATOM      7  C   UNL     1       9.061  14.406  25.205  0.00  0.00    +0.218 C 
ATOM      8  O   UNL     1       8.916  13.206  25.439  0.00  0.00    -0.275 OA
ATOM      9  N   UNL     1       7.998  15.288  25.130  0.00  0.00    -0.315 N 
ATOM     10  H   UNL     1       8.170  16.270  24.944  0.00  0.00    +0.149 HD
BRANCH   7  11
ATOM     11  C   UNL     1      10.418  15.082  25.025  0.00  0.00    +0.060 C 
ATOM     12  H   UNL     1      10.293  16.131  25.328  0.00  0.00    +0.042 HD
BRANCH  11  13
ATOM     13  C   UNL     1      11.394  14.390  25.979  0.00  0.00    -0.052 C 
ATOM     14  H   UNL     1      11.364  14.841  26.978  0.00  0.00    +0.024 HD
ATOM     15  H   UNL     1      11.187  13.323  26.063  0.00  0.00    +0.024 HD
ATOM     16  H   UNL     1      12.428  14.467  25.634  0.00  0.00    +0.024 HD
ENDBRANCH  11  13
BRANCH  11  17
ATOM     17  C   UNL     1      10.876  15.043  23.547  0.00  0.00    +0.081 C 
ATOM     18  H   UNL     1      11.834  14.519  23.455  0.00  0.00    +0.062 HD
BRANCH  17  19
ATOM     19  C   UNL     1      10.994  16.422  22.865  0.00  0.00    +0.038 C 
ATOM     20  H   UNL     1      11.156  17.192  23.631  0.00  0.00    +0.049 HD
ATOM     21  H   UNL     1      11.899  16.444  22.239  0.00  0.00    +0.049 HD
BRANCH  19  24
ATOM     22  C   UNL     1       8.851  17.630  22.689  0.00  0.00    +0.216 C 
ATOM     23  O   UNL     1       8.905  18.029  23.848  0.00  0.00    -0.276 OA
ATOM     24  N   UNL     1       9.831  16.851  22.112  0.00  0.00    -0.313 N 
ATOM     25  H   UNL     1       9.696  16.493  21.174  0.00  0.00    +0.149 HD
BRANCH  22  26
ATOM     26  C   UNL     1       7.695  17.939  21.764  0.00  0.00    +0.050 C 
ATOM     27  H   UNL     1       8.063  17.851  20.734  0.00  0.00    +0.038 HD
ATOM     28  H   UNL     1       7.372  18.980  21.878  0.00  0.00    +0.038 HD
BRANCH  26  33
ATOM     29  C   UNL     1       4.934  15.696  20.642  0.00  0.00    +0.066 C 
ATOM     30  C   UNL     1       4.452  15.272  22.032  0.00  0.00    -0.026 C 
ATOM     31  C   UNL     1       4.240  16.481  22.941  0.00  0.00    -0.046 C 
ATOM     32  C   UNL     1       5.341  17.552  22.771  0.00  0.00    -0.017 C 
ATOM     33  C   UNL     1       6.525  16.969  21.962  0.00  0.00    +0.070 C 
ATOM     34  O   UNL     1       6.086  16.553  20.658  0.00  0.00    -0.372 OA
ATOM     35  H   UNL     1       4.135  16.284  20.171  0.00  0.00    +0.060 HD
ATOM     36  H   UNL     1       3.524  14.695  21.970  0.00  0.00    +0.029 HD
ATOM     37  H   UNL     1       5.189  14.606  22.498  0.00  0.00    +0.029 HD
ATOM     38  H   UNL     1       3.243  16.903  22.751  0.00  0.00    +0.027 HD
ATOM     39  H   UNL     1       4.227  16.129  23.985  0.00  0.00    +0.027 HD
ATOM     40  H   UNL     1       5.687  17.828  23.776  0.00  0.00    +0.032 HD
ATOM     41  H   UNL     1       6.919  16.080  22.475  0.00  0.00    +0.060 HD
BRANCH  32  42
ATOM     42  C   UNL     1       4.740  18.814  22.139  0.00  0.00    -0.060 C 
ATOM     43  H   UNL     1       5.268  19.097  21.224  0.00  0.00    +0.023 HD
ATOM     44  H   UNL     1       3.685  18.677  21.886  0.00  0.00    +0.023 HD
ATOM     45  H   UNL     1       4.815  19.669  22.818  0.00  0.00    +0.023 HD
ENDBRANCH  32  42
BRANCH  29  46
ATOM     46  C   UNL     1       5.265  14.500  19.753  0.00  0.00    +0.036 C 
ATOM     47  H   UNL     1       6.034  13.873  20.219  0.00  0.00    +0.037 HD
ATOM     48  H   UNL     1       5.717  14.817  18.805  0.00  0.00    +0.037 HD
BRANCH  46  49
ATOM     49  C   UNL     1       4.046  13.646  19.491  0.00  0.00    +0.158 C 
ATOM     50  O   UNL     1       4.007  12.469  19.850  0.00  0.00    -0.293 OA
BRANCH  49  52
ATOM     51  C   UNL     1       1.635  13.632  18.760  0.00  0.00    -0.084 C 
ATOM     52  C   UNL     1       2.843  14.214  18.825  0.00  0.00    -0.023 C 
ATOM     53  H   UNL     1       1.442  12.658  19.205  0.00  0.00    +0.057 HD
ATOM     54  H   UNL     1       3.014  15.192  18.379  0.00  0.00    +0.065 HD
BRANCH  51  55
ATOM     55  C   UNL     1       0.470  14.263  18.068  0.00  0.00    -0.046 C 
ATOM     56  H   UNL     1       0.318  15.274  18.450  0.00  0.00    +0.027 HD
ATOM     57  H   UNL     1      -0.435  13.675  18.254  0.00  0.00    +0.027 HD
ATOM     58  H   UNL     1       0.619  14.328  16.986  0.00  0.00    +0.027 HD
ENDBRANCH  51  55
ENDBRANCH  49  52
ENDBRANCH  46  49
ENDBRANCH  29  46
ENDBRANCH  26  33
ENDBRANCH  22  26
ENDBRANCH  19  24
ENDBRANCH  17  19
BRANCH  17  59
ATOM     59  O   UNL     1       9.920  14.306  22.759  0.00  0.00    -0.390 OA
ATOM     60  H   UNL     1       9.695  14.825  21.967  0.00  0.00    +0.210 HD
ENDBRANCH  17  59
ENDBRANCH  11  17
ENDBRANCH   7  11
ENDBRANCH   4   9
ENDBRANCH   1   4
BRANCH   1  61
ATOM     61  C   UNL     1       6.453  17.299  26.125  0.00  0.00    -0.025 C 
ATOM     62  H   UNL     1       6.141  17.793  25.199  0.00  0.00    +0.029 HD
ATOM     63  H   UNL     1       7.547  17.208  26.092  0.00  0.00    +0.029 HD
BRANCH  61  64
ATOM     64  C   UNL     1       6.063  18.139  27.351  0.00  0.00    +0.065 C 
ATOM     65  C   UNL     1       7.288  18.593  28.176  0.00  0.00    -0.017 C 
ATOM     66  C   UNL     1       6.836  19.269  29.480  0.00  0.00    -0.043 C 
ATOM     67  C   UNL     1       5.825  18.397  30.225  0.00  0.00    +0.002 C 
ATOM     68  C   UNL     1       4.667  17.986  29.307  0.00  0.00    +0.171 C 
ATOM     69  O   UNL     1       5.206  17.326  28.160  0.00  0.00    -0.345 OA
ATOM     70  C   UNL     1       3.764  16.979  30.033  0.00  0.00    +0.002 C 
ATOM     71  C   UNL     1       2.589  16.549  29.147  0.00  0.00    -0.046 C 
ATOM     72  C   UNL     1       2.142  17.672  28.212  0.00  0.00    -0.026 C 
ATOM     73  C   UNL     1       2.537  19.035  28.776  0.00  0.00    +0.062 C 
ATOM     74  O   UNL     1       3.955  19.172  28.932  0.00  0.00    -0.345 OA
ATOM     75  H   UNL     1       5.506  19.012  26.996  0.00  0.00    +0.060 HD
ATOM     76  H   UNL     1       7.867  17.704  28.453  0.00  0.00    +0.032 HD
ATOM     77  H   UNL     1       7.697  19.459  30.128  0.00  0.00    +0.027 HD
ATOM     78  H   UNL     1       6.388  20.248  29.260  0.00  0.00    +0.027 HD
ATOM     79  H   UNL     1       5.450  18.944  31.096  0.00  0.00    +0.032 HD
ATOM     80  H   UNL     1       6.354  17.505  30.587  0.00  0.00    +0.032 HD
ATOM     81  H   UNL     1       3.364  17.440  30.946  0.00  0.00    +0.032 HD
ATOM     82  H   UNL     1       4.324  16.082  30.332  0.00  0.00    +0.032 HD
ATOM     83  H   UNL     1       2.858  15.671  28.547  0.00  0.00    +0.027 HD
ATOM     84  H   UNL     1       1.756  16.234  29.788  0.00  0.00    +0.027 HD
ATOM     85  H   UNL     1       2.625  17.514  27.241  0.00  0.00    +0.029 HD
ATOM     86  H   UNL     1       1.063  17.603  28.039  0.00  0.00    +0.029 HD
ATOM     87  H   UNL     1       2.091  19.145  29.775  0.00  0.00    +0.060 HD
BRANCH  65  88
ATOM     88  C   UNL     1       8.206  19.541  27.401  0.00  0.00    -0.060 C 
ATOM     89  H   UNL     1       8.891  18.984  26.758  0.00  0.00    +0.023 HD
ATOM     90  H   UNL     1       8.810  20.151  28.083  0.00  0.00    +0.023 HD
ATOM     91  H   UNL     1       7.628  20.218  26.759  0.00  0.00    +0.023 HD
ENDBRANCH  65  88
BRANCH  73  92
ATOM     92  C   UNL     1       2.034  20.218  27.932  0.00  0.00    -0.026 C 
ATOM     93  H   UNL     1       1.404  20.836  28.575  0.00  0.00    +0.029 HD
ATOM     94  H   UNL     1       1.395  19.831  27.129  0.00  0.00    +0.029 HD
BRANCH  92  95
ATOM     95  C   UNL     1       3.147  21.088  27.330  0.00  0.00    -0.045 C 
ATOM     96  H   UNL     1       4.087  20.867  27.856  0.00  0.00    +0.027 HD
ATOM     97  H   UNL     1       2.921  22.140  27.522  0.00  0.00    +0.027 HD
BRANCH  95  98
ATOM     98  C   UNL     1       3.406  20.926  25.817  0.00  0.00    -0.025 C 
ATOM     99  H   UNL     1       2.820  21.716  25.335  0.00  0.00    +0.034 HD
BRANCH  98 100
ATOM    100  C   UNL     1       2.878  19.599  25.274  0.00  0.00    -0.059 C 
ATOM    101  H   UNL     1       3.632  18.812  25.391  0.00  0.00    +0.024 HD
ATOM    102  H   UNL     1       2.643  19.677  24.210  0.00  0.00    +0.024 HD
ATOM    103  H   UNL     1       1.977  19.264  25.796  0.00  0.00    +0.024 HD
ENDBRANCH  98 100
BRANCH  98 104
ATOM    104  C   UNL     1       4.875  21.073  25.470  0.00  0.00    -0.080 C 
ATOM    105  C   UNL     1       5.423  21.706  24.411  0.00  0.00    -0.048 C 
ATOM    106  H   UNL     1       5.532  20.582  26.183  0.00  0.00    +0.058 HD
BRANCH 105 107
ATOM    107  C   UNL     1       4.617  22.381  23.321  0.00  0.00    -0.041 C 
ATOM    108  H   UNL     1       4.918  22.095  22.313  0.00  0.00    +0.028 HD
ATOM    109  H   UNL     1       3.553  22.145  23.434  0.00  0.00    +0.028 HD
ATOM    110  H   UNL     1       4.732  23.469  23.382  0.00  0.00    +0.028 HD
ENDBRANCH 105 107
BRANCH 105 111
ATOM    111  C   UNL     1       6.925  21.801  24.172  0.00  0.00    +0.073 C 
ATOM    112  H   UNL     1       7.382  22.298  25.034  0.00  0.00    +0.064 HD
BRANCH 111 113
ATOM    113  C   UNL     1       7.402  22.527  22.913  0.00  0.00    -0.035 C 
ATOM    114  H   UNL     1       6.579  22.704  22.214  0.00  0.00    +0.026 HD
ATOM    115  H   UNL     1       7.840  23.496  23.189  0.00  0.00    +0.026 HD
ATOM    116  H   UNL     1       8.191  21.964  22.403  0.00  0.00    +0.026 HD
ENDBRANCH 111 113
BRANCH 111 117
ATOM    117  O   UNL     1       7.450  20.474  24.126  0.00  0.00    -0.388 OA
ATOM    118  H   UNL     1       7.152  20.027  24.936  0.00  0.00    +0.210 HD
ENDBRANCH 111 117
ENDBRANCH 105 111
ENDBRANCH  98 104
ENDBRANCH  95  98
ENDBRANCH  92  95
ENDBRANCH  73  92
ENDBRANCH  61  64
ENDBRANCH   1  61
TORSDOF 27
ENDMDL
MODEL 10
REMARK VINA RESULT:      -6.4      3.500     13.256
REMARK  Name = Bistramide A_conf3
REMARK  27 active torsions:
REMARK  status: ('A' for Active; 'I' for Inactive)
REMARK    1  A    between atoms: C_1  and  C_2
REMARK    2  A    between atoms: C_3  and  C_4
REMARK    3  A    between atoms: C_4  and  C_6
REMARK    4  A    between atoms: C_6  and  C_7
REMARK    5  A    between atoms: C_10  and  C_50
REMARK    6  A    between atoms: C_11  and  C_13
REMARK    7  A    between atoms: C_13  and  C_14
REMARK    8  A    between atoms: N_16  and  C_17
REMARK    9  A    between atoms: C_17  and  C_18
REMARK   10  A    between atoms: C_18  and  C_19
REMARK   11  A    between atoms: C_18  and  O_49
REMARK   12  A    between atoms: C_19  and  C_20
REMARK   13  A    between atoms: C_19  and  C_21
REMARK   14  A    between atoms: N_23  and  C_24
REMARK   15  A    between atoms: C_24  and  C_25
REMARK   16  A    between atoms: C_25  and  C_26
REMARK   17  A    between atoms: C_26  and  C_27
REMARK   18  A    between atoms: C_28  and  C_48
REMARK   19  A    between atoms: C_36  and  C_38
REMARK   20  A    between atoms: C_38  and  C_39
REMARK   21  A    between atoms: C_39  and  C_40
REMARK   22  A    between atoms: C_40  and  C_41
REMARK   23  A    between atoms: C_40  and  C_42
REMARK   24  A    between atoms: C_43  and  C_44
REMARK   25  A    between atoms: C_43  and  C_45
REMARK   26  A    between atoms: C_45  and  C_46
REMARK   27  A    between atoms: C_45  and  O_47
REMARK                            x       y       z     vdW  Elec       q    Type
REMARK                         _______ _______ _______ _____ _____    ______ ____
ROOT
ATOM      1  C   UNL     1      -1.689  15.098  18.345  0.00  0.00    -0.035 C 
ATOM      2  H   UNL     1      -1.171  15.987  18.724  0.00  0.00    +0.028 HD
ATOM      3  H   UNL     1      -2.313  14.727  19.164  0.00  0.00    +0.028 HD
ENDROOT
BRANCH   1   4
ATOM      4  C   UNL     1      -0.652  14.030  17.995  0.00  0.00    +0.012 C 
ATOM      5  H   UNL     1      -1.053  13.036  18.216  0.00  0.00    +0.046 HD
ATOM      6  H   UNL     1      -0.410  14.062  16.926  0.00  0.00    +0.046 HD
BRANCH   4   9
ATOM      7  C   UNL     1       1.593  13.246  18.678  0.00  0.00    +0.218 C 
ATOM      8  O   UNL     1       1.520  12.230  17.988  0.00  0.00    -0.275 OA
ATOM      9  N   UNL     1       0.588  14.195  18.724  0.00  0.00    -0.315 N 
ATOM     10  H   UNL     1       0.691  15.011  19.317  0.00  0.00    +0.149 HD
BRANCH   7  11
ATOM     11  C   UNL     1       2.763  13.564  19.608  0.00  0.00    +0.060 C 
ATOM     12  H   UNL     1       3.109  12.606  20.021  0.00  0.00    +0.042 HD
BRANCH  11  13
ATOM     13  C   UNL     1       3.868  14.175  18.744  0.00  0.00    -0.052 C 
ATOM     14  H   UNL     1       4.280  15.082  19.204  0.00  0.00    +0.024 HD
ATOM     15  H   UNL     1       4.678  13.467  18.565  0.00  0.00    +0.024 HD
ATOM     16  H   UNL     1       3.502  14.466  17.757  0.00  0.00    +0.024 HD
ENDBRANCH  11  13
BRANCH  11  17
ATOM     17  C   UNL     1       2.323  14.478  20.777  0.00  0.00    +0.081 C 
ATOM     18  H   UNL     1       1.941  15.431  20.396  0.00  0.00    +0.062 HD
BRANCH  17  19
ATOM     19  C   UNL     1       3.414  14.761  21.829  0.00  0.00    +0.038 C 
ATOM     20  H   UNL     1       3.007  14.574  22.833  0.00  0.00    +0.049 HD
ATOM     21  H   UNL     1       4.234  14.036  21.711  0.00  0.00    +0.049 HD
BRANCH  19  24
ATOM     22  C   UNL     1       5.222  16.406  21.497  0.00  0.00    +0.216 C 
ATOM     23  O   UNL     1       6.017  15.555  21.114  0.00  0.00    -0.276 OA
ATOM     24  N   UNL     1       3.922  16.120  21.856  0.00  0.00    -0.313 N 
ATOM     25  H   UNL     1       3.335  16.854  22.232  0.00  0.00    +0.149 HD
BRANCH  22  26
ATOM     26  C   UNL     1       5.583  17.869  21.631  0.00  0.00    +0.050 C 
ATOM     27  H   UNL     1       4.737  18.455  21.249  0.00  0.00    +0.038 HD
ATOM     28  H   UNL     1       6.436  18.121  20.991  0.00  0.00    +0.038 HD
BRANCH  26  33
ATOM     29  C   UNL     1       4.688  18.350  25.221  0.00  0.00    +0.066 C 
ATOM     30  C   UNL     1       6.042  18.893  25.686  0.00  0.00    -0.026 C 
ATOM     31  C   UNL     1       6.532  20.021  24.781  0.00  0.00    -0.046 C 
ATOM     32  C   UNL     1       6.256  19.745  23.286  0.00  0.00    -0.017 C 
ATOM     33  C   UNL     1       5.847  18.265  23.088  0.00  0.00    +0.070 C 
ATOM     34  O   UNL     1       4.655  17.968  23.837  0.00  0.00    -0.372 OA
ATOM     35  H   UNL     1       3.948  19.153  25.322  0.00  0.00    +0.060 HD
ATOM     36  H   UNL     1       5.991  19.250  26.719  0.00  0.00    +0.029 HD
ATOM     37  H   UNL     1       6.790  18.089  25.684  0.00  0.00    +0.029 HD
ATOM     38  H   UNL     1       6.070  20.965  25.102  0.00  0.00    +0.027 HD
ATOM     39  H   UNL     1       7.615  20.143  24.938  0.00  0.00    +0.027 HD
ATOM     40  H   UNL     1       7.187  19.942  22.738  0.00  0.00    +0.032 HD
ATOM     41  H   UNL     1       6.645  17.609  23.466  0.00  0.00    +0.060 HD
BRANCH  32  42
ATOM     42  C   UNL     1       5.207  20.735  22.763  0.00  0.00    -0.060 C 
ATOM     43  H   UNL     1       4.787  21.341  23.570  0.00  0.00    +0.023 HD
ATOM     44  H   UNL     1       5.630  21.418  22.021  0.00  0.00    +0.023 HD
ATOM     45  H   UNL     1       4.366  20.211  22.298  0.00  0.00    +0.023 HD
ENDBRANCH  32  42
BRANCH  29  46
ATOM     46  C   UNL     1       4.234  17.144  26.039  0.00  0.00    +0.036 C 
ATOM     47  H   UNL     1       3.140  17.063  26.035  0.00  0.00    +0.037 HD
ATOM     48  H   UNL     1       4.488  17.260  27.101  0.00  0.00    +0.037 HD
BRANCH  46  49
ATOM     49  C   UNL     1       4.811  15.856  25.502  0.00  0.00    +0.158 C 
ATOM     50  O   UNL     1       4.129  15.092  24.818  0.00  0.00    -0.293 OA
BRANCH  49  52
ATOM     51  C   UNL     1       7.199  15.429  24.822  0.00  0.00    -0.084 C 
ATOM     52  C   UNL     1       6.232  15.492  25.751  0.00  0.00    -0.023 C 
ATOM     53  H   UNL     1       7.004  15.643  23.773  0.00  0.00    +0.057 HD
ATOM     54  H   UNL     1       6.449  15.280  26.796  0.00  0.00    +0.065 HD
BRANCH  51  55
ATOM     55  C   UNL     1       8.609  15.050  25.147  0.00  0.00    -0.046 C 
ATOM     56  H   UNL     1       9.172  15.940  25.437  0.00  0.00    +0.027 HD
ATOM     57  H   UNL     1       9.085  14.602  24.269  0.00  0.00    +0.027 HD
ATOM     58  H   UNL     1       8.663  14.332  25.971  0.00  0.00    +0.027 HD
ENDBRANCH  51  55
ENDBRANCH  49  52
ENDBRANCH  46  49
ENDBRANCH  29  46
ENDBRANCH  26  33
ENDBRANCH  22  26
ENDBRANCH  19  24
ENDBRANCH  17  19
BRANCH  17  59
ATOM     59  O   UNL     1       1.243  13.857  21.502  0.00  0.00    -0.390 OA
ATOM     60  H   UNL     1       0.717  14.547  21.940  0.00  0.00    +0.210 HD
ENDBRANCH  17  59
ENDBRANCH  11  17
ENDBRANCH   7  11
ENDBRANCH   4   9
ENDBRANCH   1   4
BRANCH   1  61
ATOM     61  C   UNL     1      -2.585  15.473  17.155  0.00  0.00    -0.025 C 
ATOM     62  H   UNL     1      -2.212  14.963  16.260  0.00  0.00    +0.029 HD
ATOM     63  H   UNL     1      -2.507  16.552  16.972  0.00  0.00    +0.029 HD
BRANCH  61  64
ATOM     64  C   UNL     1      -4.059  15.119  17.411  0.00  0.00    +0.065 C 
ATOM     65  C   UNL     1      -5.027  15.926  16.518  0.00  0.00    -0.017 C 
ATOM     66  C   UNL     1      -6.484  15.669  16.938  0.00  0.00    -0.043 C 
ATOM     67  C   UNL     1      -6.658  15.863  18.445  0.00  0.00    +0.002 C 
ATOM     68  C   UNL     1      -5.633  15.037  19.231  0.00  0.00    +0.171 C 
ATOM     69  O   UNL     1      -4.322  15.398  18.790  0.00  0.00    -0.345 OA
ATOM     70  C   UNL     1      -5.726  15.382  20.724  0.00  0.00    +0.002 C 
ATOM     71  C   UNL     1      -4.718  14.569  21.545  0.00  0.00    -0.046 C 
ATOM     72  C   UNL     1      -4.473  13.189  20.938  0.00  0.00    -0.026 C 
ATOM     73  C   UNL     1      -5.659  12.756  20.079  0.00  0.00    +0.062 C 
ATOM     74  O   UNL     1      -5.896  13.649  18.984  0.00  0.00    -0.345 OA
ATOM     75  H   UNL     1      -4.183  14.048  17.227  0.00  0.00    +0.060 HD
ATOM     76  H   UNL     1      -4.828  16.994  16.667  0.00  0.00    +0.032 HD
ATOM     77  H   UNL     1      -7.158  16.348  16.406  0.00  0.00    +0.027 HD
ATOM     78  H   UNL     1      -6.781  14.649  16.659  0.00  0.00    +0.027 HD
ATOM     79  H   UNL     1      -7.678  15.580  18.728  0.00  0.00    +0.032 HD
ATOM     80  H   UNL     1      -6.529  16.931  18.664  0.00  0.00    +0.032 HD
ATOM     81  H   UNL     1      -6.737  15.156  21.089  0.00  0.00    +0.032 HD
ATOM     82  H   UNL     1      -5.541  16.451  20.900  0.00  0.00    +0.032 HD
ATOM     83  H   UNL     1      -3.761  15.102  21.618  0.00  0.00    +0.027 HD
ATOM     84  H   UNL     1      -5.090  14.473  22.572  0.00  0.00    +0.027 HD
ATOM     85  H   UNL     1      -3.567  13.247  20.322  0.00  0.00    +0.029 HD
ATOM     86  H   UNL     1      -4.264  12.465  21.732  0.00  0.00    +0.029 HD
ATOM     87  H   UNL     1      -6.565  12.764  20.702  0.00  0.00    +0.060 HD
BRANCH  65  88
ATOM     88  C   UNL     1      -4.863  15.611  15.029  0.00  0.00    -0.060 C 
ATOM     89  H   UNL     1      -5.835  15.495  14.544  0.00  0.00    +0.023 HD
ATOM     90  H   UNL     1      -4.302  14.682  14.881  0.00  0.00    +0.023 HD
ATOM     91  H   UNL     1      -4.330  16.418  14.509  0.00  0.00    +0.023 HD
ENDBRANCH  65  88
BRANCH  73  92
ATOM     92  C   UNL     1      -5.522  11.333  19.513  0.00  0.00    -0.026 C 
ATOM     93  H   UNL     1      -6.439  10.793  19.755  0.00  0.00    +0.029 HD
ATOM     94  H   UNL     1      -4.701  10.825  20.032  0.00  0.00    +0.029 HD
BRANCH  92  95
ATOM     95  C   UNL     1      -5.286  11.273  17.996  0.00  0.00    -0.045 C 
ATOM     96  H   UNL     1      -4.310  11.727  17.775  0.00  0.00    +0.027 HD
ATOM     97  H   UNL     1      -6.038  11.888  17.495  0.00  0.00    +0.027 HD
BRANCH  95  98
ATOM     98  C   UNL     1      -5.310   9.872  17.351  0.00  0.00    -0.025 C 
ATOM     99  H   UNL     1      -4.671   9.248  17.984  0.00  0.00    +0.034 HD
BRANCH  98 100
ATOM    100  C   UNL     1      -4.686   9.861  15.957  0.00  0.00    -0.059 C 
ATOM    101  H   UNL     1      -4.622   8.836  15.575  0.00  0.00    +0.024 HD
ATOM    102  H   UNL     1      -3.672  10.269  15.979  0.00  0.00    +0.024 HD
ATOM    103  H   UNL     1      -5.268  10.440  15.234  0.00  0.00    +0.024 HD
ENDBRANCH  98 100
BRANCH  98 104
ATOM    104  C   UNL     1      -6.712   9.296  17.288  0.00  0.00    -0.080 C 
ATOM    105  C   UNL     1      -7.298   8.429  18.142  0.00  0.00    -0.048 C 
ATOM    106  H   UNL     1      -7.277   9.642  16.426  0.00  0.00    +0.058 HD
BRANCH 105 107
ATOM    107  C   UNL     1      -6.603   7.832  19.348  0.00  0.00    -0.041 C 
ATOM    108  H   UNL     1      -6.209   8.577  20.039  0.00  0.00    +0.028 HD
ATOM    109  H   UNL     1      -7.294   7.189  19.904  0.00  0.00    +0.028 HD
ATOM    110  H   UNL     1      -5.751   7.221  19.030  0.00  0.00    +0.028 HD
ENDBRANCH 105 107
BRANCH 105 111
ATOM    111  C   UNL     1      -8.728   7.928  17.983  0.00  0.00    +0.073 C 
ATOM    112  H   UNL     1      -9.040   7.467  18.926  0.00  0.00    +0.064 HD
BRANCH 111 113
ATOM    113  C   UNL     1      -9.011   6.925  16.862  0.00  0.00    -0.035 C 
ATOM    114  H   UNL     1      -8.548   7.234  15.920  0.00  0.00    +0.026 HD
ATOM    115  H   UNL     1      -8.614   5.939  17.140  0.00  0.00    +0.026 HD
ATOM    116  H   UNL     1     -10.087   6.794  16.708  0.00  0.00    +0.026 HD
ENDBRANCH 111 113
BRANCH 111 117
ATOM    117  O   UNL     1      -9.572   9.059  17.769  0.00  0.00    -0.388 OA
ATOM    118  H   UNL     1      -9.531   9.596  18.578  0.00  0.00    +0.210 HD
ENDBRANCH 111 117
ENDBRANCH 105 111
ENDBRANCH  98 104
ENDBRANCH  95  98
ENDBRANCH  92  95
ENDBRANCH  73  92
ENDBRANCH  61  64
ENDBRANCH   1  61
TORSDOF 27
ENDMDL
