MODEL 1
REMARK VINA RESULT:      -6.8      0.000      0.000
REMARK  Name = Bistramide A_conf2
REMARK  27 active torsions:
REMARK  status: ('A' for Active; 'I' for Inactive)
REMARK    1  A    between atoms: C_1  and  C_2
REMARK    2  A    between atoms: C_3  and  C_4
REMARK    3  A    between atoms: C_4  and  C_6
REMARK    4  A    between atoms: C_6  and  C_7
REMARK    5  A    between atoms: C_10  and  C_50
REMARK    6  A    between atoms: C_11  and  C_13
REMARK    7  A    between atoms: C_13  and  C_14
REMARK    8  A    between atoms: N_16  and  C_17
REMARK    9  A    between atoms: C_17  and  C_18
REMARK   10  A    between atoms: C_18  and  C_19
REMARK   11  A    between atoms: C_18  and  O_49
REMARK   12  A    between atoms: C_19  and  C_20
REMARK   13  A    between atoms: C_19  and  C_21
REMARK   14  A    between atoms: N_23  and  C_24
REMARK   15  A    between atoms: C_24  and  C_25
REMARK   16  A    between atoms: C_25  and  C_26
REMARK   17  A    between atoms: C_26  and  C_27
REMARK   18  A    between atoms: C_28  and  C_48
REMARK   19  A    between atoms: C_36  and  C_38
REMARK   20  A    between atoms: C_38  and  C_39
REMARK   21  A    between atoms: C_39  and  C_40
REMARK   22  A    between atoms: C_40  and  C_41
REMARK   23  A    between atoms: C_40  and  C_42
REMARK   24  A    between atoms: C_43  and  C_44
REMARK   25  A    between atoms: C_43  and  C_45
REMARK   26  A    between atoms: C_45  and  C_46
REMARK   27  A    between atoms: C_45  and  O_47
REMARK                            x       y       z     vdW  Elec       q    Type
REMARK                         _______ _______ _______ _____ _____    ______ ____
ROOT
ATOM      1  C   UNL     1      10.629  18.856  22.297  0.00  0.00    -0.035 C 
ATOM      2  H   UNL     1      11.607  18.976  21.822  0.00  0.00    +0.028 HD
ATOM      3  H   UNL     1      10.529  17.792  22.552  0.00  0.00    +0.028 HD
ENDROOT
BRANCH   1   4
ATOM      4  C   UNL     1       9.531  19.225  21.308  0.00  0.00    +0.012 C 
ATOM      5  H   UNL     1       9.753  20.191  20.833  0.00  0.00    +0.046 HD
ATOM      6  H   UNL     1       9.452  18.469  20.519  0.00  0.00    +0.046 HD
BRANCH   4   9
ATOM      7  C   UNL     1       7.316  18.359  21.989  0.00  0.00    +0.218 C 
ATOM      8  O   UNL     1       7.429  17.331  21.327  0.00  0.00    -0.275 OA
ATOM      9  N   UNL     1       8.259  19.364  21.986  0.00  0.00    -0.315 N 
ATOM     10  H   UNL     1       8.100  20.193  22.543  0.00  0.00    +0.149 HD
BRANCH   7  11
ATOM     11  C   UNL     1       6.072  18.684  22.818  0.00  0.00    +0.060 C 
ATOM     12  H   UNL     1       5.614  17.733  23.130  0.00  0.00    +0.042 HD
BRANCH  11  13
ATOM     13  C   UNL     1       6.552  19.430  24.065  0.00  0.00    -0.052 C 
ATOM     14  H   UNL     1       6.373  18.838  24.972  0.00  0.00    +0.024 HD
ATOM     15  H   UNL     1       7.627  19.631  24.018  0.00  0.00    +0.024 HD
ATOM     16  H   UNL     1       6.045  20.392  24.175  0.00  0.00    +0.024 HD
ENDBRANCH  11  13
BRANCH  11  17
ATOM     17  C   UNL     1       5.069  19.461  21.943  0.00  0.00    +0.081 C 
ATOM     18  H   UNL     1       4.745  20.391  22.431  0.00  0.00    +0.062 HD
BRANCH  17  19
ATOM     19  C   UNL     1       3.809  18.671  21.543  0.00  0.00    +0.038 C 
ATOM     20  H   UNL     1       3.104  18.622  22.381  0.00  0.00    +0.049 HD
ATOM     21  H   UNL     1       3.309  19.132  20.685  0.00  0.00    +0.049 HD
BRANCH  19  24
ATOM     22  C   UNL     1       4.554  17.003  19.834  0.00  0.00    +0.216 C 
ATOM     23  O   UNL     1       4.554  17.818  18.916  0.00  0.00    -0.276 OA
ATOM     24  N   UNL     1       4.164  17.318  21.117  0.00  0.00    -0.313 N 
ATOM     25  H   UNL     1       4.173  16.592  21.824  0.00  0.00    +0.149 HD
BRANCH  22  26
ATOM     26  C   UNL     1       4.929  15.549  19.663  0.00  0.00    +0.050 C 
ATOM     27  H   UNL     1       5.185  15.162  20.657  0.00  0.00    +0.038 HD
ATOM     28  H   UNL     1       5.846  15.459  19.069  0.00  0.00    +0.038 HD
BRANCH  26  33
ATOM     29  C   UNL     1       1.372  14.650  19.223  0.00  0.00    +0.066 C 
ATOM     30  C   UNL     1       1.532  13.428  18.328  0.00  0.00    -0.026 C 
ATOM     31  C   UNL     1       2.597  12.488  18.884  0.00  0.00    -0.046 C 
ATOM     32  C   UNL     1       3.774  13.233  19.538  0.00  0.00    -0.017 C 
ATOM     33  C   UNL     1       3.809  14.701  19.053  0.00  0.00    +0.070 C 
ATOM     34  O   UNL     1       2.583  15.407  19.323  0.00  0.00    -0.372 OA
ATOM     35  H   UNL     1       1.113  14.321  20.235  0.00  0.00    +0.060 HD
ATOM     36  H   UNL     1       0.584  12.890  18.224  0.00  0.00    +0.029 HD
ATOM     37  H   UNL     1       1.828  13.742  17.320  0.00  0.00    +0.029 HD
ATOM     38  H   UNL     1       2.134  11.794  19.595  0.00  0.00    +0.027 HD
ATOM     39  H   UNL     1       2.972  11.865  18.062  0.00  0.00    +0.027 HD
ATOM     40  H   UNL     1       4.693  12.726  19.215  0.00  0.00    +0.032 HD
ATOM     41  H   UNL     1       3.943  14.704  17.964  0.00  0.00    +0.060 HD
BRANCH  32  42
ATOM     42  C   UNL     1       3.725  13.099  21.066  0.00  0.00    -0.060 C 
ATOM     43  H   UNL     1       2.995  13.774  21.519  0.00  0.00    +0.023 HD
ATOM     44  H   UNL     1       4.698  13.312  21.507  0.00  0.00    +0.023 HD
ATOM     45  H   UNL     1       3.467  12.071  21.353  0.00  0.00    +0.023 HD
ENDBRANCH  32  42
BRANCH  29  46
ATOM     46  C   UNL     1       0.279  15.577  18.697  0.00  0.00    +0.036 C 
ATOM     47  H   UNL     1       0.130  15.454  17.619  0.00  0.00    +0.037 HD
ATOM     48  H   UNL     1       0.544  16.623  18.878  0.00  0.00    +0.037 HD
BRANCH  46  49
ATOM     49  C   UNL     1      -1.044  15.254  19.360  0.00  0.00    +0.158 C 
ATOM     50  O   UNL     1      -1.133  15.086  20.576  0.00  0.00    -0.293 OA
BRANCH  49  52
ATOM     51  C   UNL     1      -3.268  14.334  18.807  0.00  0.00    -0.084 C 
ATOM     52  C   UNL     1      -2.236  15.121  18.468  0.00  0.00    -0.023 C 
ATOM     53  H   UNL     1      -3.245  13.787  19.749  0.00  0.00    +0.057 HD
ATOM     54  H   UNL     1      -2.230  15.683  17.542  0.00  0.00    +0.065 HD
BRANCH  51  55
ATOM     55  C   UNL     1      -4.473  14.134  17.952  0.00  0.00    -0.046 C 
ATOM     56  H   UNL     1      -5.331  13.761  18.526  0.00  0.00    +0.027 HD
ATOM     57  H   UNL     1      -4.261  13.417  17.147  0.00  0.00    +0.027 HD
ATOM     58  H   UNL     1      -4.764  15.085  17.490  0.00  0.00    +0.027 HD
ENDBRANCH  51  55
ENDBRANCH  49  52
ENDBRANCH  46  49
ENDBRANCH  29  46
ENDBRANCH  26  33
ENDBRANCH  22  26
ENDBRANCH  19  24
ENDBRANCH  17  19
BRANCH  17  59
ATOM     59  O   UNL     1       5.767  19.849  20.745  0.00  0.00    -0.390 OA
ATOM     60  H   UNL     1       5.556  20.786  20.583  0.00  0.00    +0.210 HD
ENDBRANCH  17  59
ENDBRANCH  11  17
ENDBRANCH   7  11
ENDBRANCH   4   9
ENDBRANCH   1   4
BRANCH   1  61
ATOM     61  C   UNL     1      10.555  19.695  23.575  0.00  0.00    -0.025 C 
ATOM     62  H   UNL     1      11.425  20.365  23.598  0.00  0.00    +0.029 HD
ATOM     63  H   UNL     1       9.653  20.318  23.546  0.00  0.00    +0.029 HD
BRANCH  61  64
ATOM     64  C   UNL     1      10.546  18.814  24.837  0.00  0.00    +0.065 C 
ATOM     65  C   UNL     1      11.669  19.208  25.821  0.00  0.00    -0.017 C 
ATOM     66  C   UNL     1      12.034  18.037  26.752  0.00  0.00    -0.043 C 
ATOM     67  C   UNL     1      10.877  17.053  26.864  0.00  0.00    +0.002 C 
ATOM     68  C   UNL     1      10.469  16.507  25.477  0.00  0.00    +0.171 C 
ATOM     69  O   UNL     1      10.754  17.456  24.438  0.00  0.00    -0.345 OA
ATOM     70  C   UNL     1      11.252  15.227  25.148  0.00  0.00    +0.002 C 
ATOM     71  C   UNL     1      10.841  14.646  23.793  0.00  0.00    -0.046 C 
ATOM     72  C   UNL     1       9.393  14.975  23.443  0.00  0.00    -0.026 C 
ATOM     73  C   UNL     1       8.565  15.189  24.708  0.00  0.00    +0.062 C 
ATOM     74  O   UNL     1       9.059  16.252  25.532  0.00  0.00    -0.345 OA
ATOM     75  H   UNL     1       9.559  18.902  25.314  0.00  0.00    +0.060 HD
ATOM     76  H   UNL     1      12.579  19.452  25.254  0.00  0.00    +0.032 HD
ATOM     77  H   UNL     1      12.326  18.392  27.749  0.00  0.00    +0.027 HD
ATOM     78  H   UNL     1      12.910  17.514  26.343  0.00  0.00    +0.027 HD
ATOM     79  H   UNL     1      10.025  17.566  27.331  0.00  0.00    +0.032 HD
ATOM     80  H   UNL     1      11.132  16.232  27.550  0.00  0.00    +0.032 HD
ATOM     81  H   UNL     1      11.058  14.471  25.918  0.00  0.00    +0.032 HD
ATOM     82  H   UNL     1      12.332  15.409  25.140  0.00  0.00    +0.032 HD
ATOM     83  H   UNL     1      11.498  15.026  23.004  0.00  0.00    +0.027 HD
ATOM     84  H   UNL     1      10.988  13.560  23.813  0.00  0.00    +0.027 HD
ATOM     85  H   UNL     1       9.393  15.884  22.832  0.00  0.00    +0.029 HD
ATOM     86  H   UNL     1       8.972  14.175  22.824  0.00  0.00    +0.029 HD
ATOM     87  H   UNL     1       8.610  14.275  25.311  0.00  0.00    +0.060 HD
BRANCH  65  88
ATOM     88  C   UNL     1      11.291  20.458  26.630  0.00  0.00    -0.060 C 
ATOM     89  H   UNL     1      10.768  20.176  27.548  0.00  0.00    +0.023 HD
ATOM     90  H   UNL     1      10.634  21.115  26.050  0.00  0.00    +0.023 HD
ATOM     91  H   UNL     1      12.178  21.027  26.917  0.00  0.00    +0.023 HD
ENDBRANCH  65  88
BRANCH  73  92
ATOM     92  C   UNL     1       7.077  15.456  24.411  0.00  0.00    -0.026 C 
ATOM     93  H   UNL     1       6.650  14.548  23.959  0.00  0.00    +0.029 HD
ATOM     94  H   UNL     1       6.999  16.269  23.679  0.00  0.00    +0.029 HD
BRANCH  92  95
ATOM     95  C   UNL     1       6.261  15.790  25.668  0.00  0.00    -0.045 C 
ATOM     96  H   UNL     1       6.526  16.791  26.027  0.00  0.00    +0.027 HD
ATOM     97  H   UNL     1       6.534  15.085  26.464  0.00  0.00    +0.027 HD
BRANCH  95  98
ATOM     98  C   UNL     1       4.734  15.715  25.453  0.00  0.00    -0.025 C 
ATOM     99  H   UNL     1       4.316  15.091  26.247  0.00  0.00    +0.034 HD
BRANCH  98 100
ATOM    100  C   UNL     1       4.363  15.087  24.111  0.00  0.00    -0.059 C 
ATOM    101  H   UNL     1       5.241  14.662  23.610  0.00  0.00    +0.024 HD
ATOM    102  H   UNL     1       3.915  15.833  23.441  0.00  0.00    +0.024 HD
ATOM    103  H   UNL     1       3.628  14.287  24.243  0.00  0.00    +0.024 HD
ENDBRANCH  98 100
BRANCH  98 104
ATOM    104  C   UNL     1       4.177  17.123  25.523  0.00  0.00    -0.080 C 
ATOM    105  C   UNL     1       3.757  17.807  26.610  0.00  0.00    -0.048 C 
ATOM    106  H   UNL     1       4.167  17.631  24.559  0.00  0.00    +0.058 HD
BRANCH 105 107
ATOM    107  C   UNL     1       3.693  17.222  27.998  0.00  0.00    -0.041 C 
ATOM    108  H   UNL     1       4.557  17.543  28.588  0.00  0.00    +0.028 HD
ATOM    109  H   UNL     1       3.673  16.129  28.006  0.00  0.00    +0.028 HD
ATOM    110  H   UNL     1       2.785  17.541  28.518  0.00  0.00    +0.028 HD
ENDBRANCH 105 107
BRANCH 105 111
ATOM    111  C   UNL     1       3.331  19.255  26.484  0.00  0.00    +0.073 C 
ATOM    112  H   UNL     1       2.477  19.459  27.141  0.00  0.00    +0.064 HD
BRANCH 111 113
ATOM    113  C   UNL     1       2.941  19.624  25.059  0.00  0.00    -0.035 C 
ATOM    114  H   UNL     1       1.856  19.556  24.908  0.00  0.00    +0.026 HD
ATOM    115  H   UNL     1       3.264  20.636  24.797  0.00  0.00    +0.026 HD
ATOM    116  H   UNL     1       3.392  18.924  24.345  0.00  0.00    +0.026 HD
ENDBRANCH 111 113
BRANCH 111 117
ATOM    117  O   UNL     1       4.398  20.088  26.928  0.00  0.00    -0.388 OA
ATOM    118  H   UNL     1       4.005  20.919  27.239  0.00  0.00    +0.210 HD
ENDBRANCH 111 117
ENDBRANCH 105 111
ENDBRANCH  98 104
ENDBRANCH  95  98
ENDBRANCH  92  95
ENDBRANCH  73  92
ENDBRANCH  61  64
ENDBRANCH   1  61
TORSDOF 27
ENDMDL
MODEL 2
REMARK VINA RESULT:      -6.7      2.506      5.628
REMARK  Name = Bistramide A_conf2
REMARK  27 active torsions:
REMARK  status: ('A' for Active; 'I' for Inactive)
REMARK    1  A    between atoms: C_1  and  C_2
REMARK    2  A    between atoms: C_3  and  C_4
REMARK    3  A    between atoms: C_4  and  C_6
REMARK    4  A    between atoms: C_6  and  C_7
REMARK    5  A    between atoms: C_10  and  C_50
REMARK    6  A    between atoms: C_11  and  C_13
REMARK    7  A    between atoms: C_13  and  C_14
REMARK    8  A    between atoms: N_16  and  C_17
REMARK    9  A    between atoms: C_17  and  C_18
REMARK   10  A    between atoms: C_18  and  C_19
REMARK   11  A    between atoms: C_18  and  O_49
REMARK   12  A    between atoms: C_19  and  C_20
REMARK   13  A    between atoms: C_19  and  C_21
REMARK   14  A    between atoms: N_23  and  C_24
REMARK   15  A    between atoms: C_24  and  C_25
REMARK   16  A    between atoms: C_25  and  C_26
REMARK   17  A    between atoms: C_26  and  C_27
REMARK   18  A    between atoms: C_28  and  C_48
REMARK   19  A    between atoms: C_36  and  C_38
REMARK   20  A    between atoms: C_38  and  C_39
REMARK   21  A    between atoms: C_39  and  C_40
REMARK   22  A    between atoms: C_40  and  C_41
REMARK   23  A    between atoms: C_40  and  C_42
REMARK   24  A    between atoms: C_43  and  C_44
REMARK   25  A    between atoms: C_43  and  C_45
REMARK   26  A    between atoms: C_45  and  C_46
REMARK   27  A    between atoms: C_45  and  O_47
REMARK                            x       y       z     vdW  Elec       q    Type
REMARK                         _______ _______ _______ _____ _____    ______ ____
ROOT
ATOM      1  C   UNL     1       4.993  18.110  20.751  0.00  0.00    -0.035 C 
ATOM      2  H   UNL     1       5.012  19.169  21.025  0.00  0.00    +0.028 HD
ATOM      3  H   UNL     1       5.368  18.043  19.720  0.00  0.00    +0.028 HD
ENDROOT
BRANCH   1   4
ATOM      4  C   UNL     1       3.558  17.601  20.781  0.00  0.00    +0.012 C 
ATOM      5  H   UNL     1       3.245  17.399  21.815  0.00  0.00    +0.046 HD
ATOM      6  H   UNL     1       2.875  18.345  20.358  0.00  0.00    +0.046 HD
BRANCH   4   9
ATOM      7  C   UNL     1       3.298  15.142  20.687  0.00  0.00    +0.218 C 
ATOM      8  O   UNL     1       3.373  15.010  21.905  0.00  0.00    -0.275 OA
ATOM      9  N   UNL     1       3.444  16.355  20.050  0.00  0.00    -0.315 N 
ATOM     10  H   UNL     1       3.385  16.394  19.041  0.00  0.00    +0.149 HD
BRANCH   7  11
ATOM     11  C   UNL     1       3.130  13.960  19.731  0.00  0.00    +0.060 C 
ATOM     12  H   UNL     1       3.426  14.293  18.724  0.00  0.00    +0.042 HD
BRANCH  11  13
ATOM     13  C   UNL     1       4.102  12.873  20.194  0.00  0.00    -0.052 C 
ATOM     14  H   UNL     1       5.136  13.242  20.194  0.00  0.00    +0.024 HD
ATOM     15  H   UNL     1       3.876  12.546  21.214  0.00  0.00    +0.024 HD
ATOM     16  H   UNL     1       4.051  11.990  19.551  0.00  0.00    +0.024 HD
ENDBRANCH  11  13
BRANCH  11  17
ATOM     17  C   UNL     1       1.648  13.536  19.704  0.00  0.00    +0.081 C 
ATOM     18  H   UNL     1       1.541  12.444  19.758  0.00  0.00    +0.062 HD
BRANCH  17  19
ATOM     19  C   UNL     1       0.853  14.032  18.482  0.00  0.00    +0.038 C 
ATOM     20  H   UNL     1       1.449  14.746  17.901  0.00  0.00    +0.049 HD
ATOM     21  H   UNL     1       0.564  13.200  17.834  0.00  0.00    +0.049 HD
BRANCH  19  24
ATOM     22  C   UNL     1      -0.506  15.999  19.218  0.00  0.00    +0.216 C 
ATOM     23  O   UNL     1       0.457  16.757  19.257  0.00  0.00    -0.276 OA
ATOM     24  N   UNL     1      -0.398  14.662  18.903  0.00  0.00    -0.313 N 
ATOM     25  H   UNL     1      -1.234  14.089  18.905  0.00  0.00    +0.149 HD
BRANCH  22  26
ATOM     26  C   UNL     1      -1.918  16.420  19.560  0.00  0.00    +0.050 C 
ATOM     27  H   UNL     1      -2.377  16.791  18.636  0.00  0.00    +0.038 HD
ATOM     28  H   UNL     1      -1.904  17.275  20.245  0.00  0.00    +0.038 HD
BRANCH  26  33
ATOM     29  C   UNL     1      -4.401  13.702  19.240  0.00  0.00    +0.066 C 
ATOM     30  C   UNL     1      -4.515  13.294  20.703  0.00  0.00    -0.026 C 
ATOM     31  C   UNL     1      -4.688  14.521  21.594  0.00  0.00    -0.046 C 
ATOM     32  C   UNL     1      -3.885  15.738  21.102  0.00  0.00    -0.017 C 
ATOM     33  C   UNL     1      -2.767  15.283  20.136  0.00  0.00    +0.070 C 
ATOM     34  O   UNL     1      -3.273  14.550  19.003  0.00  0.00    -0.372 OA
ATOM     35  H   UNL     1      -5.295  14.268  18.956  0.00  0.00    +0.060 HD
ATOM     36  H   UNL     1      -5.353  12.606  20.856  0.00  0.00    +0.029 HD
ATOM     37  H   UNL     1      -3.609  12.758  21.010  0.00  0.00    +0.029 HD
ATOM     38  H   UNL     1      -5.754  14.764  21.673  0.00  0.00    +0.027 HD
ATOM     39  H   UNL     1      -4.366  14.258  22.609  0.00  0.00    +0.027 HD
ATOM     40  H   UNL     1      -3.429  16.200  21.988  0.00  0.00    +0.032 HD
ATOM     41  H   UNL     1      -2.095  14.605  20.677  0.00  0.00    +0.060 HD
BRANCH  32  42
ATOM     42  C   UNL     1      -4.816  16.798  20.497  0.00  0.00    -0.060 C 
ATOM     43  H   UNL     1      -5.601  17.107  21.192  0.00  0.00    +0.023 HD
ATOM     44  H   UNL     1      -5.296  16.423  19.593  0.00  0.00    +0.023 HD
ATOM     45  H   UNL     1      -4.245  17.688  20.205  0.00  0.00    +0.023 HD
ENDBRANCH  32  42
BRANCH  29  46
ATOM     46  C   UNL     1      -4.270  12.478  18.337  0.00  0.00    +0.036 C 
ATOM     47  H   UNL     1      -3.744  11.660  18.840  0.00  0.00    +0.037 HD
ATOM     48  H   UNL     1      -3.705  12.729  17.433  0.00  0.00    +0.037 HD
BRANCH  46  49
ATOM     49  C   UNL     1      -5.640  11.953  17.964  0.00  0.00    +0.158 C 
ATOM     50  O   UNL     1      -6.588  12.711  17.756  0.00  0.00    -0.293 OA
BRANCH  49  52
ATOM     51  C   UNL     1      -6.238   9.766  18.940  0.00  0.00    -0.084 C 
ATOM     52  C   UNL     1      -5.800  10.470  17.886  0.00  0.00    -0.023 C 
ATOM     53  H   UNL     1      -6.489  10.280  19.868  0.00  0.00    +0.057 HD
ATOM     54  H   UNL     1      -5.548   9.990  16.947  0.00  0.00    +0.065 HD
BRANCH  51  55
ATOM     55  C   UNL     1      -6.394   8.283  18.940  0.00  0.00    -0.046 C 
ATOM     56  H   UNL     1      -7.376   7.969  19.317  0.00  0.00    +0.027 HD
ATOM     57  H   UNL     1      -5.621   7.814  19.564  0.00  0.00    +0.027 HD
ATOM     58  H   UNL     1      -6.285   7.897  17.920  0.00  0.00    +0.027 HD
ENDBRANCH  51  55
ENDBRANCH  49  52
ENDBRANCH  46  49
ENDBRANCH  29  46
ENDBRANCH  26  33
ENDBRANCH  22  26
ENDBRANCH  19  24
ENDBRANCH  17  19
BRANCH  17  59
ATOM     59  O   UNL     1       1.036  14.066  20.895  0.00  0.00    -0.390 OA
ATOM     60  H   UNL     1       0.112  13.760  20.902  0.00  0.00    +0.210 HD
ENDBRANCH  17  59
ENDBRANCH  11  17
ENDBRANCH   7  11
ENDBRANCH   4   9
ENDBRANCH   1   4
BRANCH   1  61
ATOM     61  C   UNL     1       5.906  17.306  21.679  0.00  0.00    -0.025 C 
ATOM     62  H   UNL     1       5.282  16.620  22.267  0.00  0.00    +0.029 HD
ATOM     63  H   UNL     1       6.592  16.701  21.075  0.00  0.00    +0.029 HD
BRANCH  61  64
ATOM     64  C   UNL     1       6.705  18.220  22.626  0.00  0.00    +0.065 C 
ATOM     65  C   UNL     1       6.108  19.644  22.688  0.00  0.00    -0.017 C 
ATOM     66  C   UNL     1       7.163  20.674  23.133  0.00  0.00    -0.043 C 
ATOM     67  C   UNL     1       8.283  20.000  23.914  0.00  0.00    +0.002 C 
ATOM     68  C   UNL     1       8.959  18.888  23.082  0.00  0.00    +0.171 C 
ATOM     69  O   UNL     1       8.044  18.316  22.135  0.00  0.00    -0.345 OA
ATOM     70  C   UNL     1      10.143  19.456  22.283  0.00  0.00    +0.002 C 
ATOM     71  C   UNL     1      10.852  18.367  21.475  0.00  0.00    -0.046 C 
ATOM     72  C   UNL     1      10.738  16.996  22.135  0.00  0.00    -0.026 C 
ATOM     73  C   UNL     1      10.560  17.135  23.645  0.00  0.00    +0.062 C 
ATOM     74  O   UNL     1       9.394  17.885  24.008  0.00  0.00    -0.345 OA
ATOM     75  H   UNL     1       6.719  17.757  23.623  0.00  0.00    +0.060 HD
ATOM     76  H   UNL     1       5.780  19.945  21.684  0.00  0.00    +0.032 HD
ATOM     77  H   UNL     1       6.714  21.477  23.731  0.00  0.00    +0.027 HD
ATOM     78  H   UNL     1       7.589  21.155  22.242  0.00  0.00    +0.027 HD
ATOM     79  H   UNL     1       7.859  19.574  24.835  0.00  0.00    +0.032 HD
ATOM     80  H   UNL     1       9.021  20.743  24.252  0.00  0.00    +0.032 HD
ATOM     81  H   UNL     1      10.870  19.900  22.972  0.00  0.00    +0.032 HD
ATOM     82  H   UNL     1       9.820  20.249  21.598  0.00  0.00    +0.032 HD
ATOM     83  H   UNL     1      10.436  18.316  20.463  0.00  0.00    +0.027 HD
ATOM     84  H   UNL     1      11.906  18.644  21.356  0.00  0.00    +0.027 HD
ATOM     85  H   UNL     1       9.875  16.483  21.697  0.00  0.00    +0.029 HD
ATOM     86  H   UNL     1      11.622  16.396  21.893  0.00  0.00    +0.029 HD
ATOM     87  H   UNL     1      11.422  17.678  24.048  0.00  0.00    +0.060 HD
BRANCH  65  88
ATOM     88  C   UNL     1       4.872  19.693  23.601  0.00  0.00    -0.060 C 
ATOM     89  H   UNL     1       4.364  18.724  23.608  0.00  0.00    +0.023 HD
ATOM     90  H   UNL     1       4.161  20.450  23.254  0.00  0.00    +0.023 HD
ATOM     91  H   UNL     1       5.150  19.929  24.630  0.00  0.00    +0.023 HD
ENDBRANCH  65  88
BRANCH  73  92
ATOM     92  C   UNL     1      10.510  15.776  24.369  0.00  0.00    -0.026 C 
ATOM     93  H   UNL     1      10.582  15.962  25.451  0.00  0.00    +0.029 HD
ATOM     94  H   UNL     1      11.379  15.179  24.068  0.00  0.00    +0.029 HD
BRANCH  92  95
ATOM     95  C   UNL     1       9.212  14.999  24.104  0.00  0.00    -0.045 C 
ATOM     96  H   UNL     1       9.433  14.093  23.530  0.00  0.00    +0.027 HD
ATOM     97  H   UNL     1       8.551  15.617  23.482  0.00  0.00    +0.027 HD
BRANCH  95  98
ATOM     98  C   UNL     1       8.449  14.613  25.390  0.00  0.00    -0.025 C 
ATOM     99  H   UNL     1       8.846  15.220  26.208  0.00  0.00    +0.034 HD
BRANCH  98 100
ATOM    100  C   UNL     1       8.631  13.143  25.759  0.00  0.00    -0.059 C 
ATOM    101  H   UNL     1       7.743  12.742  26.262  0.00  0.00    +0.024 HD
ATOM    102  H   UNL     1       9.492  13.012  26.428  0.00  0.00    +0.024 HD
ATOM    103  H   UNL     1       8.819  12.535  24.868  0.00  0.00    +0.024 HD
ENDBRANCH  98 100
BRANCH  98 104
ATOM    104  C   UNL     1       6.977  14.901  25.169  0.00  0.00    -0.080 C 
ATOM    105  C   UNL     1       6.276  16.005  25.510  0.00  0.00    -0.048 C 
ATOM    106  H   UNL     1       6.459  14.108  24.629  0.00  0.00    +0.058 HD
BRANCH 105 107
ATOM    107  C   UNL     1       6.857  17.164  26.279  0.00  0.00    -0.041 C 
ATOM    108  H   UNL     1       6.143  17.520  27.030  0.00  0.00    +0.028 HD
ATOM    109  H   UNL     1       7.124  18.014  25.645  0.00  0.00    +0.028 HD
ATOM    110  H   UNL     1       7.778  16.874  26.793  0.00  0.00    +0.028 HD
ENDBRANCH 105 107
BRANCH 105 111
ATOM    111  C   UNL     1       4.824  16.145  25.101  0.00  0.00    +0.073 C 
ATOM    112  H   UNL     1       4.750  16.627  24.119  0.00  0.00    +0.064 HD
BRANCH 111 113
ATOM    113  C   UNL     1       4.016  16.961  26.100  0.00  0.00    -0.035 C 
ATOM    114  H   UNL     1       3.035  16.508  26.291  0.00  0.00    +0.026 HD
ATOM    115  H   UNL     1       4.539  17.069  27.055  0.00  0.00    +0.026 HD
ATOM    116  H   UNL     1       3.816  17.964  25.703  0.00  0.00    +0.026 HD
ENDBRANCH 111 113
BRANCH 111 117
ATOM    117  O   UNL     1       4.259  14.845  24.963  0.00  0.00    -0.388 OA
ATOM    118  H   UNL     1       4.709  14.266  25.600  0.00  0.00    +0.210 HD
ENDBRANCH 111 117
ENDBRANCH 105 111
ENDBRANCH  98 104
ENDBRANCH  95  98
ENDBRANCH  92  95
ENDBRANCH  73  92
ENDBRANCH  61  64
ENDBRANCH   1  61
TORSDOF 27
ENDMDL
MODEL 3
REMARK VINA RESULT:      -6.6      2.290      5.188
REMARK  Name = Bistramide A_conf2
REMARK  27 active torsions:
REMARK  status: ('A' for Active; 'I' for Inactive)
REMARK    1  A    between atoms: C_1  and  C_2
REMARK    2  A    between atoms: C_3  and  C_4
REMARK    3  A    between atoms: C_4  and  C_6
REMARK    4  A    between atoms: C_6  and  C_7
REMARK    5  A    between atoms: C_10  and  C_50
REMARK    6  A    between atoms: C_11  and  C_13
REMARK    7  A    between atoms: C_13  and  C_14
REMARK    8  A    between atoms: N_16  and  C_17
REMARK    9  A    between atoms: C_17  and  C_18
REMARK   10  A    between atoms: C_18  and  C_19
REMARK   11  A    between atoms: C_18  and  O_49
REMARK   12  A    between atoms: C_19  and  C_20
REMARK   13  A    between atoms: C_19  and  C_21
REMARK   14  A    between atoms: N_23  and  C_24
REMARK   15  A    between atoms: C_24  and  C_25
REMARK   16  A    between atoms: C_25  and  C_26
REMARK   17  A    between atoms: C_26  and  C_27
REMARK   18  A    between atoms: C_28  and  C_48
REMARK   19  A    between atoms: C_36  and  C_38
REMARK   20  A    between atoms: C_38  and  C_39
REMARK   21  A    between atoms: C_39  and  C_40
REMARK   22  A    between atoms: C_40  and  C_41
REMARK   23  A    between atoms: C_40  and  C_42
REMARK   24  A    between atoms: C_43  and  C_44
REMARK   25  A    between atoms: C_43  and  C_45
REMARK   26  A    between atoms: C_45  and  C_46
REMARK   27  A    between atoms: C_45  and  O_47
REMARK                            x       y       z     vdW  Elec       q    Type
REMARK                         _______ _______ _______ _____ _____    ______ ____
ROOT
ATOM      1  C   UNL     1       4.943  17.594  22.173  0.00  0.00    -0.035 C 
ATOM      2  H   UNL     1       4.978  16.997  23.090  0.00  0.00    +0.028 HD
ATOM      3  H   UNL     1       4.863  18.645  22.483  0.00  0.00    +0.028 HD
ENDROOT
BRANCH   1   4
ATOM      4  C   UNL     1       3.702  17.227  21.371  0.00  0.00    +0.012 C 
ATOM      5  H   UNL     1       2.806  17.667  21.830  0.00  0.00    +0.046 HD
ATOM      6  H   UNL     1       3.780  17.604  20.346  0.00  0.00    +0.046 HD
BRANCH   4   9
ATOM      7  C   UNL     1       3.697  15.039  20.215  0.00  0.00    +0.218 C 
ATOM      8  O   UNL     1       3.918  15.534  19.114  0.00  0.00    -0.275 OA
ATOM      9  N   UNL     1       3.511  15.791  21.356  0.00  0.00    -0.315 N 
ATOM     10  H   UNL     1       3.319  15.322  22.230  0.00  0.00    +0.149 HD
BRANCH   7  11
ATOM     11  C   UNL     1       3.508  13.536  20.430  0.00  0.00    +0.060 C 
ATOM     12  H   UNL     1       4.221  13.008  19.779  0.00  0.00    +0.042 HD
BRANCH  11  13
ATOM     13  C   UNL     1       3.871  13.248  21.889  0.00  0.00    -0.052 C 
ATOM     14  H   UNL     1       3.286  12.406  22.282  0.00  0.00    +0.024 HD
ATOM     15  H   UNL     1       4.928  12.982  21.991  0.00  0.00    +0.024 HD
ATOM     16  H   UNL     1       3.692  14.118  22.525  0.00  0.00    +0.024 HD
ENDBRANCH  11  13
BRANCH  11  17
ATOM     17  C   UNL     1       2.073  13.143  20.028  0.00  0.00    +0.081 C 
ATOM     18  H   UNL     1       1.847  12.105  20.310  0.00  0.00    +0.062 HD
BRANCH  17  19
ATOM     19  C   UNL     1       1.750  13.310  18.532  0.00  0.00    +0.038 C 
ATOM     20  H   UNL     1       2.411  14.059  18.078  0.00  0.00    +0.049 HD
ATOM     21  H   UNL     1       1.863  12.364  17.994  0.00  0.00    +0.049 HD
BRANCH  19  24
ATOM     22  C   UNL     1      -0.052  15.020  18.239  0.00  0.00    +0.216 C 
ATOM     23  O   UNL     1       0.711  15.971  18.374  0.00  0.00    -0.276 OA
ATOM     24  N   UNL     1       0.355  13.709  18.348  0.00  0.00    -0.313 N 
ATOM     25  H   UNL     1      -0.332  12.971  18.240  0.00  0.00    +0.149 HD
BRANCH  22  26
ATOM     26  C   UNL     1      -1.536  15.166  17.990  0.00  0.00    +0.050 C 
ATOM     27  H   UNL     1      -1.826  14.374  17.289  0.00  0.00    +0.038 HD
ATOM     28  H   UNL     1      -1.744  16.108  17.469  0.00  0.00    +0.038 HD
BRANCH  26  33
ATOM     29  C   UNL     1      -4.464  13.948  19.887  0.00  0.00    +0.066 C 
ATOM     30  C   UNL     1      -4.225  14.671  21.206  0.00  0.00    -0.026 C 
ATOM     31  C   UNL     1      -3.905  16.143  20.965  0.00  0.00    -0.046 C 
ATOM     32  C   UNL     1      -3.068  16.375  19.695  0.00  0.00    -0.017 C 
ATOM     33  C   UNL     1      -2.379  15.059  19.264  0.00  0.00    +0.070 C 
ATOM     34  O   UNL     1      -3.315  13.989  19.035  0.00  0.00    -0.372 OA
ATOM     35  H   UNL     1      -5.281  14.442  19.351  0.00  0.00    +0.060 HD
ATOM     36  H   UNL     1      -5.096  14.586  21.864  0.00  0.00    +0.029 HD
ATOM     37  H   UNL     1      -3.384  14.207  21.736  0.00  0.00    +0.029 HD
ATOM     38  H   UNL     1      -4.839  16.715  20.925  0.00  0.00    +0.027 HD
ATOM     39  H   UNL     1      -3.359  16.525  21.836  0.00  0.00    +0.027 HD
ATOM     40  H   UNL     1      -2.299  17.117  19.950  0.00  0.00    +0.032 HD
ATOM     41  H   UNL     1      -1.717  14.732  20.075  0.00  0.00    +0.060 HD
BRANCH  32  42
ATOM     42  C   UNL     1      -3.921  17.005  18.586  0.00  0.00    -0.060 C 
ATOM     43  H   UNL     1      -3.324  17.600  17.890  0.00  0.00    +0.023 HD
ATOM     44  H   UNL     1      -4.690  17.652  19.007  0.00  0.00    +0.023 HD
ATOM     45  H   UNL     1      -4.442  16.227  18.014  0.00  0.00    +0.023 HD
ENDBRANCH  32  42
BRANCH  29  46
ATOM     46  C   UNL     1      -4.826  12.483  20.120  0.00  0.00    +0.036 C 
ATOM     47  H   UNL     1      -5.410  12.353  21.037  0.00  0.00    +0.037 HD
ATOM     48  H   UNL     1      -3.921  11.875  20.215  0.00  0.00    +0.037 HD
BRANCH  46  49
ATOM     49  C   UNL     1      -5.680  11.967  18.981  0.00  0.00    +0.158 C 
ATOM     50  O   UNL     1      -6.758  12.489  18.694  0.00  0.00    -0.293 OA
BRANCH  49  52
ATOM     51  C   UNL     1      -5.131  10.765  16.896  0.00  0.00    -0.084 C 
ATOM     52  C   UNL     1      -5.171  10.776  18.236  0.00  0.00    -0.023 C 
ATOM     53  H   UNL     1      -5.467  11.638  16.337  0.00  0.00    +0.057 HD
ATOM     54  H   UNL     1      -4.837   9.927  18.822  0.00  0.00    +0.065 HD
BRANCH  51  55
ATOM     55  C   UNL     1      -4.661   9.601  16.090  0.00  0.00    -0.046 C 
ATOM     56  H   UNL     1      -5.231   9.484  15.159  0.00  0.00    +0.027 HD
ATOM     57  H   UNL     1      -4.751   8.671  16.667  0.00  0.00    +0.027 HD
ATOM     58  H   UNL     1      -3.605   9.734  15.825  0.00  0.00    +0.027 HD
ENDBRANCH  51  55
ENDBRANCH  49  52
ENDBRANCH  46  49
ENDBRANCH  29  46
ENDBRANCH  26  33
ENDBRANCH  22  26
ENDBRANCH  19  24
ENDBRANCH  17  19
BRANCH  17  59
ATOM     59  O   UNL     1       1.179  13.977  20.787  0.00  0.00    -0.390 OA
ATOM     60  H   UNL     1       1.392  13.843  21.727  0.00  0.00    +0.210 HD
ENDBRANCH  17  59
ENDBRANCH  11  17
ENDBRANCH   7  11
ENDBRANCH   4   9
ENDBRANCH   1   4
BRANCH   1  61
ATOM     61  C   UNL     1       6.228  17.397  21.365  0.00  0.00    -0.025 C 
ATOM     62  H   UNL     1       6.427  16.319  21.292  0.00  0.00    +0.029 HD
ATOM     63  H   UNL     1       6.077  17.779  20.349  0.00  0.00    +0.029 HD
BRANCH  61  64
ATOM     64  C   UNL     1       7.429  18.103  22.021  0.00  0.00    +0.065 C 
ATOM     65  C   UNL     1       7.811  19.399  21.273  0.00  0.00    -0.017 C 
ATOM     66  C   UNL     1       9.280  19.783  21.533  0.00  0.00    -0.043 C 
ATOM     67  C   UNL     1       9.778  19.169  22.835  0.00  0.00    +0.002 C 
ATOM     68  C   UNL     1       9.636  17.631  22.821  0.00  0.00    +0.171 C 
ATOM     69  O   UNL     1       8.548  17.215  21.981  0.00  0.00    -0.345 OA
ATOM     70  C   UNL     1      10.912  16.976  22.269  0.00  0.00    +0.002 C 
ATOM     71  C   UNL     1      10.810  15.449  22.276  0.00  0.00    -0.046 C 
ATOM     72  C   UNL     1       9.902  14.939  23.391  0.00  0.00    -0.026 C 
ATOM     73  C   UNL     1       9.864  15.928  24.554  0.00  0.00    +0.062 C 
ATOM     74  O   UNL     1       9.390  17.227  24.174  0.00  0.00    -0.345 OA
ATOM     75  H   UNL     1       7.174  18.316  23.069  0.00  0.00    +0.060 HD
ATOM     76  H   UNL     1       7.717  19.235  20.191  0.00  0.00    +0.032 HD
ATOM     77  H   UNL     1       9.413  20.872  21.552  0.00  0.00    +0.027 HD
ATOM     78  H   UNL     1       9.898  19.411  20.704  0.00  0.00    +0.027 HD
ATOM     79  H   UNL     1       9.195  19.592  23.666  0.00  0.00    +0.032 HD
ATOM     80  H   UNL     1      10.819  19.467  23.030  0.00  0.00    +0.032 HD
ATOM     81  H   UNL     1      11.769  17.265  22.887  0.00  0.00    +0.032 HD
ATOM     82  H   UNL     1      11.122  17.310  21.247  0.00  0.00    +0.032 HD
ATOM     83  H   UNL     1      10.434  15.090  21.312  0.00  0.00    +0.027 HD
ATOM     84  H   UNL     1      11.816  15.027  22.385  0.00  0.00    +0.027 HD
ATOM     85  H   UNL     1       8.898  14.807  22.973  0.00  0.00    +0.029 HD
ATOM     86  H   UNL     1      10.242  13.951  23.722  0.00  0.00    +0.029 HD
ATOM     87  H   UNL     1      10.885  16.062  24.930  0.00  0.00    +0.060 HD
BRANCH  65  88
ATOM     88  C   UNL     1       6.867  20.555  21.639  0.00  0.00    -0.060 C 
ATOM     89  H   UNL     1       6.312  20.322  22.552  0.00  0.00    +0.023 HD
ATOM     90  H   UNL     1       6.144  20.738  20.836  0.00  0.00    +0.023 HD
ATOM     91  H   UNL     1       7.423  21.479  21.816  0.00  0.00    +0.023 HD
ENDBRANCH  65  88
BRANCH  73  92
ATOM     92  C   UNL     1       9.015  15.428  25.738  0.00  0.00    -0.026 C 
ATOM     93  H   UNL     1       8.684  16.303  26.316  0.00  0.00    +0.029 HD
ATOM     94  H   UNL     1       9.642  14.807  26.390  0.00  0.00    +0.029 HD
BRANCH  92  95
ATOM     95  C   UNL     1       7.767  14.649  25.298  0.00  0.00    -0.045 C 
ATOM     96  H   UNL     1       7.822  13.620  25.671  0.00  0.00    +0.027 HD
ATOM     97  H   UNL     1       7.756  14.589  24.202  0.00  0.00    +0.027 HD
BRANCH  95  98
ATOM     98  C   UNL     1       6.442  15.289  25.765  0.00  0.00    -0.025 C 
ATOM     99  H   UNL     1       6.185  14.855  26.735  0.00  0.00    +0.034 HD
BRANCH  98 100
ATOM    100  C   UNL     1       5.289  15.012  24.802  0.00  0.00    -0.059 C 
ATOM    101  H   UNL     1       5.298  13.973  24.453  0.00  0.00    +0.024 HD
ATOM    102  H   UNL     1       5.348  15.667  23.923  0.00  0.00    +0.024 HD
ATOM    103  H   UNL     1       4.323  15.201  25.282  0.00  0.00    +0.024 HD
ENDBRANCH  98 100
BRANCH  98 104
ATOM    104  C   UNL     1       6.655  16.785  25.882  0.00  0.00    -0.080 C 
ATOM    105  C   UNL     1       6.071  17.652  26.738  0.00  0.00    -0.048 C 
ATOM    106  H   UNL     1       7.412  17.167  25.197  0.00  0.00    +0.058 HD
BRANCH 105 107
ATOM    107  C   UNL     1       4.993  17.267  27.718  0.00  0.00    -0.041 C 
ATOM    108  H   UNL     1       4.827  18.075  28.439  0.00  0.00    +0.028 HD
ATOM    109  H   UNL     1       5.224  16.360  28.283  0.00  0.00    +0.028 HD
ATOM    110  H   UNL     1       4.048  17.067  27.205  0.00  0.00    +0.028 HD
ENDBRANCH 105 107
BRANCH 105 111
ATOM    111  C   UNL     1       6.504  19.104  26.767  0.00  0.00    +0.073 C 
ATOM    112  H   UNL     1       5.675  19.740  27.101  0.00  0.00    +0.064 HD
BRANCH 111 113
ATOM    113  C   UNL     1       6.971  19.598  25.405  0.00  0.00    -0.035 C 
ATOM    114  H   UNL     1       7.198  18.764  24.730  0.00  0.00    +0.026 HD
ATOM    115  H   UNL     1       6.224  20.238  24.927  0.00  0.00    +0.026 HD
ATOM    116  H   UNL     1       7.901  20.172  25.505  0.00  0.00    +0.026 HD
ENDBRANCH 111 113
BRANCH 111 117
ATOM    117  O   UNL     1       7.548  19.253  27.725  0.00  0.00    -0.388 OA
ATOM    118  H   UNL     1       7.405  18.582  28.412  0.00  0.00    +0.210 HD
ENDBRANCH 111 117
ENDBRANCH 105 111
ENDBRANCH  98 104
ENDBRANCH  95  98
ENDBRANCH  92  95
ENDBRANCH  73  92
ENDBRANCH  61  64
ENDBRANCH   1  61
TORSDOF 27
ENDMDL
MODEL 4
REMARK VINA RESULT:      -6.5      2.411      5.680
REMARK  Name = Bistramide A_conf2
REMARK  27 active torsions:
REMARK  status: ('A' for Active; 'I' for Inactive)
REMARK    1  A    between atoms: C_1  and  C_2
REMARK    2  A    between atoms: C_3  and  C_4
REMARK    3  A    between atoms: C_4  and  C_6
REMARK    4  A    between atoms: C_6  and  C_7
REMARK    5  A    between atoms: C_10  and  C_50
REMARK    6  A    between atoms: C_11  and  C_13
REMARK    7  A    between atoms: C_13  and  C_14
REMARK    8  A    between atoms: N_16  and  C_17
REMARK    9  A    between atoms: C_17  and  C_18
REMARK   10  A    between atoms: C_18  and  C_19
REMARK   11  A    between atoms: C_18  and  O_49
REMARK   12  A    between atoms: C_19  and  C_20
REMARK   13  A    between atoms: C_19  and  C_21
REMARK   14  A    between atoms: N_23  and  C_24
REMARK   15  A    between atoms: C_24  and  C_25
REMARK   16  A    between atoms: C_25  and  C_26
REMARK   17  A    between atoms: C_26  and  C_27
REMARK   18  A    between atoms: C_28  and  C_48
REMARK   19  A    between atoms: C_36  and  C_38
REMARK   20  A    between atoms: C_38  and  C_39
REMARK   21  A    between atoms: C_39  and  C_40
REMARK   22  A    between atoms: C_40  and  C_41
REMARK   23  A    between atoms: C_40  and  C_42
REMARK   24  A    between atoms: C_43  and  C_44
REMARK   25  A    between atoms: C_43  and  C_45
REMARK   26  A    between atoms: C_45  and  C_46
REMARK   27  A    between atoms: C_45  and  O_47
REMARK                            x       y       z     vdW  Elec       q    Type
REMARK                         _______ _______ _______ _____ _____    ______ ____
ROOT
ATOM      1  C   UNL     1       6.637  15.997  24.444  0.00  0.00    -0.035 C 
ATOM      2  H   UNL     1       6.676  17.044  24.758  0.00  0.00    +0.028 HD
ATOM      3  H   UNL     1       7.080  15.951  23.439  0.00  0.00    +0.028 HD
ENDROOT
BRANCH   1   4
ATOM      4  C   UNL     1       5.186  15.542  24.358  0.00  0.00    +0.012 C 
ATOM      5  H   UNL     1       5.076  14.532  24.777  0.00  0.00    +0.046 HD
ATOM      6  H   UNL     1       4.536  16.217  24.924  0.00  0.00    +0.046 HD
BRANCH   4   9
ATOM      7  C   UNL     1       3.890  14.507  22.522  0.00  0.00    +0.218 C 
ATOM      8  O   UNL     1       3.525  13.558  23.211  0.00  0.00    -0.275 OA
ATOM      9  N   UNL     1       4.752  15.482  22.978  0.00  0.00    -0.315 N 
ATOM     10  H   UNL     1       5.025  16.230  22.355  0.00  0.00    +0.149 HD
BRANCH   7  11
ATOM     11  C   UNL     1       3.507  14.662  21.049  0.00  0.00    +0.060 C 
ATOM     12  H   UNL     1       3.013  15.638  20.928  0.00  0.00    +0.042 HD
BRANCH  11  13
ATOM     13  C   UNL     1       4.812  14.670  20.250  0.00  0.00    -0.052 C 
ATOM     14  H   UNL     1       4.630  14.934  19.200  0.00  0.00    +0.024 HD
ATOM     15  H   UNL     1       5.518  15.406  20.649  0.00  0.00    +0.024 HD
ATOM     16  H   UNL     1       5.306  13.696  20.281  0.00  0.00    +0.024 HD
ENDBRANCH  11  13
BRANCH  11  17
ATOM     17  C   UNL     1       2.516  13.546  20.663  0.00  0.00    +0.081 C 
ATOM     18  H   UNL     1       2.817  12.578  21.087  0.00  0.00    +0.062 HD
BRANCH  17  19
ATOM     19  C   UNL     1       2.310  13.358  19.149  0.00  0.00    +0.038 C 
ATOM     20  H   UNL     1       2.978  14.020  18.585  0.00  0.00    +0.049 HD
ATOM     21  H   UNL     1       2.499  12.323  18.849  0.00  0.00    +0.049 HD
BRANCH  19  24
ATOM     22  C   UNL     1       0.436  14.896  18.531  0.00  0.00    +0.216 C 
ATOM     23  O   UNL     1       1.108  15.911  18.679  0.00  0.00    -0.276 OA
ATOM     24  N   UNL     1       0.920  13.631  18.781  0.00  0.00    -0.313 N 
ATOM     25  H   UNL     1       0.305  12.836  18.652  0.00  0.00    +0.149 HD
BRANCH  22  26
ATOM     26  C   UNL     1      -1.015  14.907  18.107  0.00  0.00    +0.050 C 
ATOM     27  H   UNL     1      -1.144  14.101  17.374  0.00  0.00    +0.038 HD
ATOM     28  H   UNL     1      -1.248  15.832  17.568  0.00  0.00    +0.038 HD
BRANCH  26  33
ATOM     29  C   UNL     1      -4.228  13.760  19.528  0.00  0.00    +0.066 C 
ATOM     30  C   UNL     1      -4.051  14.239  20.964  0.00  0.00    -0.026 C 
ATOM     31  C   UNL     1      -3.561  15.683  20.994  0.00  0.00    -0.046 C 
ATOM     32  C   UNL     1      -2.580  16.009  19.853  0.00  0.00    -0.017 C 
ATOM     33  C   UNL     1      -1.989  14.704  19.272  0.00  0.00    +0.070 C 
ATOM     34  O   UNL     1      -3.001  13.797  18.793  0.00  0.00    -0.372 OA
ATOM     35  H   UNL     1      -4.933  14.423  19.014  0.00  0.00    +0.060 HD
ATOM     36  H   UNL     1      -4.989  14.156  21.524  0.00  0.00    +0.029 HD
ATOM     37  H   UNL     1      -3.320  13.605  21.478  0.00  0.00    +0.029 HD
ATOM     38  H   UNL     1      -4.423  16.359  20.970  0.00  0.00    +0.027 HD
ATOM     39  H   UNL     1      -3.070  15.861  21.958  0.00  0.00    +0.027 HD
ATOM     40  H   UNL     1      -1.770  16.608  20.289  0.00  0.00    +0.032 HD
ATOM     41  H   UNL     1      -1.449  14.181  20.071  0.00  0.00    +0.060 HD
BRANCH  32  42
ATOM     42  C   UNL     1      -3.249  16.897  18.795  0.00  0.00    -0.060 C 
ATOM     43  H   UNL     1      -3.648  16.318  17.959  0.00  0.00    +0.023 HD
ATOM     44  H   UNL     1      -2.542  17.623  18.394  0.00  0.00    +0.023 HD
ATOM     45  H   UNL     1      -4.071  17.471  19.240  0.00  0.00    +0.023 HD
ENDBRANCH  32  42
BRANCH  29  46
ATOM     46  C   UNL     1      -4.759  12.329  19.488  0.00  0.00    +0.036 C 
ATOM     47  H   UNL     1      -5.443  12.128  20.318  0.00  0.00    +0.037 HD
ATOM     48  H   UNL     1      -3.934  11.613  19.558  0.00  0.00    +0.037 HD
BRANCH  46  49
ATOM     49  C   UNL     1      -5.540  12.097  18.211  0.00  0.00    +0.158 C 
ATOM     50  O   UNL     1      -5.929  13.032  17.513  0.00  0.00    -0.293 OA
BRANCH  49  52
ATOM     51  C   UNL     1      -6.051   9.753  18.798  0.00  0.00    -0.084 C 
ATOM     52  C   UNL     1      -5.843  10.679  17.850  0.00  0.00    -0.023 C 
ATOM     53  H   UNL     1      -6.007  10.037  19.850  0.00  0.00    +0.057 HD
ATOM     54  H   UNL     1      -5.885  10.431  16.795  0.00  0.00    +0.065 HD
BRANCH  51  55
ATOM     55  C   UNL     1      -6.330   8.318  18.509  0.00  0.00    -0.046 C 
ATOM     56  H   UNL     1      -6.368   7.710  19.423  0.00  0.00    +0.027 HD
ATOM     57  H   UNL     1      -5.556   7.899  17.851  0.00  0.00    +0.027 HD
ATOM     58  H   UNL     1      -7.295   8.221  17.999  0.00  0.00    +0.027 HD
ENDBRANCH  51  55
ENDBRANCH  49  52
ENDBRANCH  46  49
ENDBRANCH  29  46
ENDBRANCH  26  33
ENDBRANCH  22  26
ENDBRANCH  19  24
ENDBRANCH  17  19
BRANCH  17  59
ATOM     59  O   UNL     1       1.251  13.880  21.261  0.00  0.00    -0.390 OA
ATOM     60  H   UNL     1       1.410  14.621  21.873  0.00  0.00    +0.210 HD
ENDBRANCH  17  59
ENDBRANCH  11  17
ENDBRANCH   7  11
ENDBRANCH   4   9
ENDBRANCH   1   4
BRANCH   1  61
ATOM     61  C   UNL     1       7.455  15.127  25.401  0.00  0.00    -0.025 C 
ATOM     62  H   UNL     1       7.416  15.582  26.399  0.00  0.00    +0.029 HD
ATOM     63  H   UNL     1       6.997  14.133  25.467  0.00  0.00    +0.029 HD
BRANCH  61  64
ATOM     64  C   UNL     1       8.921  15.001  24.946  0.00  0.00    +0.065 C 
ATOM     65  C   UNL     1       9.658  13.865  25.690  0.00  0.00    -0.017 C 
ATOM     66  C   UNL     1      11.181  14.091  25.689  0.00  0.00    -0.043 C 
ATOM     67  C   UNL     1      11.594  14.991  24.531  0.00  0.00    +0.002 C 
ATOM     68  C   UNL     1      10.866  16.353  24.591  0.00  0.00    +0.171 C 
ATOM     69  O   UNL     1       9.588  16.233  25.233  0.00  0.00    -0.345 OA
ATOM     70  C   UNL     1      11.687  17.369  25.400  0.00  0.00    +0.002 C 
ATOM     71  C   UNL     1      11.003  18.737  25.445  0.00  0.00    -0.046 C 
ATOM     72  C   UNL     1      10.150  18.994  24.206  0.00  0.00    -0.026 C 
ATOM     73  C   UNL     1      10.677  18.203  23.012  0.00  0.00    +0.062 C 
ATOM     74  O   UNL     1      10.693  16.787  23.236  0.00  0.00    -0.345 OA
ATOM     75  H   UNL     1       8.932  14.830  23.860  0.00  0.00    +0.060 HD
ATOM     76  H   UNL     1       9.343  13.857  26.743  0.00  0.00    +0.032 HD
ATOM     77  H   UNL     1      11.728  13.141  25.643  0.00  0.00    +0.027 HD
ATOM     78  H   UNL     1      11.472  14.569  26.634  0.00  0.00    +0.027 HD
ATOM     79  H   UNL     1      11.356  14.479  23.588  0.00  0.00    +0.032 HD
ATOM     80  H   UNL     1      12.685  15.129  24.519  0.00  0.00    +0.032 HD
ATOM     81  H   UNL     1      12.673  17.494  24.938  0.00  0.00    +0.032 HD
ATOM     82  H   UNL     1      11.852  17.024  26.426  0.00  0.00    +0.032 HD
ATOM     83  H   UNL     1      10.374  18.817  26.339  0.00  0.00    +0.027 HD
ATOM     84  H   UNL     1      11.770  19.514  25.544  0.00  0.00    +0.027 HD
ATOM     85  H   UNL     1       9.122  18.693  24.438  0.00  0.00    +0.029 HD
ATOM     86  H   UNL     1      10.126  20.069  23.991  0.00  0.00    +0.029 HD
ATOM     87  H   UNL     1      11.714  18.504  22.826  0.00  0.00    +0.060 HD
BRANCH  65  88
ATOM     88  C   UNL     1       9.304  12.490  25.102  0.00  0.00    -0.060 C 
ATOM     89  H   UNL     1       8.702  11.914  25.811  0.00  0.00    +0.023 HD
ATOM     90  H   UNL     1      10.210  11.917  24.878  0.00  0.00    +0.023 HD
ATOM     91  H   UNL     1       8.725  12.590  24.182  0.00  0.00    +0.023 HD
ENDBRANCH  65  88
BRANCH  73  92
ATOM     92  C   UNL     1       9.892  18.482  21.716  0.00  0.00    -0.026 C 
ATOM     93  H   UNL     1      10.293  17.830  20.926  0.00  0.00    +0.029 HD
ATOM     94  H   UNL     1      10.058  19.523  21.414  0.00  0.00    +0.029 HD
BRANCH  92  95
ATOM     95  C   UNL     1       8.389  18.199  21.849  0.00  0.00    -0.045 C 
ATOM     96  H   UNL     1       8.132  18.045  22.903  0.00  0.00    +0.027 HD
ATOM     97  H   UNL     1       8.158  17.261  21.326  0.00  0.00    +0.027 HD
BRANCH  95  98
ATOM     98  C   UNL     1       7.494  19.314  21.266  0.00  0.00    -0.025 C 
ATOM     99  H   UNL     1       7.839  19.520  20.249  0.00  0.00    +0.034 HD
BRANCH  98 100
ATOM    100  C   UNL     1       7.581  20.611  22.067  0.00  0.00    -0.059 C 
ATOM    101  H   UNL     1       7.664  21.484  21.410  0.00  0.00    +0.024 HD
ATOM    102  H   UNL     1       8.454  20.601  22.733  0.00  0.00    +0.024 HD
ATOM    103  H   UNL     1       6.695  20.743  22.696  0.00  0.00    +0.024 HD
ENDBRANCH  98 100
BRANCH  98 104
ATOM    104  C   UNL     1       6.063  18.817  21.260  0.00  0.00    -0.080 C 
ATOM    105  C   UNL     1       5.098  19.044  20.341  0.00  0.00    -0.048 C 
ATOM    106  H   UNL     1       5.830  18.163  22.101  0.00  0.00    +0.058 HD
BRANCH 105 107
ATOM    107  C   UNL     1       5.272  19.945  19.145  0.00  0.00    -0.041 C 
ATOM    108  H   UNL     1       5.022  20.979  19.406  0.00  0.00    +0.028 HD
ATOM    109  H   UNL     1       4.652  19.657  18.293  0.00  0.00    +0.028 HD
ATOM    110  H   UNL     1       6.305  19.923  18.784  0.00  0.00    +0.028 HD
ENDBRANCH 105 107
BRANCH 105 111
ATOM    111  C   UNL     1       3.751  18.362  20.464  0.00  0.00    +0.073 C 
ATOM    112  H   UNL     1       3.745  17.426  19.893  0.00  0.00    +0.064 HD
BRANCH 111 113
ATOM    113  C   UNL     1       2.609  19.237  19.963  0.00  0.00    -0.035 C 
ATOM    114  H   UNL     1       2.977  20.057  19.334  0.00  0.00    +0.026 HD
ATOM    115  H   UNL     1       1.877  18.662  19.390  0.00  0.00    +0.026 HD
ATOM    116  H   UNL     1       2.091  19.710  20.807  0.00  0.00    +0.026 HD
ENDBRANCH 111 113
BRANCH 111 117
ATOM    117  O   UNL     1       3.535  18.012  21.828  0.00  0.00    -0.388 OA
ATOM    118  H   UNL     1       4.202  17.347  22.062  0.00  0.00    +0.210 HD
ENDBRANCH 111 117
ENDBRANCH 105 111
ENDBRANCH  98 104
ENDBRANCH  95  98
ENDBRANCH  92  95
ENDBRANCH  73  92
ENDBRANCH  61  64
ENDBRANCH   1  61
TORSDOF 27
ENDMDL
MODEL 5
REMARK VINA RESULT:      -6.5      2.605      6.429
REMARK  Name = Bistramide A_conf2
REMARK  27 active torsions:
REMARK  status: ('A' for Active; 'I' for Inactive)
REMARK    1  A    between atoms: C_1  and  C_2
REMARK    2  A    between atoms: C_3  and  C_4
REMARK    3  A    between atoms: C_4  and  C_6
REMARK    4  A    between atoms: C_6  and  C_7
REMARK    5  A    between atoms: C_10  and  C_50
REMARK    6  A    between atoms: C_11  and  C_13
REMARK    7  A    between atoms: C_13  and  C_14
REMARK    8  A    between atoms: N_16  and  C_17
REMARK    9  A    between atoms: C_17  and  C_18
REMARK   10  A    between atoms: C_18  and  C_19
REMARK   11  A    between atoms: C_18  and  O_49
REMARK   12  A    between atoms: C_19  and  C_20
REMARK   13  A    between atoms: C_19  and  C_21
REMARK   14  A    between atoms: N_23  and  C_24
REMARK   15  A    between atoms: C_24  and  C_25
REMARK   16  A    between atoms: C_25  and  C_26
REMARK   17  A    between atoms: C_26  and  C_27
REMARK   18  A    between atoms: C_28  and  C_48
REMARK   19  A    between atoms: C_36  and  C_38
REMARK   20  A    between atoms: C_38  and  C_39
REMARK   21  A    between atoms: C_39  and  C_40
REMARK   22  A    between atoms: C_40  and  C_41
REMARK   23  A    between atoms: C_40  and  C_42
REMARK   24  A    between atoms: C_43  and  C_44
REMARK   25  A    between atoms: C_43  and  C_45
REMARK   26  A    between atoms: C_45  and  C_46
REMARK   27  A    between atoms: C_45  and  O_47
REMARK                            x       y       z     vdW  Elec       q    Type
REMARK                         _______ _______ _______ _____ _____    ______ ____
ROOT
ATOM      1  C   UNL     1       5.779  17.436  21.360  0.00  0.00    -0.035 C 
ATOM      2  H   UNL     1       5.529  17.714  20.332  0.00  0.00    +0.028 HD
ATOM      3  H   UNL     1       6.716  17.954  21.608  0.00  0.00    +0.028 HD
ENDROOT
BRANCH   1   4
ATOM      4  C   UNL     1       6.016  15.934  21.441  0.00  0.00    +0.012 C 
ATOM      5  H   UNL     1       6.601  15.592  20.576  0.00  0.00    +0.046 HD
ATOM      6  H   UNL     1       6.571  15.680  22.350  0.00  0.00    +0.046 HD
BRANCH   4   9
ATOM      7  C   UNL     1       4.499  14.222  20.497  0.00  0.00    +0.218 C 
ATOM      8  O   UNL     1       5.257  13.952  19.569  0.00  0.00    -0.275 OA
ATOM      9  N   UNL     1       4.757  15.218  21.415  0.00  0.00    -0.315 N 
ATOM     10  H   UNL     1       4.085  15.400  22.148  0.00  0.00    +0.149 HD
BRANCH   7  11
ATOM     11  C   UNL     1       3.138  13.550  20.683  0.00  0.00    +0.060 C 
ATOM     12  H   UNL     1       3.219  12.513  20.323  0.00  0.00    +0.042 HD
BRANCH  11  13
ATOM     13  C   UNL     1       2.858  13.525  22.188  0.00  0.00    -0.052 C 
ATOM     14  H   UNL     1       2.495  12.539  22.505  0.00  0.00    +0.024 HD
ATOM     15  H   UNL     1       3.765  13.735  22.764  0.00  0.00    +0.024 HD
ATOM     16  H   UNL     1       2.113  14.273  22.468  0.00  0.00    +0.024 HD
ENDBRANCH  11  13
BRANCH  11  17
ATOM     17  C   UNL     1       2.085  14.294  19.839  0.00  0.00    +0.081 C 
ATOM     18  H   UNL     1       1.393  14.866  20.474  0.00  0.00    +0.062 HD
BRANCH  17  19
ATOM     19  C   UNL     1       1.247  13.398  18.910  0.00  0.00    +0.038 C 
ATOM     20  H   UNL     1       1.739  13.288  17.936  0.00  0.00    +0.049 HD
ATOM     21  H   UNL     1       1.097  12.406  19.346  0.00  0.00    +0.049 HD
BRANCH  19  24
ATOM     22  C   UNL     1      -0.418  14.826  17.707  0.00  0.00    +0.216 C 
ATOM     23  O   UNL     1       0.409  15.273  16.919  0.00  0.00    -0.276 OA
ATOM     24  N   UNL     1      -0.093  13.957  18.725  0.00  0.00    -0.313 N 
ATOM     25  H   UNL     1      -0.824  13.639  19.351  0.00  0.00    +0.149 HD
BRANCH  22  26
ATOM     26  C   UNL     1      -1.881  15.209  17.694  0.00  0.00    +0.050 C 
ATOM     27  H   UNL     1      -2.337  14.712  16.830  0.00  0.00    +0.038 HD
ATOM     28  H   UNL     1      -1.991  16.283  17.505  0.00  0.00    +0.038 HD
BRANCH  26  33
ATOM     29  C   UNL     1      -4.607  13.477  19.489  0.00  0.00    +0.066 C 
ATOM     30  C   UNL     1      -4.308  13.944  20.908  0.00  0.00    -0.026 C 
ATOM     31  C   UNL     1      -4.074  15.451  20.942  0.00  0.00    -0.046 C 
ATOM     32  C   UNL     1      -3.340  15.973  19.694  0.00  0.00    -0.017 C 
ATOM     33  C   UNL     1      -2.624  14.808  18.971  0.00  0.00    +0.070 C 
ATOM     34  O   UNL     1      -3.525  13.749  18.593  0.00  0.00    -0.372 OA
ATOM     35  H   UNL     1      -5.482  14.017  19.112  0.00  0.00    +0.060 HD
ATOM     36  H   UNL     1      -5.125  13.683  21.588  0.00  0.00    +0.029 HD
ATOM     37  H   UNL     1      -3.411  13.437  21.284  0.00  0.00    +0.029 HD
ATOM     38  H   UNL     1      -5.033  15.964  21.072  0.00  0.00    +0.027 HD
ATOM     39  H   UNL     1      -3.485  15.689  21.836  0.00  0.00    +0.027 HD
ATOM     40  H   UNL     1      -2.590  16.696  20.042  0.00  0.00    +0.032 HD
ATOM     41  H   UNL     1      -1.892  14.370  19.660  0.00  0.00    +0.060 HD
BRANCH  32  42
ATOM     42  C   UNL     1      -4.298  16.755  18.784  0.00  0.00    -0.060 C 
ATOM     43  H   UNL     1      -4.146  17.835  18.851  0.00  0.00    +0.023 HD
ATOM     44  H   UNL     1      -5.336  16.545  19.042  0.00  0.00    +0.023 HD
ATOM     45  H   UNL     1      -4.166  16.452  17.738  0.00  0.00    +0.023 HD
ENDBRANCH  32  42
BRANCH  29  46
ATOM     46  C   UNL     1      -4.884  11.976  19.451  0.00  0.00    +0.036 C 
ATOM     47  H   UNL     1      -5.276  11.614  20.407  0.00  0.00    +0.037 HD
ATOM     48  H   UNL     1      -3.964  11.422  19.240  0.00  0.00    +0.037 HD
BRANCH  46  49
ATOM     49  C   UNL     1      -5.931  11.664  18.402  0.00  0.00    +0.158 C 
ATOM     50  O   UNL     1      -6.496  12.555  17.768  0.00  0.00    -0.293 OA
BRANCH  49  52
ATOM     51  C   UNL     1      -5.704   9.522  17.195  0.00  0.00    -0.084 C 
ATOM     52  C   UNL     1      -6.268  10.224  18.189  0.00  0.00    -0.023 C 
ATOM     53  H   UNL     1      -4.982  10.003  16.535  0.00  0.00    +0.057 HD
ATOM     54  H   UNL     1      -6.985   9.774  18.867  0.00  0.00    +0.065 HD
BRANCH  51  55
ATOM     55  C   UNL     1      -6.015   8.092  16.909  0.00  0.00    -0.046 C 
ATOM     56  H   UNL     1      -5.568   7.414  17.648  0.00  0.00    +0.027 HD
ATOM     57  H   UNL     1      -5.644   7.808  15.914  0.00  0.00    +0.027 HD
ATOM     58  H   UNL     1      -7.101   7.937  16.921  0.00  0.00    +0.027 HD
ENDBRANCH  51  55
ENDBRANCH  49  52
ENDBRANCH  46  49
ENDBRANCH  29  46
ENDBRANCH  26  33
ENDBRANCH  22  26
ENDBRANCH  19  24
ENDBRANCH  17  19
BRANCH  17  59
ATOM     59  O   UNL     1       2.792  15.256  19.035  0.00  0.00    -0.390 OA
ATOM     60  H   UNL     1       3.681  15.353  19.421  0.00  0.00    +0.210 HD
ENDBRANCH  17  59
ENDBRANCH  11  17
ENDBRANCH   7  11
ENDBRANCH   4   9
ENDBRANCH   1   4
BRANCH   1  61
ATOM     61  C   UNL     1       4.675  17.896  22.316  0.00  0.00    -0.025 C 
ATOM     62  H   UNL     1       3.776  18.115  21.724  0.00  0.00    +0.029 HD
ATOM     63  H   UNL     1       4.431  17.079  23.005  0.00  0.00    +0.029 HD
BRANCH  61  64
ATOM     64  C   UNL     1       5.091  19.148  23.109  0.00  0.00    +0.065 C 
ATOM     65  C   UNL     1       4.144  20.338  22.840  0.00  0.00    -0.017 C 
ATOM     66  C   UNL     1       4.836  21.682  23.136  0.00  0.00    -0.043 C 
ATOM     67  C   UNL     1       5.990  21.494  24.112  0.00  0.00    +0.002 C 
ATOM     68  C   UNL     1       7.025  20.482  23.571  0.00  0.00    +0.171 C 
ATOM     69  O   UNL     1       6.409  19.521  22.700  0.00  0.00    -0.345 OA
ATOM     70  C   UNL     1       8.109  21.204  22.754  0.00  0.00    +0.002 C 
ATOM     71  C   UNL     1       9.167  20.228  22.234  0.00  0.00    -0.046 C 
ATOM     72  C   UNL     1       9.332  19.018  23.150  0.00  0.00    -0.026 C 
ATOM     73  C   UNL     1       8.945  19.369  24.585  0.00  0.00    +0.062 C 
ATOM     74  O   UNL     1       7.590  19.819  24.709  0.00  0.00    -0.345 OA
ATOM     75  H   UNL     1       5.104  18.891  24.178  0.00  0.00    +0.060 HD
ATOM     76  H   UNL     1       3.873  20.354  21.776  0.00  0.00    +0.032 HD
ATOM     77  H   UNL     1       4.128  22.422  23.526  0.00  0.00    +0.027 HD
ATOM     78  H   UNL     1       5.228  22.096  22.196  0.00  0.00    +0.027 HD
ATOM     79  H   UNL     1       5.584  21.138  25.069  0.00  0.00    +0.032 HD
ATOM     80  H   UNL     1       6.466  22.459  24.340  0.00  0.00    +0.032 HD
ATOM     81  H   UNL     1       8.610  21.946  23.386  0.00  0.00    +0.032 HD
ATOM     82  H   UNL     1       7.678  21.742  21.903  0.00  0.00    +0.032 HD
ATOM     83  H   UNL     1       8.903  19.885  21.228  0.00  0.00    +0.027 HD
ATOM     84  H   UNL     1      10.120  20.759  22.133  0.00  0.00    +0.027 HD
ATOM     85  H   UNL     1       8.689  18.218  22.769  0.00  0.00    +0.029 HD
ATOM     86  H   UNL     1      10.364  18.653  23.096  0.00  0.00    +0.029 HD
ATOM     87  H   UNL     1       9.583  20.191  24.927  0.00  0.00    +0.060 HD
BRANCH  65  88
ATOM     88  C   UNL     1       2.838  20.205  23.638  0.00  0.00    -0.060 C 
ATOM     89  H   UNL     1       2.595  19.151  23.802  0.00  0.00    +0.023 HD
ATOM     90  H   UNL     1       2.003  20.668  23.101  0.00  0.00    +0.023 HD
ATOM     91  H   UNL     1       2.922  20.682  24.617  0.00  0.00    +0.023 HD
ENDBRANCH  65  88
BRANCH  73  92
ATOM     92  C   UNL     1       9.160  18.200  25.565  0.00  0.00    -0.026 C 
ATOM     93  H   UNL     1       9.582  18.607  26.496  0.00  0.00    +0.029 HD
ATOM     94  H   UNL     1       9.893  17.505  25.137  0.00  0.00    +0.029 HD
BRANCH  92  95
ATOM     95  C   UNL     1       7.862  17.458  25.914  0.00  0.00    -0.045 C 
ATOM     96  H   UNL     1       7.032  18.170  25.972  0.00  0.00    +0.027 HD
ATOM     97  H   UNL     1       7.968  17.012  26.912  0.00  0.00    +0.027 HD
BRANCH  95  98
ATOM     98  C   UNL     1       7.502  16.336  24.916  0.00  0.00    -0.025 C 
ATOM     99  H   UNL     1       7.522  16.766  23.911  0.00  0.00    +0.034 HD
BRANCH  98 100
ATOM    100  C   UNL     1       6.107  15.763  25.159  0.00  0.00    -0.059 C 
ATOM    101  H   UNL     1       6.142  14.681  25.326  0.00  0.00    +0.024 HD
ATOM    102  H   UNL     1       5.451  15.955  24.300  0.00  0.00    +0.024 HD
ATOM    103  H   UNL     1       5.640  16.227  26.033  0.00  0.00    +0.024 HD
ENDBRANCH  98 100
BRANCH  98 104
ATOM    104  C   UNL     1       8.533  15.234  25.053  0.00  0.00    -0.080 C 
ATOM    105  C   UNL     1       9.427  14.802  24.137  0.00  0.00    -0.048 C 
ATOM    106  H   UNL     1       8.551  14.782  26.044  0.00  0.00    +0.058 HD
BRANCH 105 107
ATOM    107  C   UNL     1       9.497  15.318  22.722  0.00  0.00    -0.041 C 
ATOM    108  H   UNL     1       9.132  16.350  22.673  0.00  0.00    +0.028 HD
ATOM    109  H   UNL     1       8.912  14.725  22.015  0.00  0.00    +0.028 HD
ATOM    110  H   UNL     1      10.525  15.301  22.348  0.00  0.00    +0.028 HD
ENDBRANCH 105 107
BRANCH 105 111
ATOM    111  C   UNL     1      10.454  13.751  24.508  0.00  0.00    +0.073 C 
ATOM    112  H   UNL     1       9.986  12.759  24.541  0.00  0.00    +0.064 HD
BRANCH 111 113
ATOM    113  C   UNL     1      11.101  14.023  25.858  0.00  0.00    -0.035 C 
ATOM    114  H   UNL     1      10.349  14.154  26.646  0.00  0.00    +0.026 HD
ATOM    115  H   UNL     1      11.778  13.216  26.155  0.00  0.00    +0.026 HD
ATOM    116  H   UNL     1      11.675  14.958  25.826  0.00  0.00    +0.026 HD
ENDBRANCH 111 113
BRANCH 111 117
ATOM    117  O   UNL     1      11.449  13.701  23.490  0.00  0.00    -0.388 OA
ATOM    118  H   UNL     1      11.875  14.573  23.462  0.00  0.00    +0.210 HD
ENDBRANCH 111 117
ENDBRANCH 105 111
ENDBRANCH  98 104
ENDBRANCH  95  98
ENDBRANCH  92  95
ENDBRANCH  73  92
ENDBRANCH  61  64
ENDBRANCH   1  61
TORSDOF 27
ENDMDL
MODEL 6
REMARK VINA RESULT:      -6.5      1.971      9.575
REMARK  Name = Bistramide A_conf2
REMARK  27 active torsions:
REMARK  status: ('A' for Active; 'I' for Inactive)
REMARK    1  A    between atoms: C_1  and  C_2
REMARK    2  A    between atoms: C_3  and  C_4
REMARK    3  A    between atoms: C_4  and  C_6
REMARK    4  A    between atoms: C_6  and  C_7
REMARK    5  A    between atoms: C_10  and  C_50
REMARK    6  A    between atoms: C_11  and  C_13
REMARK    7  A    between atoms: C_13  and  C_14
REMARK    8  A    between atoms: N_16  and  C_17
REMARK    9  A    between atoms: C_17  and  C_18
REMARK   10  A    between atoms: C_18  and  C_19
REMARK   11  A    between atoms: C_18  and  O_49
REMARK   12  A    between atoms: C_19  and  C_20
REMARK   13  A    between atoms: C_19  and  C_21
REMARK   14  A    between atoms: N_23  and  C_24
REMARK   15  A    between atoms: C_24  and  C_25
REMARK   16  A    between atoms: C_25  and  C_26
REMARK   17  A    between atoms: C_26  and  C_27
REMARK   18  A    between atoms: C_28  and  C_48
REMARK   19  A    between atoms: C_36  and  C_38
REMARK   20  A    between atoms: C_38  and  C_39
REMARK   21  A    between atoms: C_39  and  C_40
REMARK   22  A    between atoms: C_40  and  C_41
REMARK   23  A    between atoms: C_40  and  C_42
REMARK   24  A    between atoms: C_43  and  C_44
REMARK   25  A    between atoms: C_43  and  C_45
REMARK   26  A    between atoms: C_45  and  C_46
REMARK   27  A    between atoms: C_45  and  O_47
REMARK                            x       y       z     vdW  Elec       q    Type
REMARK                         _______ _______ _______ _____ _____    ______ ____
ROOT
ATOM      1  C   UNL     1       3.425  18.390  21.037  0.00  0.00    -0.035 C 
ATOM      2  H   UNL     1       2.338  18.521  21.054  0.00  0.00    +0.028 HD
ATOM      3  H   UNL     1       3.736  18.193  22.072  0.00  0.00    +0.028 HD
ENDROOT
BRANCH   1   4
ATOM      4  C   UNL     1       4.087  19.677  20.565  0.00  0.00    +0.012 C 
ATOM      5  H   UNL     1       4.493  19.549  19.551  0.00  0.00    +0.046 HD
ATOM      6  H   UNL     1       3.363  20.498  20.540  0.00  0.00    +0.046 HD
BRANCH   4   9
ATOM      7  C   UNL     1       6.502  20.022  20.982  0.00  0.00    +0.218 C 
ATOM      8  O   UNL     1       6.830  19.614  19.872  0.00  0.00    -0.275 OA
ATOM      9  N   UNL     1       5.197  20.025  21.428  0.00  0.00    -0.315 N 
ATOM     10  H   UNL     1       4.994  20.361  22.360  0.00  0.00    +0.149 HD
BRANCH   7  11
ATOM     11  C   UNL     1       7.513  20.483  22.033  0.00  0.00    +0.060 C 
ATOM     12  H   UNL     1       8.264  21.110  21.530  0.00  0.00    +0.042 HD
BRANCH  11  13
ATOM     13  C   UNL     1       6.747  21.345  23.038  0.00  0.00    -0.052 C 
ATOM     14  H   UNL     1       5.672  21.123  23.010  0.00  0.00    +0.024 HD
ATOM     15  H   UNL     1       7.087  21.159  24.062  0.00  0.00    +0.024 HD
ATOM     16  H   UNL     1       6.885  22.411  22.838  0.00  0.00    +0.024 HD
ENDBRANCH  11  13
BRANCH  11  17
ATOM     17  C   UNL     1       8.214  19.250  22.638  0.00  0.00    +0.081 C 
ATOM     18  H   UNL     1       8.166  19.259  23.735  0.00  0.00    +0.062 HD
BRANCH  17  19
ATOM     19  C   UNL     1       9.687  19.074  22.227  0.00  0.00    +0.038 C 
ATOM     20  H   UNL     1       9.763  18.863  21.154  0.00  0.00    +0.049 HD
ATOM     21  H   UNL     1      10.271  19.971  22.455  0.00  0.00    +0.049 HD
BRANCH  19  24
ATOM     22  C   UNL     1      10.710  16.800  22.424  0.00  0.00    +0.216 C 
ATOM     23  O   UNL     1      10.501  16.512  21.250  0.00  0.00    -0.276 OA
ATOM     24  N   UNL     1      10.308  17.991  22.988  0.00  0.00    -0.313 N 
ATOM     25  H   UNL     1      10.500  18.157  23.969  0.00  0.00    +0.149 HD
BRANCH  22  26
ATOM     26  C   UNL     1      11.382  15.869  23.407  0.00  0.00    +0.050 C 
ATOM     27  H   UNL     1      11.868  16.496  24.165  0.00  0.00    +0.038 HD
ATOM     28  H   UNL     1      12.195  15.320  22.917  0.00  0.00    +0.038 HD
BRANCH  26  33
ATOM     29  C   UNL     1       8.444  15.121  25.520  0.00  0.00    +0.066 C 
ATOM     30  C   UNL     1       8.536  13.601  25.546  0.00  0.00    -0.026 C 
ATOM     31  C   UNL     1       9.960  13.151  25.858  0.00  0.00    -0.046 C 
ATOM     32  C   UNL     1      11.029  14.065  25.233  0.00  0.00    -0.017 C 
ATOM     33  C   UNL     1      10.411  14.900  24.087  0.00  0.00    +0.070 C 
ATOM     34  O   UNL     1       9.290  15.695  24.518  0.00  0.00    -0.372 OA
ATOM     35  H   UNL     1       8.776  15.516  26.487  0.00  0.00    +0.060 HD
ATOM     36  H   UNL     1       7.846  13.178  26.283  0.00  0.00    +0.029 HD
ATOM     37  H   UNL     1       8.241  13.195  24.571  0.00  0.00    +0.029 HD
ATOM     38  H   UNL     1      10.090  13.087  26.944  0.00  0.00    +0.027 HD
ATOM     39  H   UNL     1      10.090  12.129  25.481  0.00  0.00    +0.027 HD
ATOM     40  H   UNL     1      11.809  13.410  24.821  0.00  0.00    +0.032 HD
ATOM     41  H   UNL     1      10.035  14.211  23.320  0.00  0.00    +0.060 HD
BRANCH  32  42
ATOM     42  C   UNL     1      11.712  14.921  26.308  0.00  0.00    -0.060 C 
ATOM     43  H   UNL     1      12.131  14.317  27.116  0.00  0.00    +0.023 HD
ATOM     44  H   UNL     1      11.008  15.628  26.747  0.00  0.00    +0.023 HD
ATOM     45  H   UNL     1      12.521  15.517  25.867  0.00  0.00    +0.023 HD
ENDBRANCH  32  42
BRANCH  29  46
ATOM     46  C   UNL     1       7.014  15.581  25.250  0.00  0.00    +0.036 C 
ATOM     47  H   UNL     1       6.280  14.902  25.696  0.00  0.00    +0.037 HD
ATOM     48  H   UNL     1       6.820  15.618  24.173  0.00  0.00    +0.037 HD
BRANCH  46  49
ATOM     49  C   UNL     1       6.778  16.945  25.866  0.00  0.00    +0.158 C 
ATOM     50  O   UNL     1       7.673  17.553  26.452  0.00  0.00    -0.293 OA
BRANCH  49  52
ATOM     51  C   UNL     1       5.113  18.462  24.854  0.00  0.00    -0.084 C 
ATOM     52  C   UNL     1       5.399  17.510  25.754  0.00  0.00    -0.023 C 
ATOM     53  H   UNL     1       5.893  18.828  24.187  0.00  0.00    +0.057 HD
ATOM     54  H   UNL     1       4.644  17.120  26.428  0.00  0.00    +0.065 HD
BRANCH  51  55
ATOM     55  C   UNL     1       3.768  19.088  24.708  0.00  0.00    -0.046 C 
ATOM     56  H   UNL     1       3.718  20.079  25.178  0.00  0.00    +0.027 HD
ATOM     57  H   UNL     1       2.995  18.453  25.164  0.00  0.00    +0.027 HD
ATOM     58  H   UNL     1       3.524  19.205  23.646  0.00  0.00    +0.027 HD
ENDBRANCH  51  55
ENDBRANCH  49  52
ENDBRANCH  46  49
ENDBRANCH  29  46
ENDBRANCH  26  33
ENDBRANCH  22  26
ENDBRANCH  19  24
ENDBRANCH  17  19
BRANCH  17  59
ATOM     59  O   UNL     1       7.476  18.092  22.206  0.00  0.00    -0.390 OA
ATOM     60  H   UNL     1       6.964  18.355  21.421  0.00  0.00    +0.210 HD
ENDBRANCH  17  59
ENDBRANCH  11  17
ENDBRANCH   7  11
ENDBRANCH   4   9
ENDBRANCH   1   4
BRANCH   1  61
ATOM     61  C   UNL     1       3.799  17.195  20.157  0.00  0.00    -0.025 C 
ATOM     62  H   UNL     1       3.473  17.408  19.130  0.00  0.00    +0.029 HD
ATOM     63  H   UNL     1       4.889  17.083  20.146  0.00  0.00    +0.029 HD
BRANCH  61  64
ATOM     64  C   UNL     1       3.140  15.894  20.650  0.00  0.00    +0.065 C 
ATOM     65  C   UNL     1       4.135  15.005  21.428  0.00  0.00    -0.017 C 
ATOM     66  C   UNL     1       3.695  13.530  21.417  0.00  0.00    -0.043 C 
ATOM     67  C   UNL     1       2.196  13.413  21.172  0.00  0.00    +0.002 C 
ATOM     68  C   UNL     1       1.790  14.088  19.843  0.00  0.00    +0.171 C 
ATOM     69  O   UNL     1       2.681  15.163  19.510  0.00  0.00    -0.345 OA
ATOM     70  C   UNL     1       1.845  13.078  18.685  0.00  0.00    +0.002 C 
ATOM     71  C   UNL     1       1.414  13.714  17.362  0.00  0.00    -0.046 C 
ATOM     72  C   UNL     1       0.416  14.850  17.568  0.00  0.00    -0.026 C 
ATOM     73  C   UNL     1      -0.372  14.651  18.861  0.00  0.00    +0.062 C 
ATOM     74  O   UNL     1       0.462  14.594  20.026  0.00  0.00    -0.345 OA
ATOM     75  H   UNL     1       2.278  16.160  21.278  0.00  0.00    +0.060 HD
ATOM     76  H   UNL     1       5.117  15.043  20.936  0.00  0.00    +0.032 HD
ATOM     77  H   UNL     1       3.966  13.022  22.351  0.00  0.00    +0.027 HD
ATOM     78  H   UNL     1       4.229  13.003  20.613  0.00  0.00    +0.027 HD
ATOM     79  H   UNL     1       1.667  13.888  22.010  0.00  0.00    +0.032 HD
ATOM     80  H   UNL     1       1.882  12.359  21.190  0.00  0.00    +0.032 HD
ATOM     81  H   UNL     1       1.172  12.240  18.899  0.00  0.00    +0.032 HD
ATOM     82  H   UNL     1       2.851  12.662  18.565  0.00  0.00    +0.032 HD
ATOM     83  H   UNL     1       2.288  14.094  16.823  0.00  0.00    +0.027 HD
ATOM     84  H   UNL     1       0.977  12.938  16.722  0.00  0.00    +0.027 HD
ATOM     85  H   UNL     1       0.980  15.788  17.608  0.00  0.00    +0.029 HD
ATOM     86  H   UNL     1      -0.252  14.915  16.702  0.00  0.00    +0.029 HD
ATOM     87  H   UNL     1      -0.898  13.692  18.803  0.00  0.00    +0.060 HD
BRANCH  65  88
ATOM     88  C   UNL     1       4.331  15.511  22.866  0.00  0.00    -0.060 C 
ATOM     89  H   UNL     1       4.797  14.737  23.483  0.00  0.00    +0.023 HD
ATOM     90  H   UNL     1       3.370  15.778  23.320  0.00  0.00    +0.023 HD
ATOM     91  H   UNL     1       4.979  16.389  22.892  0.00  0.00    +0.023 HD
ENDBRANCH  65  88
BRANCH  73  92
ATOM     92  C   UNL     1      -1.443  15.736  19.081  0.00  0.00    -0.026 C 
ATOM     93  H   UNL     1      -1.085  16.668  18.620  0.00  0.00    +0.029 HD
ATOM     94  H   UNL     1      -1.558  15.911  20.158  0.00  0.00    +0.029 HD
BRANCH  92  95
ATOM     95  C   UNL     1      -2.798  15.382  18.451  0.00  0.00    -0.045 C 
ATOM     96  H   UNL     1      -2.651  14.671  17.631  0.00  0.00    +0.027 HD
ATOM     97  H   UNL     1      -3.230  16.291  18.011  0.00  0.00    +0.027 HD
BRANCH  95  98
ATOM     98  C   UNL     1      -3.814  14.797  19.456  0.00  0.00    -0.025 C 
ATOM     99  H   UNL     1      -4.751  15.348  19.341  0.00  0.00    +0.034 HD
BRANCH  98 100
ATOM    100  C   UNL     1      -3.353  14.942  20.905  0.00  0.00    -0.059 C 
ATOM    101  H   UNL     1      -2.536  14.249  21.137  0.00  0.00    +0.024 HD
ATOM    102  H   UNL     1      -4.179  14.741  21.599  0.00  0.00    +0.024 HD
ATOM    103  H   UNL     1      -3.002  15.959  21.105  0.00  0.00    +0.024 HD
ENDBRANCH  98 100
BRANCH  98 104
ATOM    104  C   UNL     1      -4.008  13.330  19.131  0.00  0.00    -0.080 C 
ATOM    105  C   UNL     1      -5.132  12.587  19.235  0.00  0.00    -0.048 C 
ATOM    106  H   UNL     1      -3.113  12.856  18.727  0.00  0.00    +0.058 HD
BRANCH 105 107
ATOM    107  C   UNL     1      -6.430  13.104  19.800  0.00  0.00    -0.041 C 
ATOM    108  H   UNL     1      -7.264  12.843  19.140  0.00  0.00    +0.028 HD
ATOM    109  H   UNL     1      -6.442  14.189  19.937  0.00  0.00    +0.028 HD
ATOM    110  H   UNL     1      -6.628  12.676  20.787  0.00  0.00    +0.028 HD
ENDBRANCH 105 107
BRANCH 105 111
ATOM    111  C   UNL     1      -5.146  11.151  18.754  0.00  0.00    +0.073 C 
ATOM    112  H   UNL     1      -4.381  10.566  19.280  0.00  0.00    +0.064 HD
BRANCH 111 113
ATOM    113  C   UNL     1      -4.892  11.038  17.257  0.00  0.00    -0.035 C 
ATOM    114  H   UNL     1      -3.838  10.820  17.043  0.00  0.00    +0.026 HD
ATOM    115  H   UNL     1      -5.507  10.258  16.798  0.00  0.00    +0.026 HD
ATOM    116  H   UNL     1      -5.114  11.989  16.758  0.00  0.00    +0.026 HD
ENDBRANCH 111 113
BRANCH 111 117
ATOM    117  O   UNL     1      -6.404  10.569  19.081  0.00  0.00    -0.388 OA
ATOM    118  H   UNL     1      -6.621  10.843  19.986  0.00  0.00    +0.210 HD
ENDBRANCH 111 117
ENDBRANCH 105 111
ENDBRANCH  98 104
ENDBRANCH  95  98
ENDBRANCH  92  95
ENDBRANCH  73  92
ENDBRANCH  61  64
ENDBRANCH   1  61
TORSDOF 27
ENDMDL
MODEL 7
REMARK VINA RESULT:      -6.4      2.755      7.478
REMARK  Name = Bistramide A_conf2
REMARK  27 active torsions:
REMARK  status: ('A' for Active; 'I' for Inactive)
REMARK    1  A    between atoms: C_1  and  C_2
REMARK    2  A    between atoms: C_3  and  C_4
REMARK    3  A    between atoms: C_4  and  C_6
REMARK    4  A    between atoms: C_6  and  C_7
REMARK    5  A    between atoms: C_10  and  C_50
REMARK    6  A    between atoms: C_11  and  C_13
REMARK    7  A    between atoms: C_13  and  C_14
REMARK    8  A    between atoms: N_16  and  C_17
REMARK    9  A    between atoms: C_17  and  C_18
REMARK   10  A    between atoms: C_18  and  C_19
REMARK   11  A    between atoms: C_18  and  O_49
REMARK   12  A    between atoms: C_19  and  C_20
REMARK   13  A    between atoms: C_19  and  C_21
REMARK   14  A    between atoms: N_23  and  C_24
REMARK   15  A    between atoms: C_24  and  C_25
REMARK   16  A    between atoms: C_25  and  C_26
REMARK   17  A    between atoms: C_26  and  C_27
REMARK   18  A    between atoms: C_28  and  C_48
REMARK   19  A    between atoms: C_36  and  C_38
REMARK   20  A    between atoms: C_38  and  C_39
REMARK   21  A    between atoms: C_39  and  C_40
REMARK   22  A    between atoms: C_40  and  C_41
REMARK   23  A    between atoms: C_40  and  C_42
REMARK   24  A    between atoms: C_43  and  C_44
REMARK   25  A    between atoms: C_43  and  C_45
REMARK   26  A    between atoms: C_45  and  C_46
REMARK   27  A    between atoms: C_45  and  O_47
REMARK                            x       y       z     vdW  Elec       q    Type
REMARK                         _______ _______ _______ _____ _____    ______ ____
ROOT
ATOM      1  C   UNL     1       3.811  14.847  23.543  0.00  0.00    -0.035 C 
ATOM      2  H   UNL     1       3.344  13.874  23.719  0.00  0.00    +0.028 HD
ATOM      3  H   UNL     1       2.996  15.580  23.466  0.00  0.00    +0.028 HD
ENDROOT
BRANCH   1   4
ATOM      4  C   UNL     1       4.569  14.820  22.222  0.00  0.00    +0.012 C 
ATOM      5  H   UNL     1       5.266  15.667  22.163  0.00  0.00    +0.046 HD
ATOM      6  H   UNL     1       5.148  13.896  22.128  0.00  0.00    +0.046 HD
BRANCH   4   9
ATOM      7  C   UNL     1       3.286  13.861  20.337  0.00  0.00    +0.218 C 
ATOM      8  O   UNL     1       3.792  12.749  20.458  0.00  0.00    -0.275 OA
ATOM      9  N   UNL     1       3.652  14.944  21.107  0.00  0.00    -0.315 N 
ATOM     10  H   UNL     1       3.207  15.837  20.948  0.00  0.00    +0.149 HD
BRANCH   7  11
ATOM     11  C   UNL     1       2.259  14.196  19.252  0.00  0.00    +0.060 C 
ATOM     12  H   UNL     1       2.552  15.151  18.791  0.00  0.00    +0.042 HD
BRANCH  11  13
ATOM     13  C   UNL     1       2.354  13.092  18.197  0.00  0.00    -0.052 C 
ATOM     14  H   UNL     1       2.303  13.510  17.183  0.00  0.00    +0.024 HD
ATOM     15  H   UNL     1       3.301  12.548  18.274  0.00  0.00    +0.024 HD
ATOM     16  H   UNL     1       1.549  12.361  18.309  0.00  0.00    +0.024 HD
ENDBRANCH  11  13
BRANCH  11  17
ATOM     17  C   UNL     1       0.870  14.356  19.901  0.00  0.00    +0.081 C 
ATOM     18  H   UNL     1       0.146  13.645  19.480  0.00  0.00    +0.062 HD
BRANCH  17  19
ATOM     19  C   UNL     1       0.266  15.768  19.799  0.00  0.00    +0.038 C 
ATOM     20  H   UNL     1      -0.120  16.093  20.772  0.00  0.00    +0.049 HD
ATOM     21  H   UNL     1       1.009  16.493  19.452  0.00  0.00    +0.049 HD
BRANCH  19  24
ATOM     22  C   UNL     1      -2.096  15.381  19.072  0.00  0.00    +0.216 C 
ATOM     23  O   UNL     1      -2.428  14.869  20.137  0.00  0.00    -0.276 OA
ATOM     24  N   UNL     1      -0.810  15.797  18.808  0.00  0.00    -0.313 N 
ATOM     25  H   UNL     1      -0.601  16.198  17.901  0.00  0.00    +0.149 HD
BRANCH  22  26
ATOM     26  C   UNL     1      -3.038  15.571  17.905  0.00  0.00    +0.050 C 
ATOM     27  H   UNL     1      -2.534  15.171  17.016  0.00  0.00    +0.038 HD
ATOM     28  H   UNL     1      -3.184  16.638  17.703  0.00  0.00    +0.038 HD
BRANCH  26  33
ATOM     29  C   UNL     1      -5.259  12.627  17.662  0.00  0.00    +0.066 C 
ATOM     30  C   UNL     1      -6.563  13.259  18.132  0.00  0.00    -0.026 C 
ATOM     31  C   UNL     1      -6.807  14.586  17.419  0.00  0.00    -0.046 C 
ATOM     32  C   UNL     1      -5.513  15.378  17.164  0.00  0.00    -0.017 C 
ATOM     33  C   UNL     1      -4.386  14.869  18.092  0.00  0.00    +0.070 C 
ATOM     34  O   UNL     1      -4.128  13.460  17.935  0.00  0.00    -0.372 OA
ATOM     35  H   UNL     1      -5.301  12.486  16.576  0.00  0.00    +0.060 HD
ATOM     36  H   UNL     1      -7.410  12.587  17.960  0.00  0.00    +0.029 HD
ATOM     37  H   UNL     1      -6.519  13.440  19.213  0.00  0.00    +0.029 HD
ATOM     38  H   UNL     1      -7.342  14.400  16.481  0.00  0.00    +0.027 HD
ATOM     39  H   UNL     1      -7.487  15.188  18.034  0.00  0.00    +0.027 HD
ATOM     40  H   UNL     1      -5.728  16.428  17.402  0.00  0.00    +0.032 HD
ATOM     41  H   UNL     1      -4.699  15.019  19.133  0.00  0.00    +0.060 HD
BRANCH  32  42
ATOM     42  C   UNL     1      -5.137  15.344  15.676  0.00  0.00    -0.060 C 
ATOM     43  H   UNL     1      -6.014  15.343  15.025  0.00  0.00    +0.023 HD
ATOM     44  H   UNL     1      -4.546  14.458  15.445  0.00  0.00    +0.023 HD
ATOM     45  H   UNL     1      -4.517  16.212  15.418  0.00  0.00    +0.023 HD
ENDBRANCH  32  42
BRANCH  29  46
ATOM     46  C   UNL     1      -5.026  11.279  18.339  0.00  0.00    +0.036 C 
ATOM     47  H   UNL     1      -5.727  11.115  19.163  0.00  0.00    +0.037 HD
ATOM     48  H   UNL     1      -4.013  11.226  18.749  0.00  0.00    +0.037 HD
BRANCH  46  49
ATOM     49  C   UNL     1      -5.245  10.153  17.350  0.00  0.00    +0.158 C 
ATOM     50  O   UNL     1      -4.789  10.199  16.207  0.00  0.00    -0.293 OA
BRANCH  49  52
ATOM     51  C   UNL     1      -6.246   8.754  19.121  0.00  0.00    -0.084 C 
ATOM     52  C   UNL     1      -6.063   8.992  17.814  0.00  0.00    -0.023 C 
ATOM     53  H   UNL     1      -5.798   9.419  19.860  0.00  0.00    +0.057 HD
ATOM     54  H   UNL     1      -6.499   8.353  17.054  0.00  0.00    +0.065 HD
BRANCH  51  55
ATOM     55  C   UNL     1      -7.026   7.600  19.653  0.00  0.00    -0.046 C 
ATOM     56  H   UNL     1      -6.379   6.828  20.091  0.00  0.00    +0.027 HD
ATOM     57  H   UNL     1      -7.622   7.137  18.855  0.00  0.00    +0.027 HD
ATOM     58  H   UNL     1      -7.716   7.945  20.433  0.00  0.00    +0.027 HD
ENDBRANCH  51  55
ENDBRANCH  49  52
ENDBRANCH  46  49
ENDBRANCH  29  46
ENDBRANCH  26  33
ENDBRANCH  22  26
ENDBRANCH  19  24
ENDBRANCH  17  19
BRANCH  17  59
ATOM     59  O   UNL     1       1.014  14.018  21.293  0.00  0.00    -0.390 OA
ATOM     60  H   UNL     1       0.578  13.158  21.425  0.00  0.00    +0.210 HD
ENDBRANCH  17  59
ENDBRANCH  11  17
ENDBRANCH   7  11
ENDBRANCH   4   9
ENDBRANCH   1   4
BRANCH   1  61
ATOM     61  C   UNL     1       4.720  15.218  24.718  0.00  0.00    -0.025 C 
ATOM     62  H   UNL     1       4.302  14.772  25.630  0.00  0.00    +0.029 HD
ATOM     63  H   UNL     1       5.713  14.783  24.557  0.00  0.00    +0.029 HD
BRANCH  61  64
ATOM     64  C   UNL     1       4.834  16.743  24.892  0.00  0.00    +0.065 C 
ATOM     65  C   UNL     1       3.889  17.268  25.995  0.00  0.00    -0.017 C 
ATOM     66  C   UNL     1       3.567  18.760  25.794  0.00  0.00    -0.043 C 
ATOM     67  C   UNL     1       4.651  19.441  24.967  0.00  0.00    +0.002 C 
ATOM     68  C   UNL     1       4.824  18.755  23.593  0.00  0.00    +0.171 C 
ATOM     69  O   UNL     1       4.472  17.365  23.657  0.00  0.00    -0.345 OA
ATOM     70  C   UNL     1       3.908  19.407  22.546  0.00  0.00    +0.002 C 
ATOM     71  C   UNL     1       4.085  18.768  21.167  0.00  0.00    -0.046 C 
ATOM     72  C   UNL     1       5.493  18.214  20.967  0.00  0.00    -0.026 C 
ATOM     73  C   UNL     1       6.500  18.967  21.833  0.00  0.00    +0.062 C 
ATOM     74  O   UNL     1       6.204  18.894  23.234  0.00  0.00    -0.345 OA
ATOM     75  H   UNL     1       5.881  16.987  25.125  0.00  0.00    +0.060 HD
ATOM     76  H   UNL     1       2.932  16.731  25.938  0.00  0.00    +0.032 HD
ATOM     77  H   UNL     1       3.442  19.278  26.753  0.00  0.00    +0.027 HD
ATOM     78  H   UNL     1       2.607  18.851  25.267  0.00  0.00    +0.027 HD
ATOM     79  H   UNL     1       5.596  19.401  25.528  0.00  0.00    +0.032 HD
ATOM     80  H   UNL     1       4.431  20.512  24.848  0.00  0.00    +0.032 HD
ATOM     81  H   UNL     1       4.148  20.474  22.463  0.00  0.00    +0.032 HD
ATOM     82  H   UNL     1       2.854  19.335  22.835  0.00  0.00    +0.032 HD
ATOM     83  H   UNL     1       3.357  17.963  21.027  0.00  0.00    +0.027 HD
ATOM     84  H   UNL     1       3.861  19.517  20.398  0.00  0.00    +0.027 HD
ATOM     85  H   UNL     1       5.477  17.153  21.239  0.00  0.00    +0.029 HD
ATOM     86  H   UNL     1       5.764  18.268  19.906  0.00  0.00    +0.029 HD
ATOM     87  H   UNL     1       6.469  20.028  21.559  0.00  0.00    +0.060 HD
BRANCH  65  88
ATOM     88  C   UNL     1       4.468  17.013  27.396  0.00  0.00    -0.060 C 
ATOM     89  H   UNL     1       5.375  16.405  27.330  0.00  0.00    +0.023 HD
ATOM     90  H   UNL     1       3.745  16.484  28.026  0.00  0.00    +0.023 HD
ATOM     91  H   UNL     1       4.733  17.950  27.890  0.00  0.00    +0.023 HD
ENDBRANCH  65  88
BRANCH  73  92
ATOM     92  C   UNL     1       7.949  18.492  21.616  0.00  0.00    -0.026 C 
ATOM     93  H   UNL     1       8.414  19.144  20.862  0.00  0.00    +0.029 HD
ATOM     94  H   UNL     1       7.934  17.470  21.218  0.00  0.00    +0.029 HD
BRANCH  92  95
ATOM     95  C   UNL     1       8.802  18.554  22.891  0.00  0.00    -0.045 C 
ATOM     96  H   UNL     1       8.264  18.082  23.721  0.00  0.00    +0.027 HD
ATOM     97  H   UNL     1       8.949  19.607  23.166  0.00  0.00    +0.027 HD
BRANCH  95  98
ATOM     98  C   UNL     1      10.188  17.891  22.742  0.00  0.00    -0.025 C 
ATOM     99  H   UNL     1      10.796  18.194  23.599  0.00  0.00    +0.034 HD
BRANCH  98 100
ATOM    100  C   UNL     1      10.911  18.329  21.470  0.00  0.00    -0.059 C 
ATOM    101  H   UNL     1      11.405  17.483  20.977  0.00  0.00    +0.024 HD
ATOM    102  H   UNL     1      11.674  19.086  21.695  0.00  0.00    +0.024 HD
ATOM    103  H   UNL     1      10.212  18.777  20.756  0.00  0.00    +0.024 HD
ENDBRANCH  98 100
BRANCH  98 104
ATOM    104  C   UNL     1       9.994  16.388  22.721  0.00  0.00    -0.080 C 
ATOM    105  C   UNL     1      10.695  15.441  23.381  0.00  0.00    -0.048 C 
ATOM    106  H   UNL     1       9.144  16.072  22.116  0.00  0.00    +0.058 HD
BRANCH 105 107
ATOM    107  C   UNL     1      11.906  15.732  24.231  0.00  0.00    -0.041 C 
ATOM    108  H   UNL     1      11.694  16.548  24.931  0.00  0.00    +0.028 HD
ATOM    109  H   UNL     1      12.787  16.015  23.648  0.00  0.00    +0.028 HD
ATOM    110  H   UNL     1      12.201  14.852  24.810  0.00  0.00    +0.028 HD
ENDBRANCH 105 107
BRANCH 105 111
ATOM    111  C   UNL     1      10.271  13.988  23.311  0.00  0.00    +0.073 C 
ATOM    112  H   UNL     1       9.377  13.884  22.685  0.00  0.00    +0.064 HD
BRANCH 111 113
ATOM    113  C   UNL     1       9.966  13.406  24.685  0.00  0.00    -0.035 C 
ATOM    114  H   UNL     1       8.954  12.983  24.727  0.00  0.00    +0.026 HD
ATOM    115  H   UNL     1      10.680  12.626  24.963  0.00  0.00    +0.026 HD
ATOM    116  H   UNL     1      10.000  14.192  25.450  0.00  0.00    +0.026 HD
ENDBRANCH 111 113
BRANCH 111 117
ATOM    117  O   UNL     1      11.305  13.238  22.682  0.00  0.00    -0.388 OA
ATOM    118  H   UNL     1      12.147  13.529  23.066  0.00  0.00    +0.210 HD
ENDBRANCH 111 117
ENDBRANCH 105 111
ENDBRANCH  98 104
ENDBRANCH  95  98
ENDBRANCH  92  95
ENDBRANCH  73  92
ENDBRANCH  61  64
ENDBRANCH   1  61
TORSDOF 27
ENDMDL
MODEL 8
REMARK VINA RESULT:      -6.3      3.851      9.919
REMARK  Name = Bistramide A_conf2
REMARK  27 active torsions:
REMARK  status: ('A' for Active; 'I' for Inactive)
REMARK    1  A    between atoms: C_1  and  C_2
REMARK    2  A    between atoms: C_3  and  C_4
REMARK    3  A    between atoms: C_4  and  C_6
REMARK    4  A    between atoms: C_6  and  C_7
REMARK    5  A    between atoms: C_10  and  C_50
REMARK    6  A    between atoms: C_11  and  C_13
REMARK    7  A    between atoms: C_13  and  C_14
REMARK    8  A    between atoms: N_16  and  C_17
REMARK    9  A    between atoms: C_17  and  C_18
REMARK   10  A    between atoms: C_18  and  C_19
REMARK   11  A    between atoms: C_18  and  O_49
REMARK   12  A    between atoms: C_19  and  C_20
REMARK   13  A    between atoms: C_19  and  C_21
REMARK   14  A    between atoms: N_23  and  C_24
REMARK   15  A    between atoms: C_24  and  C_25
REMARK   16  A    between atoms: C_25  and  C_26
REMARK   17  A    between atoms: C_26  and  C_27
REMARK   18  A    between atoms: C_28  and  C_48
REMARK   19  A    between atoms: C_36  and  C_38
REMARK   20  A    between atoms: C_38  and  C_39
REMARK   21  A    between atoms: C_39  and  C_40
REMARK   22  A    between atoms: C_40  and  C_41
REMARK   23  A    between atoms: C_40  and  C_42
REMARK   24  A    between atoms: C_43  and  C_44
REMARK   25  A    between atoms: C_43  and  C_45
REMARK   26  A    between atoms: C_45  and  C_46
REMARK   27  A    between atoms: C_45  and  O_47
REMARK                            x       y       z     vdW  Elec       q    Type
REMARK                         _______ _______ _______ _____ _____    ______ ____
ROOT
ATOM      1  C   UNL     1      -1.027  15.569  20.306  0.00  0.00    -0.035 C 
ATOM      2  H   UNL     1      -0.870  14.490  20.222  0.00  0.00    +0.028 HD
ATOM      3  H   UNL     1      -1.193  15.782  21.371  0.00  0.00    +0.028 HD
ENDROOT
BRANCH   1   4
ATOM      4  C   UNL     1      -2.275  15.967  19.529  0.00  0.00    +0.012 C 
ATOM      5  H   UNL     1      -2.035  16.746  18.792  0.00  0.00    +0.046 HD
ATOM      6  H   UNL     1      -2.686  15.106  18.992  0.00  0.00    +0.046 HD
BRANCH   4   9
ATOM      7  C   UNL     1      -4.182  15.719  21.086  0.00  0.00    +0.218 C 
ATOM      8  O   UNL     1      -4.287  14.512  20.886  0.00  0.00    -0.275 OA
ATOM      9  N   UNL     1      -3.276  16.517  20.420  0.00  0.00    -0.315 N 
ATOM     10  H   UNL     1      -3.249  17.507  20.621  0.00  0.00    +0.149 HD
BRANCH   7  11
ATOM     11  C   UNL     1      -5.109  16.491  22.026  0.00  0.00    +0.060 C 
ATOM     12  H   UNL     1      -4.942  16.120  23.049  0.00  0.00    +0.042 HD
BRANCH  11  13
ATOM     13  C   UNL     1      -4.683  17.960  21.961  0.00  0.00    -0.052 C 
ATOM     14  H   UNL     1      -3.600  18.063  22.108  0.00  0.00    +0.024 HD
ATOM     15  H   UNL     1      -4.919  18.399  20.986  0.00  0.00    +0.024 HD
ATOM     16  H   UNL     1      -5.193  18.558  22.720  0.00  0.00    +0.024 HD
ENDBRANCH  11  13
BRANCH  11  17
ATOM     17  C   UNL     1      -6.574  16.222  21.627  0.00  0.00    +0.081 C 
ATOM     18  H   UNL     1      -7.198  17.116  21.764  0.00  0.00    +0.062 HD
BRANCH  17  19
ATOM     19  C   UNL     1      -7.245  15.056  22.374  0.00  0.00    +0.038 C 
ATOM     20  H   UNL     1      -6.684  14.808  23.283  0.00  0.00    +0.049 HD
ATOM     21  H   UNL     1      -8.275  15.302  22.650  0.00  0.00    +0.049 HD
BRANCH  19  24
ATOM     22  C   UNL     1      -8.415  13.611  20.700  0.00  0.00    +0.216 C 
ATOM     23  O   UNL     1      -9.432  14.297  20.694  0.00  0.00    -0.276 OA
ATOM     24  N   UNL     1      -7.335  13.876  21.513  0.00  0.00    -0.313 N 
ATOM     25  H   UNL     1      -6.532  13.259  21.479  0.00  0.00    +0.149 HD
BRANCH  22  26
ATOM     26  C   UNL     1      -8.239  12.366  19.861  0.00  0.00    +0.050 C 
ATOM     27  H   UNL     1      -8.965  12.424  19.041  0.00  0.00    +0.038 HD
ATOM     28  H   UNL     1      -8.517  11.476  20.437  0.00  0.00    +0.038 HD
BRANCH  26  33
ATOM     29  C   UNL     1      -5.537  13.303  17.520  0.00  0.00    +0.066 C 
ATOM     30  C   UNL     1      -4.503  12.249  17.898  0.00  0.00    -0.026 C 
ATOM     31  C   UNL     1      -5.143  10.866  17.967  0.00  0.00    -0.046 C 
ATOM     32  C   UNL     1      -6.579  10.896  18.520  0.00  0.00    -0.017 C 
ATOM     33  C   UNL     1      -6.827  12.215  19.288  0.00  0.00    +0.070 C 
ATOM     34  O   UNL     1      -6.597  13.384  18.478  0.00  0.00    -0.372 OA
ATOM     35  H   UNL     1      -5.989  13.032  16.560  0.00  0.00    +0.060 HD
ATOM     36  H   UNL     1      -3.675  12.236  17.181  0.00  0.00    +0.029 HD
ATOM     37  H   UNL     1      -4.069  12.490  18.875  0.00  0.00    +0.029 HD
ATOM     38  H   UNL     1      -5.118  10.404  16.974  0.00  0.00    +0.027 HD
ATOM     39  H   UNL     1      -4.520  10.229  18.607  0.00  0.00    +0.027 HD
ATOM     40  H   UNL     1      -6.672  10.051  19.215  0.00  0.00    +0.032 HD
ATOM     41  H   UNL     1      -6.119  12.267  20.125  0.00  0.00    +0.060 HD
BRANCH  32  42
ATOM     42  C   UNL     1      -7.600  10.644  17.401  0.00  0.00    -0.060 C 
ATOM     43  H   UNL     1      -7.720  11.510  16.746  0.00  0.00    +0.023 HD
ATOM     44  H   UNL     1      -8.577  10.398  17.815  0.00  0.00    +0.023 HD
ATOM     45  H   UNL     1      -7.293   9.788  16.788  0.00  0.00    +0.023 HD
ENDBRANCH  32  42
BRANCH  29  46
ATOM     46  C   UNL     1      -4.897  14.684  17.407  0.00  0.00    +0.036 C 
ATOM     47  H   UNL     1      -3.845  14.619  17.112  0.00  0.00    +0.037 HD
ATOM     48  H   UNL     1      -4.941  15.207  18.368  0.00  0.00    +0.037 HD
BRANCH  46  49
ATOM     49  C   UNL     1      -5.600  15.500  16.341  0.00  0.00    +0.158 C 
ATOM     50  O   UNL     1      -5.548  15.190  15.151  0.00  0.00    -0.293 OA
BRANCH  49  52
ATOM     51  C   UNL     1      -5.959  17.942  16.400  0.00  0.00    -0.084 C 
ATOM     52  C   UNL     1      -6.338  16.717  16.795  0.00  0.00    -0.023 C 
ATOM     53  H   UNL     1      -5.105  18.055  15.733  0.00  0.00    +0.057 HD
ATOM     54  H   UNL     1      -7.186  16.570  17.453  0.00  0.00    +0.065 HD
BRANCH  51  55
ATOM     55  C   UNL     1      -6.632  19.199  16.837  0.00  0.00    -0.046 C 
ATOM     56  H   UNL     1      -6.554  19.994  16.084  0.00  0.00    +0.027 HD
ATOM     57  H   UNL     1      -6.190  19.568  17.773  0.00  0.00    +0.027 HD
ATOM     58  H   UNL     1      -7.696  19.008  17.018  0.00  0.00    +0.027 HD
ENDBRANCH  51  55
ENDBRANCH  49  52
ENDBRANCH  46  49
ENDBRANCH  29  46
ENDBRANCH  26  33
ENDBRANCH  22  26
ENDBRANCH  19  24
ENDBRANCH  17  19
BRANCH  17  59
ATOM     59  O   UNL     1      -6.580  15.930  20.218  0.00  0.00    -0.390 OA
ATOM     60  H   UNL     1      -6.687  16.777  19.751  0.00  0.00    +0.210 HD
ENDBRANCH  17  59
ENDBRANCH  11  17
ENDBRANCH   7  11
ENDBRANCH   4   9
ENDBRANCH   1   4
BRANCH   1  61
ATOM     61  C   UNL     1       0.214  16.324  19.824  0.00  0.00    -0.025 C 
ATOM     62  H   UNL     1      -0.076  16.958  18.976  0.00  0.00    +0.029 HD
ATOM     63  H   UNL     1       0.572  16.980  20.626  0.00  0.00    +0.029 HD
BRANCH  61  64
ATOM     64  C   UNL     1       1.335  15.361  19.392  0.00  0.00    +0.065 C 
ATOM     65  C   UNL     1       0.786  14.171  18.574  0.00  0.00    -0.017 C 
ATOM     66  C   UNL     1       1.739  12.963  18.636  0.00  0.00    -0.043 C 
ATOM     67  C   UNL     1       3.158  13.408  18.966  0.00  0.00    +0.002 C 
ATOM     68  C   UNL     1       3.207  14.179  20.305  0.00  0.00    +0.171 C 
ATOM     69  O   UNL     1       1.964  14.846  20.568  0.00  0.00    -0.345 OA
ATOM     70  C   UNL     1       3.462  13.215  21.474  0.00  0.00    +0.002 C 
ATOM     71  C   UNL     1       3.549  13.958  22.809  0.00  0.00    -0.046 C 
ATOM     72  C   UNL     1       4.066  15.384  22.639  0.00  0.00    -0.026 C 
ATOM     73  C   UNL     1       4.947  15.497  21.397  0.00  0.00    +0.062 C 
ATOM     74  O   UNL     1       4.263  15.141  20.188  0.00  0.00    -0.345 OA
ATOM     75  H   UNL     1       2.073  15.930  18.809  0.00  0.00    +0.060 HD
ATOM     76  H   UNL     1      -0.167  13.840  19.010  0.00  0.00    +0.032 HD
ATOM     77  H   UNL     1       1.730  12.395  17.697  0.00  0.00    +0.027 HD
ATOM     78  H   UNL     1       1.391  12.272  19.416  0.00  0.00    +0.027 HD
ATOM     79  H   UNL     1       3.522  14.049  18.151  0.00  0.00    +0.032 HD
ATOM     80  H   UNL     1       3.840  12.545  18.984  0.00  0.00    +0.032 HD
ATOM     81  H   UNL     1       4.408  12.686  21.313  0.00  0.00    +0.032 HD
ATOM     82  H   UNL     1       2.675  12.455  21.545  0.00  0.00    +0.032 HD
ATOM     83  H   UNL     1       2.566  13.986  23.291  0.00  0.00    +0.027 HD
ATOM     84  H   UNL     1       4.203  13.396  23.485  0.00  0.00    +0.027 HD
ATOM     85  H   UNL     1       3.199  16.047  22.552  0.00  0.00    +0.029 HD
ATOM     86  H   UNL     1       4.611  15.688  23.540  0.00  0.00    +0.029 HD
ATOM     87  H   UNL     1       5.786  14.800  21.501  0.00  0.00    +0.060 HD
BRANCH  65  88
ATOM     88  C   UNL     1       0.503  14.575  17.119  0.00  0.00    -0.060 C 
ATOM     89  H   UNL     1       0.758  13.758  16.438  0.00  0.00    +0.023 HD
ATOM     90  H   UNL     1       1.093  15.453  16.836  0.00  0.00    +0.023 HD
ATOM     91  H   UNL     1      -0.554  14.810  16.973  0.00  0.00    +0.023 HD
ENDBRANCH  65  88
BRANCH  73  92
ATOM     92  C   UNL     1       5.552  16.902  21.218  0.00  0.00    -0.026 C 
ATOM     93  H   UNL     1       4.725  17.624  21.151  0.00  0.00    +0.029 HD
ATOM     94  H   UNL     1       6.108  16.934  20.274  0.00  0.00    +0.029 HD
BRANCH  92  95
ATOM     95  C   UNL     1       6.457  17.321  22.385  0.00  0.00    -0.045 C 
ATOM     96  H   UNL     1       5.845  17.680  23.220  0.00  0.00    +0.027 HD
ATOM     97  H   UNL     1       7.081  18.165  22.062  0.00  0.00    +0.027 HD
BRANCH  95  98
ATOM     98  C   UNL     1       7.386  16.193  22.884  0.00  0.00    -0.025 C 
ATOM     99  H   UNL     1       7.127  15.282  22.338  0.00  0.00    +0.034 HD
BRANCH  98 100
ATOM    100  C   UNL     1       7.219  15.915  24.376  0.00  0.00    -0.059 C 
ATOM    101  H   UNL     1       8.185  15.743  24.864  0.00  0.00    +0.024 HD
ATOM    102  H   UNL     1       6.591  15.029  24.541  0.00  0.00    +0.024 HD
ATOM    103  H   UNL     1       6.730  16.755  24.879  0.00  0.00    +0.024 HD
ENDBRANCH  98 100
BRANCH  98 104
ATOM    104  C   UNL     1       8.819  16.602  22.603  0.00  0.00    -0.080 C 
ATOM    105  C   UNL     1       9.936  15.845  22.666  0.00  0.00    -0.048 C 
ATOM    106  H   UNL     1       8.915  17.636  22.273  0.00  0.00    +0.058 HD
BRANCH 105 107
ATOM    107  C   UNL     1       9.954  14.410  23.129  0.00  0.00    -0.041 C 
ATOM    108  H   UNL     1       9.071  13.878  22.759  0.00  0.00    +0.028 HD
ATOM    109  H   UNL     1       9.973  14.307  24.217  0.00  0.00    +0.028 HD
ATOM    110  H   UNL     1      10.845  13.891  22.764  0.00  0.00    +0.028 HD
ENDBRANCH 105 107
BRANCH 105 111
ATOM    111  C   UNL     1      11.272  16.418  22.239  0.00  0.00    +0.073 C 
ATOM    112  H   UNL     1      11.940  16.509  23.104  0.00  0.00    +0.064 HD
BRANCH 111 113
ATOM    113  C   UNL     1      11.135  17.789  21.591  0.00  0.00    -0.035 C 
ATOM    114  H   UNL     1      10.300  18.356  22.021  0.00  0.00    +0.026 HD
ATOM    115  H   UNL     1      12.048  18.382  21.697  0.00  0.00    +0.026 HD
ATOM    116  H   UNL     1      10.916  17.686  20.521  0.00  0.00    +0.026 HD
ENDBRANCH 111 113
BRANCH 111 117
ATOM    117  O   UNL     1      11.893  15.510  21.335  0.00  0.00    -0.388 OA
ATOM    118  H   UNL     1      12.825  15.435  21.597  0.00  0.00    +0.210 HD
ENDBRANCH 111 117
ENDBRANCH 105 111
ENDBRANCH  98 104
ENDBRANCH  95  98
ENDBRANCH  92  95
ENDBRANCH  73  92
ENDBRANCH  61  64
ENDBRANCH   1  61
TORSDOF 27
ENDMDL
MODEL 9
REMARK VINA RESULT:      -6.3      2.494      5.483
REMARK  Name = Bistramide A_conf2
REMARK  27 active torsions:
REMARK  status: ('A' for Active; 'I' for Inactive)
REMARK    1  A    between atoms: C_1  and  C_2
REMARK    2  A    between atoms: C_3  and  C_4
REMARK    3  A    between atoms: C_4  and  C_6
REMARK    4  A    between atoms: C_6  and  C_7
REMARK    5  A    between atoms: C_10  and  C_50
REMARK    6  A    between atoms: C_11  and  C_13
REMARK    7  A    between atoms: C_13  and  C_14
REMARK    8  A    between atoms: N_16  and  C_17
REMARK    9  A    between atoms: C_17  and  C_18
REMARK   10  A    between atoms: C_18  and  C_19
REMARK   11  A    between atoms: C_18  and  O_49
REMARK   12  A    between atoms: C_19  and  C_20
REMARK   13  A    between atoms: C_19  and  C_21
REMARK   14  A    between atoms: N_23  and  C_24
REMARK   15  A    between atoms: C_24  and  C_25
REMARK   16  A    between atoms: C_25  and  C_26
REMARK   17  A    between atoms: C_26  and  C_27
REMARK   18  A    between atoms: C_28  and  C_48
REMARK   19  A    between atoms: C_36  and  C_38
REMARK   20  A    between atoms: C_38  and  C_39
REMARK   21  A    between atoms: C_39  and  C_40
REMARK   22  A    between atoms: C_40  and  C_41
REMARK   23  A    between atoms: C_40  and  C_42
REMARK   24  A    between atoms: C_43  and  C_44
REMARK   25  A    between atoms: C_43  and  C_45
REMARK   26  A    between atoms: C_45  and  C_46
REMARK   27  A    between atoms: C_45  and  O_47
REMARK                            x       y       z     vdW  Elec       q    Type
REMARK                         _______ _______ _______ _____ _____    ______ ____
ROOT
ATOM      1  C   UNL     1       6.678  16.403  22.925  0.00  0.00    -0.035 C 
ATOM      2  H   UNL     1       6.114  15.707  23.553  0.00  0.00    +0.028 HD
ATOM      3  H   UNL     1       6.572  17.397  23.381  0.00  0.00    +0.028 HD
ENDROOT
BRANCH   1   4
ATOM      4  C   UNL     1       6.071  16.440  21.529  0.00  0.00    +0.012 C 
ATOM      5  H   UNL     1       5.717  17.454  21.292  0.00  0.00    +0.046 HD
ATOM      6  H   UNL     1       6.814  16.155  20.778  0.00  0.00    +0.046 HD
BRANCH   4   9
ATOM      7  C   UNL     1       4.820  14.578  20.485  0.00  0.00    +0.218 C 
ATOM      8  O   UNL     1       5.620  14.457  19.562  0.00  0.00    -0.275 OA
ATOM      9  N   UNL     1       4.924  15.559  21.449  0.00  0.00    -0.315 N 
ATOM     10  H   UNL     1       4.224  15.614  22.175  0.00  0.00    +0.149 HD
BRANCH   7  11
ATOM     11  C   UNL     1       3.563  13.716  20.617  0.00  0.00    +0.060 C 
ATOM     12  H   UNL     1       3.771  12.740  20.155  0.00  0.00    +0.042 HD
BRANCH  11  13
ATOM     13  C   UNL     1       3.322  13.509  22.114  0.00  0.00    -0.052 C 
ATOM     14  H   UNL     1       2.461  14.095  22.460  0.00  0.00    +0.024 HD
ATOM     15  H   UNL     1       3.109  12.459  22.340  0.00  0.00    +0.024 HD
ATOM     16  H   UNL     1       4.196  13.798  22.703  0.00  0.00    +0.024 HD
ENDBRANCH  11  13
BRANCH  11  17
ATOM     17  C   UNL     1       2.403  14.393  19.861  0.00  0.00    +0.081 C 
ATOM     18  H   UNL     1       1.749  14.952  20.546  0.00  0.00    +0.062 HD
BRANCH  17  19
ATOM     19  C   UNL     1       1.521  13.438  19.037  0.00  0.00    +0.038 C 
ATOM     20  H   UNL     1       1.976  13.244  18.058  0.00  0.00    +0.049 HD
ATOM     21  H   UNL     1       1.376  12.486  19.556  0.00  0.00    +0.049 HD
BRANCH  19  24
ATOM     22  C   UNL     1      -0.181  14.757  17.763  0.00  0.00    +0.216 C 
ATOM     23  O   UNL     1       0.612  15.099  16.892  0.00  0.00    -0.276 OA
ATOM     24  N   UNL     1       0.183  14.000  18.855  0.00  0.00    -0.313 N 
ATOM     25  H   UNL     1      -0.521  13.767  19.546  0.00  0.00    +0.149 HD
BRANCH  22  26
ATOM     26  C   UNL     1      -1.636  15.166  17.778  0.00  0.00    +0.050 C 
ATOM     27  H   UNL     1      -2.137  14.605  16.980  0.00  0.00    +0.038 HD
ATOM     28  H   UNL     1      -1.738  16.222  17.501  0.00  0.00    +0.038 HD
BRANCH  26  33
ATOM     29  C   UNL     1      -4.424  13.838  19.808  0.00  0.00    +0.066 C 
ATOM     30  C   UNL     1      -3.965  14.292  21.188  0.00  0.00    -0.026 C 
ATOM     31  C   UNL     1      -3.539  15.757  21.161  0.00  0.00    -0.046 C 
ATOM     32  C   UNL     1      -2.837  16.154  19.850  0.00  0.00    -0.017 C 
ATOM     33  C   UNL     1      -2.330  14.891  19.115  0.00  0.00    +0.070 C 
ATOM     34  O   UNL     1      -3.384  13.950  18.832  0.00  0.00    -0.372 OA
ATOM     35  H   UNL     1      -5.248  14.479  19.476  0.00  0.00    +0.060 HD
ATOM     36  H   UNL     1      -4.758  14.152  21.931  0.00  0.00    +0.029 HD
ATOM     37  H   UNL     1      -3.116  13.681  21.516  0.00  0.00    +0.029 HD
ATOM     38  H   UNL     1      -4.413  16.392  21.342  0.00  0.00    +0.027 HD
ATOM     39  H   UNL     1      -2.862  15.934  22.005  0.00  0.00    +0.027 HD
ATOM     40  H   UNL     1      -1.978  16.780  20.125  0.00  0.00    +0.032 HD
ATOM     41  H   UNL     1      -1.612  14.376  19.764  0.00  0.00    +0.060 HD
BRANCH  32  42
ATOM     42  C   UNL     1      -3.751  17.034  18.987  0.00  0.00    -0.060 C 
ATOM     43  H   UNL     1      -4.011  17.973  19.480  0.00  0.00    +0.023 HD
ATOM     44  H   UNL     1      -4.678  16.513  18.746  0.00  0.00    +0.023 HD
ATOM     45  H   UNL     1      -3.265  17.270  18.032  0.00  0.00    +0.023 HD
ENDBRANCH  32  42
BRANCH  29  46
ATOM     46  C   UNL     1      -4.892  12.385  19.834  0.00  0.00    +0.036 C 
ATOM     47  H   UNL     1      -5.617  12.209  20.635  0.00  0.00    +0.037 HD
ATOM     48  H   UNL     1      -4.045  11.713  20.001  0.00  0.00    +0.037 HD
BRANCH  46  49
ATOM     49  C   UNL     1      -5.584  12.036  18.533  0.00  0.00    +0.158 C 
ATOM     50  O   UNL     1      -6.393  12.799  18.006  0.00  0.00    -0.293 OA
BRANCH  49  52
ATOM     51  C   UNL     1      -4.887  10.605  16.645  0.00  0.00    -0.084 C 
ATOM     52  C   UNL     1      -5.261  10.707  17.929  0.00  0.00    -0.023 C 
ATOM     53  H   UNL     1      -4.809  11.502  16.031  0.00  0.00    +0.057 HD
ATOM     54  H   UNL     1      -5.342   9.836  18.569  0.00  0.00    +0.065 HD
BRANCH  51  55
ATOM     55  C   UNL     1      -4.577   9.310  15.973  0.00  0.00    -0.046 C 
ATOM     56  H   UNL     1      -5.447   8.900  15.442  0.00  0.00    +0.027 HD
ATOM     57  H   UNL     1      -4.240   8.565  16.707  0.00  0.00    +0.027 HD
ATOM     58  H   UNL     1      -3.772   9.453  15.242  0.00  0.00    +0.027 HD
ENDBRANCH  51  55
ENDBRANCH  49  52
ENDBRANCH  46  49
ENDBRANCH  29  46
ENDBRANCH  26  33
ENDBRANCH  22  26
ENDBRANCH  19  24
ENDBRANCH  17  19
BRANCH  17  59
ATOM     59  O   UNL     1       2.987  15.362  18.971  0.00  0.00    -0.390 OA
ATOM     60  H   UNL     1       3.862  15.591  19.333  0.00  0.00    +0.210 HD
ENDBRANCH  17  59
ENDBRANCH  11  17
ENDBRANCH   7  11
ENDBRANCH   4   9
ENDBRANCH   1   4
BRANCH   1  61
ATOM     61  C   UNL     1       8.157  16.011  22.898  0.00  0.00    -0.025 C 
ATOM     62  H   UNL     1       8.302  15.167  23.585  0.00  0.00    +0.029 HD
ATOM     63  H   UNL     1       8.422  15.672  21.890  0.00  0.00    +0.029 HD
BRANCH  61  64
ATOM     64  C   UNL     1       9.066  17.181  23.316  0.00  0.00    +0.065 C 
ATOM     65  C   UNL     1      10.562  16.811  23.215  0.00  0.00    -0.017 C 
ATOM     66  C   UNL     1      11.422  17.699  24.134  0.00  0.00    -0.043 C 
ATOM     67  C   UNL     1      10.712  19.013  24.436  0.00  0.00    +0.002 C 
ATOM     68  C   UNL     1       9.333  18.769  25.089  0.00  0.00    +0.171 C 
ATOM     69  O   UNL     1       8.776  17.512  24.676  0.00  0.00    -0.345 OA
ATOM     70  C   UNL     1       9.461  18.727  26.620  0.00  0.00    +0.002 C 
ATOM     71  C   UNL     1       8.102  18.520  27.294  0.00  0.00    -0.046 C 
ATOM     72  C   UNL     1       6.957  19.092  26.463  0.00  0.00    -0.026 C 
ATOM     73  C   UNL     1       7.447  20.237  25.579  0.00  0.00    +0.062 C 
ATOM     74  O   UNL     1       8.482  19.842  24.669  0.00  0.00    -0.345 OA
ATOM     75  H   UNL     1       8.832  18.046  22.678  0.00  0.00    +0.060 HD
ATOM     76  H   UNL     1      10.704  15.777  23.558  0.00  0.00    +0.032 HD
ATOM     77  H   UNL     1      12.408  17.895  23.695  0.00  0.00    +0.027 HD
ATOM     78  H   UNL     1      11.604  17.167  25.077  0.00  0.00    +0.027 HD
ATOM     79  H   UNL     1      10.589  19.568  23.495  0.00  0.00    +0.032 HD
ATOM     80  H   UNL     1      11.340  19.655  25.071  0.00  0.00    +0.032 HD
ATOM     81  H   UNL     1       9.880  19.674  26.978  0.00  0.00    +0.032 HD
ATOM     82  H   UNL     1      10.139  17.930  26.944  0.00  0.00    +0.032 HD
ATOM     83  H   UNL     1       7.925  17.454  27.467  0.00  0.00    +0.027 HD
ATOM     84  H   UNL     1       8.123  18.990  28.284  0.00  0.00    +0.027 HD
ATOM     85  H   UNL     1       6.553  18.282  25.846  0.00  0.00    +0.029 HD
ATOM     86  H   UNL     1       6.149  19.421  27.127  0.00  0.00    +0.029 HD
ATOM     87  H   UNL     1       7.872  21.015  26.223  0.00  0.00    +0.060 HD
BRANCH  65  88
ATOM     88  C   UNL     1      11.059  16.878  21.762  0.00  0.00    -0.060 C 
ATOM     89  H   UNL     1      11.909  17.561  21.680  0.00  0.00    +0.023 HD
ATOM     90  H   UNL     1      10.267  17.236  21.095  0.00  0.00    +0.023 HD
ATOM     91  H   UNL     1      11.386  15.898  21.411  0.00  0.00    +0.023 HD
ENDBRANCH  65  88
BRANCH  73  92
ATOM     92  C   UNL     1       6.313  20.896  24.771  0.00  0.00    -0.026 C 
ATOM     93  H   UNL     1       6.686  21.852  24.375  0.00  0.00    +0.029 HD
ATOM     94  H   UNL     1       5.474  21.111  25.443  0.00  0.00    +0.029 HD
BRANCH  92  95
ATOM     95  C   UNL     1       5.842  20.041  23.586  0.00  0.00    -0.045 C 
ATOM     96  H   UNL     1       6.354  19.073  23.600  0.00  0.00    +0.027 HD
ATOM     97  H   UNL     1       6.131  20.541  22.653  0.00  0.00    +0.027 HD
BRANCH  95  98
ATOM     98  C   UNL     1       4.315  19.808  23.560  0.00  0.00    -0.025 C 
ATOM     99  H   UNL     1       3.829  20.755  23.806  0.00  0.00    +0.034 HD
BRANCH  98 100
ATOM    100  C   UNL     1       3.866  18.765  24.581  0.00  0.00    -0.059 C 
ATOM    101  H   UNL     1       4.362  17.802  24.416  0.00  0.00    +0.024 HD
ATOM    102  H   UNL     1       2.781  18.605  24.524  0.00  0.00    +0.024 HD
ATOM    103  H   UNL     1       4.091  19.093  25.601  0.00  0.00    +0.024 HD
ENDBRANCH  98 100
BRANCH  98 104
ATOM    104  C   UNL     1       3.932  19.349  22.167  0.00  0.00    -0.080 C 
ATOM    105  C   UNL     1       2.891  19.753  21.407  0.00  0.00    -0.048 C 
ATOM    106  H   UNL     1       4.632  18.630  21.742  0.00  0.00    +0.058 HD
BRANCH 105 107
ATOM    107  C   UNL     1       1.834  20.721  21.875  0.00  0.00    -0.041 C 
ATOM    108  H   UNL     1       1.198  21.027  21.037  0.00  0.00    +0.028 HD
ATOM    109  H   UNL     1       2.246  21.627  22.327  0.00  0.00    +0.028 HD
ATOM    110  H   UNL     1       1.198  20.268  22.640  0.00  0.00    +0.028 HD
ENDBRANCH 105 107
BRANCH 105 111
ATOM    111  C   UNL     1       2.741  19.248  19.986  0.00  0.00    +0.073 C 
ATOM    112  H   UNL     1       3.297  19.892  19.294  0.00  0.00    +0.064 HD
BRANCH 111 113
ATOM    113  C   UNL     1       1.287  19.201  19.536  0.00  0.00    -0.035 C 
ATOM    114  H   UNL     1       0.651  18.706  20.282  0.00  0.00    +0.026 HD
ATOM    115  H   UNL     1       0.887  20.202  19.349  0.00  0.00    +0.026 HD
ATOM    116  H   UNL     1       1.190  18.614  18.615  0.00  0.00    +0.026 HD
ENDBRANCH 111 113
BRANCH 111 117
ATOM    117  O   UNL     1       3.322  17.951  19.896  0.00  0.00    -0.388 OA
ATOM    118  H   UNL     1       4.087  18.019  19.302  0.00  0.00    +0.210 HD
ENDBRANCH 111 117
ENDBRANCH 105 111
ENDBRANCH  98 104
ENDBRANCH  95  98
ENDBRANCH  92  95
ENDBRANCH  73  92
ENDBRANCH  61  64
ENDBRANCH   1  61
TORSDOF 27
ENDMDL
MODEL 10
REMARK VINA RESULT:      -6.3      2.876      5.959
REMARK  Name = Bistramide A_conf2
REMARK  27 active torsions:
REMARK  status: ('A' for Active; 'I' for Inactive)
REMARK    1  A    between atoms: C_1  and  C_2
REMARK    2  A    between atoms: C_3  and  C_4
REMARK    3  A    between atoms: C_4  and  C_6
REMARK    4  A    between atoms: C_6  and  C_7
REMARK    5  A    between atoms: C_10  and  C_50
REMARK    6  A    between atoms: C_11  and  C_13
REMARK    7  A    between atoms: C_13  and  C_14
REMARK    8  A    between atoms: N_16  and  C_17
REMARK    9  A    between atoms: C_17  and  C_18
REMARK   10  A    between atoms: C_18  and  C_19
REMARK   11  A    between atoms: C_18  and  O_49
REMARK   12  A    between atoms: C_19  and  C_20
REMARK   13  A    between atoms: C_19  and  C_21
REMARK   14  A    between atoms: N_23  and  C_24
REMARK   15  A    between atoms: C_24  and  C_25
REMARK   16  A    between atoms: C_25  and  C_26
REMARK   17  A    between atoms: C_26  and  C_27
REMARK   18  A    between atoms: C_28  and  C_48
REMARK   19  A    between atoms: C_36  and  C_38
REMARK   20  A    between atoms: C_38  and  C_39
REMARK   21  A    between atoms: C_39  and  C_40
REMARK   22  A    between atoms: C_40  and  C_41
REMARK   23  A    between atoms: C_40  and  C_42
REMARK   24  A    between atoms: C_43  and  C_44
REMARK   25  A    between atoms: C_43  and  C_45
REMARK   26  A    between atoms: C_45  and  C_46
REMARK   27  A    between atoms: C_45  and  O_47
REMARK                            x       y       z     vdW  Elec       q    Type
REMARK                         _______ _______ _______ _____ _____    ______ ____
ROOT
ATOM      1  C   UNL     1       6.318  16.167  26.100  0.00  0.00    -0.035 C 
ATOM      2  H   UNL     1       6.280  15.969  27.176  0.00  0.00    +0.028 HD
ATOM      3  H   UNL     1       5.283  16.121  25.734  0.00  0.00    +0.028 HD
ENDROOT
BRANCH   1   4
ATOM      4  C   UNL     1       7.129  15.080  25.408  0.00  0.00    +0.012 C 
ATOM      5  H   UNL     1       7.356  14.266  26.111  0.00  0.00    +0.046 HD
ATOM      6  H   UNL     1       6.569  14.658  24.567  0.00  0.00    +0.046 HD
BRANCH   4   9
ATOM      7  C   UNL     1       9.441  14.787  24.577  0.00  0.00    +0.218 C 
ATOM      8  O   UNL     1       9.423  13.569  24.729  0.00  0.00    -0.275 OA
ATOM      9  N   UNL     1       8.395  15.608  24.943  0.00  0.00    -0.315 N 
ATOM     10  H   UNL     1       8.479  16.606  24.805  0.00  0.00    +0.149 HD
BRANCH   7  11
ATOM     11  C   UNL     1      10.664  15.544  24.054  0.00  0.00    +0.060 C 
ATOM     12  H   UNL     1      10.697  16.523  24.556  0.00  0.00    +0.042 HD
BRANCH  11  13
ATOM     13  C   UNL     1      11.896  14.737  24.470  0.00  0.00    -0.052 C 
ATOM     14  H   UNL     1      11.716  13.659  24.362  0.00  0.00    +0.024 HD
ATOM     15  H   UNL     1      12.761  14.983  23.845  0.00  0.00    +0.024 HD
ATOM     16  H   UNL     1      12.175  14.939  25.507  0.00  0.00    +0.024 HD
ENDBRANCH  11  13
BRANCH  11  17
ATOM     17  C   UNL     1      10.513  15.763  22.536  0.00  0.00    +0.081 C 
ATOM     18  H   UNL     1      11.352  15.320  21.981  0.00  0.00    +0.062 HD
BRANCH  17  19
ATOM     19  C   UNL     1      10.380  17.234  22.103  0.00  0.00    +0.038 C 
ATOM     20  H   UNL     1      10.895  17.891  22.813  0.00  0.00    +0.049 HD
ATOM     21  H   UNL     1      10.799  17.392  21.104  0.00  0.00    +0.049 HD
BRANCH  19  24
ATOM     22  C   UNL     1       8.533  18.733  21.328  0.00  0.00    +0.216 C 
ATOM     23  O   UNL     1       9.295  19.547  20.817  0.00  0.00    -0.276 OA
ATOM     24  N   UNL     1       8.972  17.618  22.008  0.00  0.00    -0.313 N 
ATOM     25  H   UNL     1       8.287  16.994  22.420  0.00  0.00    +0.149 HD
BRANCH  22  26
ATOM     26  C   UNL     1       7.028  18.876  21.323  0.00  0.00    +0.050 C 
ATOM     27  H   UNL     1       6.730  19.110  20.294  0.00  0.00    +0.038 HD
ATOM     28  H   UNL     1       6.726  19.743  21.920  0.00  0.00    +0.038 HD
BRANCH  26  33
ATOM     29  C   UNL     1       4.961  15.870  20.730  0.00  0.00    +0.066 C 
ATOM     30  C   UNL     1       4.794  15.395  22.167  0.00  0.00    -0.026 C 
ATOM     31  C   UNL     1       4.391  16.553  23.075  0.00  0.00    -0.046 C 
ATOM     32  C   UNL     1       5.059  17.883  22.683  0.00  0.00    -0.017 C 
ATOM     33  C   UNL     1       6.298  17.616  21.796  0.00  0.00    +0.070 C 
ATOM     34  O   UNL     1       5.981  16.867  20.607  0.00  0.00    -0.372 OA
ATOM     35  H   UNL     1       4.024  16.324  20.391  0.00  0.00    +0.060 HD
ATOM     36  H   UNL     1       4.045  14.598  22.233  0.00  0.00    +0.029 HD
ATOM     37  H   UNL     1       5.737  14.971  22.530  0.00  0.00    +0.029 HD
ATOM     38  H   UNL     1       3.300  16.651  23.075  0.00  0.00    +0.027 HD
ATOM     39  H   UNL     1       4.667  16.297  24.105  0.00  0.00    +0.027 HD
ATOM     40  H   UNL     1       5.381  18.367  23.615  0.00  0.00    +0.032 HD
ATOM     41  H   UNL     1       7.011  17.012  22.371  0.00  0.00    +0.060 HD
BRANCH  32  42
ATOM     42  C   UNL     1       4.043  18.834  22.035  0.00  0.00    -0.060 C 
ATOM     43  H   UNL     1       3.183  19.026  22.681  0.00  0.00    +0.023 HD
ATOM     44  H   UNL     1       3.672  18.426  21.095  0.00  0.00    +0.023 HD
ATOM     45  H   UNL     1       4.515  19.795  21.796  0.00  0.00    +0.023 HD
ENDBRANCH  32  42
BRANCH  29  46
ATOM     46  C   UNL     1       5.323  14.709  19.806  0.00  0.00    +0.036 C 
ATOM     47  H   UNL     1       6.120  14.089  20.230  0.00  0.00    +0.037 HD
ATOM     48  H   UNL     1       5.675  15.084  18.839  0.00  0.00    +0.037 HD
BRANCH  46  49
ATOM     49  C   UNL     1       4.125  13.805  19.607  0.00  0.00    +0.158 C 
ATOM     50  O   UNL     1       4.177  12.600  19.848  0.00  0.00    -0.293 OA
BRANCH  49  52
ATOM     51  C   UNL     1       1.915  13.698  18.510  0.00  0.00    -0.084 C 
ATOM     52  C   UNL     1       2.879  14.439  19.077  0.00  0.00    -0.023 C 
ATOM     53  H   UNL     1       2.034  12.617  18.439  0.00  0.00    +0.057 HD
ATOM     54  H   UNL     1       2.788  15.515  19.170  0.00  0.00    +0.065 HD
BRANCH  51  55
ATOM     55  C   UNL     1       0.661  14.266  17.938  0.00  0.00    -0.046 C 
ATOM     56  H   UNL     1       0.852  14.874  17.043  0.00  0.00    +0.027 HD
ATOM     57  H   UNL     1       0.150  14.897  18.678  0.00  0.00    +0.027 HD
ATOM     58  H   UNL     1      -0.021  13.455  17.656  0.00  0.00    +0.027 HD
ENDBRANCH  51  55
ENDBRANCH  49  52
ENDBRANCH  46  49
ENDBRANCH  29  46
ENDBRANCH  26  33
ENDBRANCH  22  26
ENDBRANCH  19  24
ENDBRANCH  17  19
BRANCH  17  59
ATOM     59  O   UNL     1       9.330  15.054  22.123  0.00  0.00    -0.390 OA
ATOM     60  H   UNL     1       9.368  14.975  21.154  0.00  0.00    +0.210 HD
ENDBRANCH  17  59
ENDBRANCH  11  17
ENDBRANCH   7  11
ENDBRANCH   4   9
ENDBRANCH   1   4
BRANCH   1  61
ATOM     61  C   UNL     1       6.888  17.563  25.840  0.00  0.00    -0.025 C 
ATOM     62  H   UNL     1       7.934  17.454  25.523  0.00  0.00    +0.029 HD
ATOM     63  H   UNL     1       6.336  18.031  25.017  0.00  0.00    +0.029 HD
BRANCH  61  64
ATOM     64  C   UNL     1       6.818  18.452  27.095  0.00  0.00    +0.065 C 
ATOM     65  C   UNL     1       8.212  18.676  27.719  0.00  0.00    -0.017 C 
ATOM     66  C   UNL     1       8.106  19.041  29.211  0.00  0.00    -0.043 C 
ATOM     67  C   UNL     1       6.737  19.630  29.529  0.00  0.00    +0.002 C 
ATOM     68  C   UNL     1       5.603  18.652  29.149  0.00  0.00    +0.171 C 
ATOM     69  O   UNL     1       5.992  17.799  28.062  0.00  0.00    -0.345 OA
ATOM     70  C   UNL     1       5.255  17.742  30.338  0.00  0.00    +0.002 C 
ATOM     71  C   UNL     1       4.109  16.786  29.998  0.00  0.00    -0.046 C 
ATOM     72  C   UNL     1       3.161  17.372  28.957  0.00  0.00    -0.026 C 
ATOM     73  C   UNL     1       3.180  18.898  29.005  0.00  0.00    +0.062 C 
ATOM     74  O   UNL     1       4.479  19.453  28.763  0.00  0.00    -0.345 OA
ATOM     75  H   UNL     1       6.355  19.409  26.815  0.00  0.00    +0.060 HD
ATOM     76  H   UNL     1       8.789  17.742  27.666  0.00  0.00    +0.032 HD
ATOM     77  H   UNL     1       8.897  19.739  29.512  0.00  0.00    +0.027 HD
ATOM     78  H   UNL     1       8.251  18.133  29.813  0.00  0.00    +0.027 HD
ATOM     79  H   UNL     1       6.624  20.571  28.971  0.00  0.00    +0.032 HD
ATOM     80  H   UNL     1       6.674  19.913  30.590  0.00  0.00    +0.032 HD
ATOM     81  H   UNL     1       4.946  18.357  31.191  0.00  0.00    +0.032 HD
ATOM     82  H   UNL     1       6.121  17.154  30.659  0.00  0.00    +0.032 HD
ATOM     83  H   UNL     1       4.508  15.835  29.629  0.00  0.00    +0.027 HD
ATOM     84  H   UNL     1       3.562  16.548  30.918  0.00  0.00    +0.027 HD
ATOM     85  H   UNL     1       3.485  17.019  27.972  0.00  0.00    +0.029 HD
ATOM     86  H   UNL     1       2.149  16.982  29.118  0.00  0.00    +0.029 HD
ATOM     87  H   UNL     1       2.882  19.218  30.009  0.00  0.00    +0.060 HD
BRANCH  65  88
ATOM     88  C   UNL     1       9.006  19.742  26.947  0.00  0.00    -0.060 C 
ATOM     89  H   UNL     1      10.057  19.449  26.861  0.00  0.00    +0.023 HD
ATOM     90  H   UNL     1       8.962  20.709  27.459  0.00  0.00    +0.023 HD
ATOM     91  H   UNL     1       8.615  19.871  25.936  0.00  0.00    +0.023 HD
ENDBRANCH  65  88
BRANCH  73  92
ATOM     92  C   UNL     1       2.186  19.539  28.018  0.00  0.00    -0.026 C 
ATOM     93  H   UNL     1       2.759  20.139  27.296  0.00  0.00    +0.029 HD
ATOM     94  H   UNL     1       1.522  20.216  28.570  0.00  0.00    +0.029 HD
BRANCH  92  95
ATOM     95  C   UNL     1       1.363  18.507  27.234  0.00  0.00    -0.045 C 
ATOM     96  H   UNL     1       1.758  17.502  27.416  0.00  0.00    +0.027 HD
ATOM     97  H   UNL     1       1.479  18.705  26.160  0.00  0.00    +0.027 HD
BRANCH  95  98
ATOM     98  C   UNL     1      -0.144  18.530  27.573  0.00  0.00    -0.025 C 
ATOM     99  H   UNL     1      -0.607  17.667  27.087  0.00  0.00    +0.034 HD
BRANCH  98 100
ATOM    100  C   UNL     1      -0.838  19.791  27.063  0.00  0.00    -0.059 C 
ATOM    101  H   UNL     1      -1.478  19.576  26.200  0.00  0.00    +0.024 HD
ATOM    102  H   UNL     1      -0.101  20.548  26.762  0.00  0.00    +0.024 HD
ATOM    103  H   UNL     1      -1.461  20.238  27.844  0.00  0.00    +0.024 HD
ENDBRANCH  98 100
BRANCH  98 104
ATOM    104  C   UNL     1      -0.290  18.445  29.079  0.00  0.00    -0.080 C 
ATOM    105  C   UNL     1      -0.364  17.341  29.855  0.00  0.00    -0.048 C 
ATOM    106  H   UNL     1      -0.294  19.420  29.567  0.00  0.00    +0.058 HD
BRANCH 105 107
ATOM    107  C   UNL     1      -0.395  15.935  29.314  0.00  0.00    -0.041 C 
ATOM    108  H   UNL     1       0.485  15.376  29.651  0.00  0.00    +0.028 HD
ATOM    109  H   UNL     1      -0.418  15.891  28.222  0.00  0.00    +0.028 HD
ATOM    110  H   UNL     1      -1.288  15.402  29.653  0.00  0.00    +0.028 HD
ENDBRANCH 105 107
BRANCH 105 111
ATOM    111  C   UNL     1      -0.401  17.470  31.364  0.00  0.00    +0.073 C 
ATOM    112  H   UNL     1      -1.142  18.221  31.663  0.00  0.00    +0.064 HD
BRANCH 111 113
ATOM    113  C   UNL     1       0.949  17.868  31.946  0.00  0.00    -0.035 C 
ATOM    114  H   UNL     1       0.904  18.852  32.429  0.00  0.00    +0.026 HD
ATOM    115  H   UNL     1       1.307  17.139  32.678  0.00  0.00    +0.026 HD
ATOM    116  H   UNL     1       1.699  17.952  31.150  0.00  0.00    +0.026 HD
ENDBRANCH 111 113
BRANCH 111 117
ATOM    117  O   UNL     1      -0.825  16.229  31.920  0.00  0.00    -0.388 OA
ATOM    118  H   UNL     1      -0.029  15.757  32.211  0.00  0.00    +0.210 HD
ENDBRANCH 111 117
ENDBRANCH 105 111
ENDBRANCH  98 104
ENDBRANCH  95  98
ENDBRANCH  92  95
ENDBRANCH  73  92
ENDBRANCH  61  64
ENDBRANCH   1  61
TORSDOF 27
ENDMDL
