MODEL 1
REMARK VINA RESULT:      -7.1      0.000      0.000
REMARK  Name = Cytochalasin D_conf1
REMARK  10 active torsions:
REMARK  status: ('A' for Active; 'I' for Inactive)
REMARK    1  A    between atoms: C_1  and  C_2
REMARK    2  A    between atoms: C_7  and  O_37
REMARK    3  A    between atoms: C_10  and  C_36
REMARK    4  A    between atoms: C_13  and  O_21
REMARK    5  A    between atoms: C_16  and  C_19
REMARK    6  A    between atoms: C_16  and  O_20
REMARK    7  A    between atoms: O_21  and  C_22
REMARK    8  A    between atoms: C_22  and  C_24
REMARK    9  A    between atoms: C_28  and  C_29
REMARK   10  A    between atoms: C_29  and  C_30
REMARK                            x       y       z     vdW  Elec       q    Type
REMARK                         _______ _______ _______ _____ _____    ______ ____
ROOT
ATOM      1  C   UNL     1      10.667  16.659  25.771  0.00  0.00    +0.021 C 
ATOM      2  C   UNL     1      10.346  18.152  25.584  0.00  0.00    -0.025 C 
ATOM      3  C   UNL     1       8.873  18.405  25.387  0.00  0.00    -0.087 C 
ATOM      4  C   UNL     1       8.325  18.776  24.218  0.00  0.00    -0.081 C 
ATOM      5  C   UNL     1       6.831  19.026  24.007  0.00  0.00    +0.025 C 
ATOM      6  C   UNL     1       6.610  20.527  23.665  0.00  0.00    +0.084 C 
ATOM      7  C   UNL     1       5.168  20.873  23.353  0.00  0.00    -0.045 C 
ATOM      8  C   UNL     1       4.847  22.102  22.908  0.00  0.00    -0.097 C 
ATOM      9  C   UNL     1       4.181  19.741  23.565  0.00  0.00    -0.015 C 
ATOM     10  C   UNL     1       4.608  18.517  22.716  0.00  0.00    +0.002 C 
ATOM     11  C   UNL     1       6.116  18.076  22.970  0.00  0.00    +0.101 C 
ATOM     12  C   UNL     1       6.130  16.570  23.411  0.00  0.00    +0.136 C 
ATOM     13  C   UNL     1       7.467  15.865  23.301  0.00  0.00    -0.044 C 
ATOM     14  C   UNL     1       8.218  15.386  24.311  0.00  0.00    -0.046 C 
ATOM     15  C   UNL     1       9.604  14.809  24.188  0.00  0.00    +0.139 C 
ATOM     16  C   UNL     1      10.646  15.939  24.422  0.00  0.00    +0.171 C 
ATOM     17  O   UNL     1      11.437  16.247  23.522  0.00  0.00    -0.294 OA
ATOM     18  C   UNL     1       6.744  18.254  21.590  0.00  0.00    +0.224 C 
ATOM     19  O   UNL     1       7.917  18.113  21.285  0.00  0.00    -0.275 OA
ATOM     20  N   UNL     1       5.807  18.649  20.681  0.00  0.00    -0.311 N 
ATOM     21  C   UNL     1       4.478  18.767  21.193  0.00  0.00    +0.032 C 
ATOM     22  H   UNL     1       9.936  16.204  26.448  0.00  0.00    +0.038 HD
ATOM     23  H   UNL     1      10.920  18.568  24.747  0.00  0.00    +0.031 HD
ATOM     24  H   UNL     1      10.653  18.713  26.476  0.00  0.00    +0.031 HD
ATOM     25  H   UNL     1       8.238  18.270  26.261  0.00  0.00    +0.057 HD
ATOM     26  H   UNL     1       8.974  18.910  23.352  0.00  0.00    +0.057 HD
ATOM     27  H   UNL     1       6.360  18.862  24.987  0.00  0.00    +0.038 HD
ATOM     28  H   UNL     1       7.244  20.825  22.820  0.00  0.00    +0.065 HD
ATOM     29  H   UNL     1       5.613  22.864  22.790  0.00  0.00    +0.054 HD
ATOM     30  H   UNL     1       3.832  22.401  22.673  0.00  0.00    +0.054 HD
ATOM     31  H   UNL     1       4.248  19.454  24.624  0.00  0.00    +0.035 HD
ATOM     32  H   UNL     1       3.928  17.708  22.997  0.00  0.00    +0.034 HD
ATOM     33  H   UNL     1       5.444  15.992  22.784  0.00  0.00    +0.079 HD
ATOM     34  H   UNL     1       7.848  15.766  22.285  0.00  0.00    +0.061 HD
ATOM     35  H   UNL     1       7.846  15.484  25.329  0.00  0.00    +0.060 HD
ATOM     36  H   UNL     1       6.083  18.848  19.727  0.00  0.00    +0.149 HD
ATOM     37  H   UNL     1       4.185  19.801  20.987  0.00  0.00    +0.050 HD
ENDROOT
BRANCH   1  38
ATOM     38  C   UNL     1      12.054  16.476  26.389  0.00  0.00    -0.055 C 
ATOM     39  H   UNL     1      12.158  15.491  26.858  0.00  0.00    +0.024 HD
ATOM     40  H   UNL     1      12.240  17.231  27.159  0.00  0.00    +0.024 HD
ATOM     41  H   UNL     1      12.835  16.572  25.627  0.00  0.00    +0.024 HD
ENDBRANCH   1  38
BRANCH  15  42
ATOM     42  C   UNL     1       9.830  13.647  25.150  0.00  0.00    -0.025 C 
ATOM     43  H   UNL     1      10.857  13.266  25.116  0.00  0.00    +0.026 HD
ATOM     44  H   UNL     1       9.610  13.943  26.183  0.00  0.00    +0.026 HD
ATOM     45  H   UNL     1       9.158  12.814  24.913  0.00  0.00    +0.026 HD
ENDBRANCH  15  42
BRANCH   9  46
ATOM     46  C   UNL     1       2.699  20.084  23.352  0.00  0.00    -0.058 C 
ATOM     47  H   UNL     1       2.456  20.081  22.284  0.00  0.00    +0.024 HD
ATOM     48  H   UNL     1       2.056  19.338  23.834  0.00  0.00    +0.024 HD
ATOM     49  H   UNL     1       2.429  21.067  23.751  0.00  0.00    +0.024 HD
ENDBRANCH   9  46
BRANCH  21  50
ATOM     50  C   UNL     1       3.461  17.872  20.451  0.00  0.00    -0.009 C 
ATOM     51  H   UNL     1       2.466  18.039  20.883  0.00  0.00    +0.033 HD
ATOM     52  H   UNL     1       3.386  18.216  19.410  0.00  0.00    +0.033 HD
BRANCH  50  53
ATOM     53  C   UNL     1       3.751  16.392  20.413  0.00  0.00    -0.046 A 
ATOM     54  C   UNL     1       4.621  15.863  19.451  0.00  0.00    -0.059 A 
ATOM     55  C   UNL     1       4.880  14.492  19.402  0.00  0.00    -0.062 A 
ATOM     56  C   UNL     1       4.281  13.633  20.320  0.00  0.00    -0.062 A 
ATOM     57  C   UNL     1       3.428  14.147  21.293  0.00  0.00    -0.062 A 
ATOM     58  C   UNL     1       3.170  15.518  21.343  0.00  0.00    -0.059 A 
ATOM     59  H   UNL     1       5.089  16.509  18.710  0.00  0.00    +0.062 HD
ATOM     60  H   UNL     1       5.539  14.096  18.634  0.00  0.00    +0.062 HD
ATOM     61  H   UNL     1       4.477  12.566  20.274  0.00  0.00    +0.062 HD
ATOM     62  H   UNL     1       2.960  13.479  22.011  0.00  0.00    +0.062 HD
ATOM     63  H   UNL     1       2.504  15.894  22.116  0.00  0.00    +0.062 HD
ENDBRANCH  50  53
ENDBRANCH  21  50
BRANCH  15  64
ATOM     64  O   UNL     1       9.781  14.282  22.869  0.00  0.00    -0.377 OA
ATOM     65  H   UNL     1       9.008  14.594  22.355  0.00  0.00    +0.211 HD
ENDBRANCH  15  64
BRANCH   6  66
ATOM     66  O   UNL     1       6.976  21.330  24.792  0.00  0.00    -0.387 OA
ATOM     67  H   UNL     1       6.158  21.745  25.116  0.00  0.00    +0.210 HD
ENDBRANCH   6  66
BRANCH  12  68
ATOM     68  O   UNL     1       5.715  16.506  24.803  0.00  0.00    -0.456 OA
BRANCH  68  69
ATOM     69  C   UNL     1       4.506  15.979  25.113  0.00  0.00    +0.305 C 
ATOM     70  O   UNL     1       4.034  14.943  24.672  0.00  0.00    -0.251 OA
BRANCH  69  71
ATOM     71  C   UNL     1       3.785  16.892  26.058  0.00  0.00    +0.033 C 
ATOM     72  H   UNL     1       3.492  16.336  26.952  0.00  0.00    +0.034 HD
ATOM     73  H   UNL     1       4.449  17.713  26.346  0.00  0.00    +0.034 HD
ATOM     74  H   UNL     1       2.908  17.321  25.566  0.00  0.00    +0.034 HD
ENDBRANCH  69  71
ENDBRANCH  68  69
ENDBRANCH  12  68
TORSDOF 10
ENDMDL
MODEL 2
REMARK VINA RESULT:      -6.6      2.537      6.832
REMARK  Name = Cytochalasin D_conf1
REMARK  10 active torsions:
REMARK  status: ('A' for Active; 'I' for Inactive)
REMARK    1  A    between atoms: C_1  and  C_2
REMARK    2  A    between atoms: C_7  and  O_37
REMARK    3  A    between atoms: C_10  and  C_36
REMARK    4  A    between atoms: C_13  and  O_21
REMARK    5  A    between atoms: C_16  and  C_19
REMARK    6  A    between atoms: C_16  and  O_20
REMARK    7  A    between atoms: O_21  and  C_22
REMARK    8  A    between atoms: C_22  and  C_24
REMARK    9  A    between atoms: C_28  and  C_29
REMARK   10  A    between atoms: C_29  and  C_30
REMARK                            x       y       z     vdW  Elec       q    Type
REMARK                         _______ _______ _______ _____ _____    ______ ____
ROOT
ATOM      1  C   UNL     1       2.922  20.512  20.555  0.00  0.00    +0.021 C 
ATOM      2  C   UNL     1       2.587  20.411  22.054  0.00  0.00    -0.025 C 
ATOM      3  C   UNL     1       3.813  20.215  22.908  0.00  0.00    -0.087 C 
ATOM      4  C   UNL     1       4.118  19.065  23.531  0.00  0.00    -0.081 C 
ATOM      5  C   UNL     1       5.366  18.855  24.391  0.00  0.00    +0.025 C 
ATOM      6  C   UNL     1       4.930  18.600  25.863  0.00  0.00    +0.084 C 
ATOM      7  C   UNL     1       6.087  18.296  26.793  0.00  0.00    -0.045 C 
ATOM      8  C   UNL     1       5.852  17.921  28.065  0.00  0.00    -0.097 C 
ATOM      9  C   UNL     1       7.461  18.432  26.168  0.00  0.00    -0.015 C 
ATOM     10  C   UNL     1       7.555  17.516  24.921  0.00  0.00    +0.002 C 
ATOM     11  C   UNL     1       6.376  17.758  23.879  0.00  0.00    +0.101 C 
ATOM     12  C   UNL     1       7.005  18.110  22.485  0.00  0.00    +0.136 C 
ATOM     13  C   UNL     1       6.080  17.971  21.292  0.00  0.00    -0.044 C 
ATOM     14  C   UNL     1       5.630  18.958  20.495  0.00  0.00    -0.046 C 
ATOM     15  C   UNL     1       4.606  18.814  19.399  0.00  0.00    +0.139 C 
ATOM     16  C   UNL     1       3.197  19.123  19.977  0.00  0.00    +0.171 C 
ATOM     17  O   UNL     1       2.320  18.250  19.971  0.00  0.00    -0.294 OA
ATOM     18  C   UNL     1       5.687  16.397  23.846  0.00  0.00    +0.224 C 
ATOM     19  O   UNL     1       4.669  16.094  23.244  0.00  0.00    -0.275 OA
ATOM     20  N   UNL     1       6.344  15.504  24.642  0.00  0.00    -0.311 N 
ATOM     21  C   UNL     1       7.519  16.009  25.277  0.00  0.00    +0.032 C 
ATOM     22  H   UNL     1       3.798  21.154  20.414  0.00  0.00    +0.038 HD
ATOM     23  H   UNL     1       1.864  19.604  22.232  0.00  0.00    +0.031 HD
ATOM     24  H   UNL     1       2.103  21.336  22.390  0.00  0.00    +0.031 HD
ATOM     25  H   UNL     1       4.476  21.074  23.006  0.00  0.00    +0.057 HD
ATOM     26  H   UNL     1       3.444  18.214  23.424  0.00  0.00    +0.057 HD
ATOM     27  H   UNL     1       5.894  19.819  24.391  0.00  0.00    +0.038 HD
ATOM     28  H   UNL     1       4.202  17.779  25.910  0.00  0.00    +0.065 HD
ATOM     29  H   UNL     1       4.835  17.855  28.443  0.00  0.00    +0.054 HD
ATOM     30  H   UNL     1       6.643  17.695  28.771  0.00  0.00    +0.054 HD
ATOM     31  H   UNL     1       7.555  19.473  25.827  0.00  0.00    +0.035 HD
ATOM     32  H   UNL     1       8.519  17.743  24.457  0.00  0.00    +0.034 HD
ATOM     33  H   UNL     1       7.848  17.444  22.277  0.00  0.00    +0.079 HD
ATOM     34  H   UNL     1       5.741  16.954  21.093  0.00  0.00    +0.061 HD
ATOM     35  H   UNL     1       5.960  19.976  20.688  0.00  0.00    +0.060 HD
ATOM     36  H   UNL     1       5.979  14.565  24.754  0.00  0.00    +0.149 HD
ATOM     37  H   UNL     1       7.348  15.862  26.348  0.00  0.00    +0.050 HD
ENDROOT
BRANCH   1  38
ATOM     38  C   UNL     1       1.758  21.131  19.780  0.00  0.00    -0.055 C 
ATOM     39  H   UNL     1       0.843  20.538  19.886  0.00  0.00    +0.024 HD
ATOM     40  H   UNL     1       1.991  21.192  18.712  0.00  0.00    +0.024 HD
ATOM     41  H   UNL     1       1.548  22.144  20.137  0.00  0.00    +0.024 HD
ENDBRANCH   1  38
BRANCH  15  42
ATOM     42  C   UNL     1       4.916  19.708  18.202  0.00  0.00    -0.025 C 
ATOM     43  H   UNL     1       4.383  19.399  17.296  0.00  0.00    +0.026 HD
ATOM     44  H   UNL     1       4.653  20.752  18.413  0.00  0.00    +0.026 HD
ATOM     45  H   UNL     1       5.989  19.695  17.978  0.00  0.00    +0.026 HD
ENDBRANCH  15  42
BRANCH   9  46
ATOM     46  C   UNL     1       8.658  18.226  27.108  0.00  0.00    -0.058 C 
ATOM     47  H   UNL     1       8.710  19.036  27.843  0.00  0.00    +0.024 HD
ATOM     48  H   UNL     1       8.556  17.288  27.665  0.00  0.00    +0.024 HD
ATOM     49  H   UNL     1       9.615  18.199  26.577  0.00  0.00    +0.024 HD
ENDBRANCH   9  46
BRANCH  21  50
ATOM     50  C   UNL     1       8.791  15.207  24.927  0.00  0.00    -0.009 C 
ATOM     51  H   UNL     1       9.256  14.860  25.858  0.00  0.00    +0.033 HD
ATOM     52  H   UNL     1       8.494  14.294  24.393  0.00  0.00    +0.033 HD
BRANCH  50  53
ATOM     53  C   UNL     1       9.827  15.903  24.078  0.00  0.00    -0.046 A 
ATOM     54  C   UNL     1      10.901  16.574  24.675  0.00  0.00    -0.059 A 
ATOM     55  C   UNL     1      11.853  17.232  23.895  0.00  0.00    -0.062 A 
ATOM     56  C   UNL     1      11.750  17.220  22.507  0.00  0.00    -0.062 A 
ATOM     57  C   UNL     1      10.697  16.542  21.898  0.00  0.00    -0.062 A 
ATOM     58  C   UNL     1       9.745  15.883  22.678  0.00  0.00    -0.059 A 
ATOM     59  H   UNL     1      10.998  16.614  25.759  0.00  0.00    +0.062 HD
ATOM     60  H   UNL     1      12.667  17.768  24.376  0.00  0.00    +0.062 HD
ATOM     61  H   UNL     1      12.486  17.740  21.901  0.00  0.00    +0.062 HD
ATOM     62  H   UNL     1      10.614  16.531  20.815  0.00  0.00    +0.062 HD
ATOM     63  H   UNL     1       8.936  15.357  22.178  0.00  0.00    +0.062 HD
ENDBRANCH  50  53
ENDBRANCH  21  50
BRANCH  15  64
ATOM     64  O   UNL     1       4.622  17.468  18.912  0.00  0.00    -0.377 OA
ATOM     65  H   UNL     1       4.093  17.480  18.087  0.00  0.00    +0.211 HD
ENDBRANCH  15  64
BRANCH   6  66
ATOM     66  O   UNL     1       4.300  19.776  26.383  0.00  0.00    -0.387 OA
ATOM     67  H   UNL     1       4.727  19.966  27.236  0.00  0.00    +0.210 HD
ENDBRANCH   6  66
BRANCH  12  68
ATOM     68  O   UNL     1       7.454  19.492  22.531  0.00  0.00    -0.456 OA
BRANCH  68  69
ATOM     69  C   UNL     1       8.734  19.786  22.199  0.00  0.00    +0.305 C 
ATOM     70  O   UNL     1       9.226  19.721  21.084  0.00  0.00    -0.251 OA
BRANCH  69  71
ATOM     71  C   UNL     1       9.500  20.166  23.431  0.00  0.00    +0.033 C 
ATOM     72  H   UNL     1      10.180  19.356  23.703  0.00  0.00    +0.034 HD
ATOM     73  H   UNL     1      10.080  21.072  23.232  0.00  0.00    +0.034 HD
ATOM     74  H   UNL     1       8.807  20.378  24.250  0.00  0.00    +0.034 HD
ENDBRANCH  69  71
ENDBRANCH  68  69
ENDBRANCH  12  68
TORSDOF 10
ENDMDL
MODEL 3
REMARK VINA RESULT:      -6.6      9.927     14.165
REMARK  Name = Cytochalasin D_conf1
REMARK  10 active torsions:
REMARK  status: ('A' for Active; 'I' for Inactive)
REMARK    1  A    between atoms: C_1  and  C_2
REMARK    2  A    between atoms: C_7  and  O_37
REMARK    3  A    between atoms: C_10  and  C_36
REMARK    4  A    between atoms: C_13  and  O_21
REMARK    5  A    between atoms: C_16  and  C_19
REMARK    6  A    between atoms: C_16  and  O_20
REMARK    7  A    between atoms: O_21  and  C_22
REMARK    8  A    between atoms: C_22  and  C_24
REMARK    9  A    between atoms: C_28  and  C_29
REMARK   10  A    between atoms: C_29  and  C_30
REMARK                            x       y       z     vdW  Elec       q    Type
REMARK                         _______ _______ _______ _____ _____    ______ ____
ROOT
ATOM      1  C   UNL     1      -9.005  10.476  18.959  0.00  0.00    +0.021 C 
ATOM      2  C   UNL     1      -9.009  11.418  20.175  0.00  0.00    -0.025 C 
ATOM      3  C   UNL     1      -8.372  12.751  19.876  0.00  0.00    -0.087 C 
ATOM      4  C   UNL     1      -7.179  13.138  20.360  0.00  0.00    -0.081 C 
ATOM      5  C   UNL     1      -6.521  14.485  20.054  0.00  0.00    +0.025 C 
ATOM      6  C   UNL     1      -6.419  15.310  21.368  0.00  0.00    +0.084 C 
ATOM      7  C   UNL     1      -5.704  16.636  21.198  0.00  0.00    -0.045 C 
ATOM      8  C   UNL     1      -5.421  17.395  22.272  0.00  0.00    -0.097 C 
ATOM      9  C   UNL     1      -5.345  16.987  19.767  0.00  0.00    -0.015 C 
ATOM     10  C   UNL     1      -4.475  15.857  19.160  0.00  0.00    +0.002 C 
ATOM     11  C   UNL     1      -5.141  14.417  19.294  0.00  0.00    +0.101 C 
ATOM     12  C   UNL     1      -5.262  13.787  17.861  0.00  0.00    +0.136 C 
ATOM     13  C   UNL     1      -5.484  12.288  17.819  0.00  0.00    -0.044 C 
ATOM     14  C   UNL     1      -6.579  11.642  17.375  0.00  0.00    -0.046 C 
ATOM     15  C   UNL     1      -6.830  10.159  17.466  0.00  0.00    +0.139 C 
ATOM     16  C   UNL     1      -7.618   9.858  18.771  0.00  0.00    +0.171 C 
ATOM     17  O   UNL     1      -7.121   9.133  19.641  0.00  0.00    -0.294 OA
ATOM     18  C   UNL     1      -4.121  13.664  20.144  0.00  0.00    +0.224 C 
ATOM     19  O   UNL     1      -4.215  12.530  20.585  0.00  0.00    -0.275 OA
ATOM     20  N   UNL     1      -3.039  14.452  20.410  0.00  0.00    -0.311 N 
ATOM     21  C   UNL     1      -3.078  15.752  19.820  0.00  0.00    +0.032 C 
ATOM     22  H   UNL     1      -9.289  11.032  18.059  0.00  0.00    +0.038 HD
ATOM     23  H   UNL     1      -8.515  10.942  21.032  0.00  0.00    +0.031 HD
ATOM     24  H   UNL     1     -10.042  11.617  20.488  0.00  0.00    +0.031 HD
ATOM     25  H   UNL     1      -8.931  13.419  19.224  0.00  0.00    +0.057 HD
ATOM     26  H   UNL     1      -6.631  12.459  21.014  0.00  0.00    +0.057 HD
ATOM     27  H   UNL     1      -7.230  15.023  19.408  0.00  0.00    +0.038 HD
ATOM     28  H   UNL     1      -5.916  14.726  22.150  0.00  0.00    +0.065 HD
ATOM     29  H   UNL     1      -5.721  17.078  23.268  0.00  0.00    +0.054 HD
ATOM     30  H   UNL     1      -4.914  18.351  22.205  0.00  0.00    +0.054 HD
ATOM     31  H   UNL     1      -6.286  17.025  19.201  0.00  0.00    +0.035 HD
ATOM     32  H   UNL     1      -4.345  16.115  18.106  0.00  0.00    +0.034 HD
ATOM     33  H   UNL     1      -4.340  13.960  17.299  0.00  0.00    +0.079 HD
ATOM     34  H   UNL     1      -4.661  11.694  18.215  0.00  0.00    +0.061 HD
ATOM     35  H   UNL     1      -7.406  12.228  16.980  0.00  0.00    +0.060 HD
ATOM     36  H   UNL     1      -2.294  14.102  21.001  0.00  0.00    +0.149 HD
ATOM     37  H   UNL     1      -2.986  16.448  20.661  0.00  0.00    +0.050 HD
ENDROOT
BRANCH   1  38
ATOM     38  C   UNL     1     -10.012   9.342  19.147  0.00  0.00    -0.055 C 
ATOM     39  H   UNL     1     -10.680   9.250  18.283  0.00  0.00    +0.024 HD
ATOM     40  H   UNL     1     -10.636   9.517  20.030  0.00  0.00    +0.024 HD
ATOM     41  H   UNL     1      -9.499   8.384  19.281  0.00  0.00    +0.024 HD
ENDBRANCH   1  38
BRANCH  15  42
ATOM     42  C   UNL     1      -7.569   9.625  16.243  0.00  0.00    -0.025 C 
ATOM     43  H   UNL     1      -8.532   9.171  16.498  0.00  0.00    +0.026 HD
ATOM     44  H   UNL     1      -7.751  10.424  15.514  0.00  0.00    +0.026 HD
ATOM     45  H   UNL     1      -6.968   8.865  15.730  0.00  0.00    +0.026 HD
ENDBRANCH  15  42
BRANCH   9  46
ATOM     46  C   UNL     1      -4.707  18.367  19.547  0.00  0.00    -0.058 C 
ATOM     47  H   UNL     1      -4.392  18.799  20.502  0.00  0.00    +0.024 HD
ATOM     48  H   UNL     1      -3.813  18.284  18.917  0.00  0.00    +0.024 HD
ATOM     49  H   UNL     1      -5.388  19.078  19.069  0.00  0.00    +0.024 HD
ENDBRANCH   9  46
BRANCH  21  50
ATOM     50  C   UNL     1      -1.876  16.033  18.893  0.00  0.00    -0.009 C 
ATOM     51  H   UNL     1      -2.199  15.913  17.851  0.00  0.00    +0.033 HD
ATOM     52  H   UNL     1      -1.598  17.092  18.989  0.00  0.00    +0.033 HD
BRANCH  50  53
ATOM     53  C   UNL     1      -0.625  15.221  19.127  0.00  0.00    -0.046 A 
ATOM     54  C   UNL     1      -0.181  14.307  18.163  0.00  0.00    -0.059 A 
ATOM     55  C   UNL     1       0.966  13.542  18.382  0.00  0.00    -0.062 A 
ATOM     56  C   UNL     1       1.689  13.687  19.562  0.00  0.00    -0.062 A 
ATOM     57  C   UNL     1       1.269  14.604  20.522  0.00  0.00    -0.062 A 
ATOM     58  C   UNL     1       0.123  15.370  20.303  0.00  0.00    -0.059 A 
ATOM     59  H   UNL     1      -0.737  14.161  17.238  0.00  0.00    +0.062 HD
ATOM     60  H   UNL     1       1.283  12.821  17.633  0.00  0.00    +0.062 HD
ATOM     61  H   UNL     1       2.577  13.085  19.735  0.00  0.00    +0.062 HD
ATOM     62  H   UNL     1       1.833  14.720  21.444  0.00  0.00    +0.062 HD
ATOM     63  H   UNL     1      -0.180  16.083  21.066  0.00  0.00    +0.062 HD
ENDBRANCH  50  53
ENDBRANCH  21  50
BRANCH  15  64
ATOM     64  O   UNL     1      -5.576   9.470  17.512  0.00  0.00    -0.377 OA
ATOM     65  H   UNL     1      -5.092   9.854  18.272  0.00  0.00    +0.211 HD
ENDBRANCH  15  64
BRANCH   6  66
ATOM     66  O   UNL     1      -7.735  15.626  21.835  0.00  0.00    -0.387 OA
ATOM     67  H   UNL     1      -7.684  16.512  22.234  0.00  0.00    +0.210 HD
ENDBRANCH   6  66
BRANCH  12  68
ATOM     68  O   UNL     1      -6.389  14.415  17.189  0.00  0.00    -0.456 OA
BRANCH  68  69
ATOM     69  C   UNL     1      -6.182  15.531  16.450  0.00  0.00    +0.305 C 
ATOM     70  O   UNL     1      -6.803  16.580  16.531  0.00  0.00    -0.251 OA
BRANCH  69  71
ATOM     71  C   UNL     1      -5.090  15.281  15.455  0.00  0.00    +0.033 C 
ATOM     72  H   UNL     1      -5.426  14.548  14.718  0.00  0.00    +0.034 HD
ATOM     73  H   UNL     1      -4.843  16.217  14.944  0.00  0.00    +0.034 HD
ATOM     74  H   UNL     1      -4.191  14.927  15.968  0.00  0.00    +0.034 HD
ENDBRANCH  69  71
ENDBRANCH  68  69
ENDBRANCH  12  68
TORSDOF 10
ENDMDL
MODEL 4
REMARK VINA RESULT:      -6.2      2.657      7.110
REMARK  Name = Cytochalasin D_conf1
REMARK  10 active torsions:
REMARK  status: ('A' for Active; 'I' for Inactive)
REMARK    1  A    between atoms: C_1  and  C_2
REMARK    2  A    between atoms: C_7  and  O_37
REMARK    3  A    between atoms: C_10  and  C_36
REMARK    4  A    between atoms: C_13  and  O_21
REMARK    5  A    between atoms: C_16  and  C_19
REMARK    6  A    between atoms: C_16  and  O_20
REMARK    7  A    between atoms: O_21  and  C_22
REMARK    8  A    between atoms: C_22  and  C_24
REMARK    9  A    between atoms: C_28  and  C_29
REMARK   10  A    between atoms: C_29  and  C_30
REMARK                            x       y       z     vdW  Elec       q    Type
REMARK                         _______ _______ _______ _____ _____    ______ ____
ROOT
ATOM      1  C   UNL     1       3.390  20.745  18.471  0.00  0.00    +0.021 C 
ATOM      2  C   UNL     1       4.892  21.076  18.486  0.00  0.00    -0.025 C 
ATOM      3  C   UNL     1       5.722  19.967  19.079  0.00  0.00    -0.087 C 
ATOM      4  C   UNL     1       6.326  20.039  20.277  0.00  0.00    -0.081 C 
ATOM      5  C   UNL     1       7.162  18.915  20.890  0.00  0.00    +0.025 C 
ATOM      6  C   UNL     1       8.638  19.391  21.018  0.00  0.00    +0.084 C 
ATOM      7  C   UNL     1       9.544  18.381  21.692  0.00  0.00    -0.045 C 
ATOM      8  C   UNL     1      10.815  18.708  21.994  0.00  0.00    -0.097 C 
ATOM      9  C   UNL     1       8.897  17.043  21.992  0.00  0.00    -0.015 C 
ATOM     10  C   UNL     1       7.637  17.263  22.869  0.00  0.00    +0.002 C 
ATOM     11  C   UNL     1       6.619  18.316  22.244  0.00  0.00    +0.101 C 
ATOM     12  C   UNL     1       5.218  17.625  22.088  0.00  0.00    +0.136 C 
ATOM     13  C   UNL     1       4.040  18.560  21.903  0.00  0.00    -0.044 C 
ATOM     14  C   UNL     1       3.263  18.680  20.810  0.00  0.00    -0.046 C 
ATOM     15  C   UNL     1       2.183  19.710  20.600  0.00  0.00    +0.139 C 
ATOM     16  C   UNL     1       2.790  20.937  19.866  0.00  0.00    +0.171 C 
ATOM     17  O   UNL     1       2.788  22.047  20.411  0.00  0.00    -0.294 OA
ATOM     18  C   UNL     1       6.582  19.405  23.312  0.00  0.00    +0.224 C 
ATOM     19  O   UNL     1       5.994  20.474  23.262  0.00  0.00    -0.275 OA
ATOM     20  N   UNL     1       7.354  19.059  24.382  0.00  0.00    -0.311 N 
ATOM     21  C   UNL     1       7.976  17.777  24.290  0.00  0.00    +0.032 C 
ATOM     22  H   UNL     1       3.241  19.712  18.142  0.00  0.00    +0.038 HD
ATOM     23  H   UNL     1       5.073  22.017  19.022  0.00  0.00    +0.031 HD
ATOM     24  H   UNL     1       5.248  21.233  17.460  0.00  0.00    +0.031 HD
ATOM     25  H   UNL     1       5.820  19.063  18.480  0.00  0.00    +0.057 HD
ATOM     26  H   UNL     1       6.221  20.952  20.865  0.00  0.00    +0.057 HD
ATOM     27  H   UNL     1       7.164  18.105  20.146  0.00  0.00    +0.038 HD
ATOM     28  H   UNL     1       8.687  20.342  21.562  0.00  0.00    +0.065 HD
ATOM     29  H   UNL     1      11.210  19.687  21.737  0.00  0.00    +0.054 HD
ATOM     30  H   UNL     1      11.505  18.022  22.473  0.00  0.00    +0.054 HD
ATOM     31  H   UNL     1       8.567  16.625  21.031  0.00  0.00    +0.035 HD
ATOM     32  H   UNL     1       7.160  16.284  22.955  0.00  0.00    +0.034 HD
ATOM     33  H   UNL     1       4.989  17.042  22.986  0.00  0.00    +0.079 HD
ATOM     34  H   UNL     1       3.835  19.209  22.755  0.00  0.00    +0.061 HD
ATOM     35  H   UNL     1       3.464  18.038  19.955  0.00  0.00    +0.060 HD
ATOM     36  H   UNL     1       7.462  19.704  25.156  0.00  0.00    +0.149 HD
ATOM     37  H   UNL     1       9.048  17.972  24.394  0.00  0.00    +0.050 HD
ENDROOT
BRANCH   1  38
ATOM     38  C   UNL     1       2.642  21.658  17.500  0.00  0.00    -0.055 C 
ATOM     39  H   UNL     1       1.556  21.571  17.619  0.00  0.00    +0.024 HD
ATOM     40  H   UNL     1       2.882  21.404  16.462  0.00  0.00    +0.024 HD
ATOM     41  H   UNL     1       2.916  22.706  17.662  0.00  0.00    +0.024 HD
ENDBRANCH   1  38
BRANCH  15  42
ATOM     42  C   UNL     1       0.992  19.144  19.832  0.00  0.00    -0.025 C 
ATOM     43  H   UNL     1       0.808  18.088  20.058  0.00  0.00    +0.026 HD
ATOM     44  H   UNL     1       0.077  19.706  20.057  0.00  0.00    +0.026 HD
ATOM     45  H   UNL     1       1.154  19.230  18.751  0.00  0.00    +0.026 HD
ENDBRANCH  15  42
BRANCH   9  46
ATOM     46  C   UNL     1       9.814  15.964  22.587  0.00  0.00    -0.058 C 
ATOM     47  H   UNL     1       9.505  15.722  23.610  0.00  0.00    +0.024 HD
ATOM     48  H   UNL     1       9.753  15.038  22.002  0.00  0.00    +0.024 HD
ATOM     49  H   UNL     1      10.864  16.270  22.622  0.00  0.00    +0.024 HD
ENDBRANCH   9  46
BRANCH  21  50
ATOM     50  C   UNL     1       7.594  16.833  25.452  0.00  0.00    -0.009 C 
ATOM     51  H   UNL     1       7.656  17.392  26.394  0.00  0.00    +0.033 HD
ATOM     52  H   UNL     1       6.535  16.560  25.347  0.00  0.00    +0.033 HD
BRANCH  50  53
ATOM     53  C   UNL     1       8.377  15.549  25.577  0.00  0.00    -0.046 A 
ATOM     54  C   UNL     1       9.765  15.578  25.754  0.00  0.00    -0.059 A 
ATOM     55  C   UNL     1      10.496  14.393  25.854  0.00  0.00    -0.062 A 
ATOM     56  C   UNL     1       9.847  13.163  25.788  0.00  0.00    -0.062 A 
ATOM     57  C   UNL     1       8.464  13.119  25.631  0.00  0.00    -0.062 A 
ATOM     58  C   UNL     1       7.733  14.303  25.531  0.00  0.00    -0.059 A 
ATOM     59  H   UNL     1      10.301  16.525  25.791  0.00  0.00    +0.062 HD
ATOM     60  H   UNL     1      11.576  14.434  25.967  0.00  0.00    +0.062 HD
ATOM     61  H   UNL     1      10.418  12.242  25.858  0.00  0.00    +0.062 HD
ATOM     62  H   UNL     1       7.955  12.160  25.580  0.00  0.00    +0.062 HD
ATOM     63  H   UNL     1       6.654  14.241  25.414  0.00  0.00    +0.062 HD
ENDBRANCH  50  53
ENDBRANCH  21  50
BRANCH  15  64
ATOM     64  O   UNL     1       1.680  20.132  21.871  0.00  0.00    -0.377 OA
ATOM     65  H   UNL     1       2.244  20.886  22.141  0.00  0.00    +0.211 HD
ENDBRANCH  15  64
BRANCH   6  66
ATOM     66  O   UNL     1       9.183  19.604  19.711  0.00  0.00    -0.387 OA
ATOM     67  H   UNL     1       8.438  19.556  19.087  0.00  0.00    +0.210 HD
ENDBRANCH   6  66
BRANCH  12  68
ATOM     68  O   UNL     1       5.274  16.755  20.924  0.00  0.00    -0.456 OA
BRANCH  68  69
ATOM     69  C   UNL     1       4.867  15.468  21.036  0.00  0.00    +0.305 C 
ATOM     70  O   UNL     1       4.370  14.949  22.023  0.00  0.00    -0.251 OA
BRANCH  69  71
ATOM     71  C   UNL     1       5.162  14.734  19.763  0.00  0.00    +0.033 C 
ATOM     72  H   UNL     1       6.191  14.367  19.782  0.00  0.00    +0.034 HD
ATOM     73  H   UNL     1       4.479  13.884  19.667  0.00  0.00    +0.034 HD
ATOM     74  H   UNL     1       5.005  15.394  18.906  0.00  0.00    +0.034 HD
ENDBRANCH  69  71
ENDBRANCH  68  69
ENDBRANCH  12  68
TORSDOF 10
ENDMDL
MODEL 5
REMARK VINA RESULT:      -6.2      2.668      7.395
REMARK  Name = Cytochalasin D_conf1
REMARK  10 active torsions:
REMARK  status: ('A' for Active; 'I' for Inactive)
REMARK    1  A    between atoms: C_1  and  C_2
REMARK    2  A    between atoms: C_7  and  O_37
REMARK    3  A    between atoms: C_10  and  C_36
REMARK    4  A    between atoms: C_13  and  O_21
REMARK    5  A    between atoms: C_16  and  C_19
REMARK    6  A    between atoms: C_16  and  O_20
REMARK    7  A    between atoms: O_21  and  C_22
REMARK    8  A    between atoms: C_22  and  C_24
REMARK    9  A    between atoms: C_28  and  C_29
REMARK   10  A    between atoms: C_29  and  C_30
REMARK                            x       y       z     vdW  Elec       q    Type
REMARK                         _______ _______ _______ _____ _____    ______ ____
ROOT
ATOM      1  C   UNL     1       1.885  22.174  19.404  0.00  0.00    +0.021 C 
ATOM      2  C   UNL     1       1.891  20.748  18.827  0.00  0.00    -0.025 C 
ATOM      3  C   UNL     1       2.141  19.700  19.881  0.00  0.00    -0.087 C 
ATOM      4  C   UNL     1       3.282  18.998  19.986  0.00  0.00    -0.081 C 
ATOM      5  C   UNL     1       3.548  17.940  21.058  0.00  0.00    +0.025 C 
ATOM      6  C   UNL     1       3.700  16.551  20.374  0.00  0.00    +0.084 C 
ATOM      7  C   UNL     1       4.049  15.435  21.338  0.00  0.00    -0.045 C 
ATOM      8  C   UNL     1       4.345  14.207  20.874  0.00  0.00    -0.097 C 
ATOM      9  C   UNL     1       4.049  15.833  22.801  0.00  0.00    -0.015 C 
ATOM     10  C   UNL     1       5.026  17.017  23.015  0.00  0.00    +0.002 C 
ATOM     11  C   UNL     1       4.743  18.244  22.041  0.00  0.00    +0.101 C 
ATOM     12  C   UNL     1       4.506  19.529  22.911  0.00  0.00    +0.136 C 
ATOM     13  C   UNL     1       4.627  20.851  22.179  0.00  0.00    -0.044 C 
ATOM     14  C   UNL     1       3.646  21.743  21.946  0.00  0.00    -0.046 C 
ATOM     15  C   UNL     1       3.761  22.985  21.101  0.00  0.00    +0.139 C 
ATOM     16  C   UNL     1       3.317  22.653  19.650  0.00  0.00    +0.171 C 
ATOM     17  O   UNL     1       4.118  22.773  18.715  0.00  0.00    -0.294 OA
ATOM     18  C   UNL     1       6.046  18.343  21.254  0.00  0.00    +0.224 C 
ATOM     19  O   UNL     1       6.296  19.092  20.323  0.00  0.00    -0.275 OA
ATOM     20  N   UNL     1       6.950  17.422  21.698  0.00  0.00    -0.311 N 
ATOM     21  C   UNL     1       6.508  16.622  22.796  0.00  0.00    +0.032 C 
ATOM     22  H   UNL     1       1.320  22.193  20.342  0.00  0.00    +0.038 HD
ATOM     23  H   UNL     1       2.629  20.662  18.020  0.00  0.00    +0.031 HD
ATOM     24  H   UNL     1       0.915  20.525  18.376  0.00  0.00    +0.031 HD
ATOM     25  H   UNL     1       1.333  19.524  20.590  0.00  0.00    +0.057 HD
ATOM     26  H   UNL     1       4.081  19.184  19.268  0.00  0.00    +0.057 HD
ATOM     27  H   UNL     1       2.628  17.886  21.659  0.00  0.00    +0.038 HD
ATOM     28  H   UNL     1       4.458  16.595  19.582  0.00  0.00    +0.065 HD
ATOM     29  H   UNL     1       4.314  13.997  19.807  0.00  0.00    +0.054 HD
ATOM     30  H   UNL     1       4.599  13.374  21.520  0.00  0.00    +0.054 HD
ATOM     31  H   UNL     1       3.036  16.189  23.035  0.00  0.00    +0.035 HD
ATOM     32  H   UNL     1       4.897  17.326  24.056  0.00  0.00    +0.034 HD
ATOM     33  H   UNL     1       5.244  19.574  23.717  0.00  0.00    +0.079 HD
ATOM     34  H   UNL     1       5.623  21.068  21.792  0.00  0.00    +0.061 HD
ATOM     35  H   UNL     1       2.649  21.532  22.326  0.00  0.00    +0.060 HD
ATOM     36  H   UNL     1       7.850  17.339  21.242  0.00  0.00    +0.149 HD
ATOM     37  H   UNL     1       6.591  15.588  22.445  0.00  0.00    +0.050 HD
ENDROOT
BRANCH   1  38
ATOM     38  C   UNL     1       1.215  23.148  18.435  0.00  0.00    -0.055 C 
ATOM     39  H   UNL     1       0.717  23.967  18.967  0.00  0.00    +0.024 HD
ATOM     40  H   UNL     1       0.458  22.638  17.830  0.00  0.00    +0.024 HD
ATOM     41  H   UNL     1       1.951  23.587  17.753  0.00  0.00    +0.024 HD
ENDBRANCH   1  38
BRANCH  15  42
ATOM     42  C   UNL     1       2.950  24.145  21.671  0.00  0.00    -0.025 C 
ATOM     43  H   UNL     1       2.551  23.929  22.668  0.00  0.00    +0.026 HD
ATOM     44  H   UNL     1       3.559  25.055  21.737  0.00  0.00    +0.026 HD
ATOM     45  H   UNL     1       2.103  24.382  21.017  0.00  0.00    +0.026 HD
ENDBRANCH  15  42
BRANCH   9  46
ATOM     46  C   UNL     1       4.303  14.705  23.812  0.00  0.00    -0.058 C 
ATOM     47  H   UNL     1       5.124  14.974  24.486  0.00  0.00    +0.024 HD
ATOM     48  H   UNL     1       3.416  14.534  24.433  0.00  0.00    +0.024 HD
ATOM     49  H   UNL     1       4.565  13.757  23.332  0.00  0.00    +0.024 HD
ENDBRANCH   9  46
BRANCH  21  50
ATOM     50  C   UNL     1       7.422  16.734  24.035  0.00  0.00    -0.009 C 
ATOM     51  H   UNL     1       8.175  17.510  23.848  0.00  0.00    +0.033 HD
ATOM     52  H   UNL     1       6.824  17.108  24.878  0.00  0.00    +0.033 HD
BRANCH  50  53
ATOM     53  C   UNL     1       8.106  15.471  24.498  0.00  0.00    -0.046 A 
ATOM     54  C   UNL     1       9.364  15.119  23.994  0.00  0.00    -0.059 A 
ATOM     55  C   UNL     1       9.994  13.944  24.407  0.00  0.00    -0.062 A 
ATOM     56  C   UNL     1       9.379  13.110  25.337  0.00  0.00    -0.062 A 
ATOM     57  C   UNL     1       8.137  13.456  25.860  0.00  0.00    -0.062 A 
ATOM     58  C   UNL     1       7.507  14.631  25.448  0.00  0.00    -0.059 A 
ATOM     59  H   UNL     1       9.860  15.743  23.252  0.00  0.00    +0.062 HD
ATOM     60  H   UNL     1      10.959  13.674  23.987  0.00  0.00    +0.062 HD
ATOM     61  H   UNL     1       9.867  12.192  25.651  0.00  0.00    +0.062 HD
ATOM     62  H   UNL     1       7.655  12.808  26.587  0.00  0.00    +0.062 HD
ATOM     63  H   UNL     1       6.539  14.882  25.877  0.00  0.00    +0.062 HD
ENDBRANCH  50  53
ENDBRANCH  21  50
BRANCH  15  64
ATOM     64  O   UNL     1       5.125  23.418  21.081  0.00  0.00    -0.377 OA
ATOM     65  H   UNL     1       5.549  22.920  20.351  0.00  0.00    +0.211 HD
ENDBRANCH  15  64
BRANCH   6  66
ATOM     66  O   UNL     1       2.455  16.179  19.771  0.00  0.00    -0.387 OA
ATOM     67  H   UNL     1       2.585  16.238  18.808  0.00  0.00    +0.210 HD
ENDBRANCH   6  66
BRANCH  12  68
ATOM     68  O   UNL     1       3.161  19.456  23.462  0.00  0.00    -0.456 OA
BRANCH  68  69
ATOM     69  C   UNL     1       2.985  19.568  24.801  0.00  0.00    +0.305 C 
ATOM     70  O   UNL     1       3.716  19.115  25.668  0.00  0.00    -0.251 OA
BRANCH  69  71
ATOM     71  C   UNL     1       1.709  20.302  25.081  0.00  0.00    +0.033 C 
ATOM     72  H   UNL     1       1.525  20.319  26.158  0.00  0.00    +0.034 HD
ATOM     73  H   UNL     1       1.794  21.330  24.715  0.00  0.00    +0.034 HD
ATOM     74  H   UNL     1       0.879  19.822  24.556  0.00  0.00    +0.034 HD
ENDBRANCH  69  71
ENDBRANCH  68  69
ENDBRANCH  12  68
TORSDOF 10
ENDMDL
MODEL 6
REMARK VINA RESULT:      -6.1     12.872     14.817
REMARK  Name = Cytochalasin D_conf1
REMARK  10 active torsions:
REMARK  status: ('A' for Active; 'I' for Inactive)
REMARK    1  A    between atoms: C_1  and  C_2
REMARK    2  A    between atoms: C_7  and  O_37
REMARK    3  A    between atoms: C_10  and  C_36
REMARK    4  A    between atoms: C_13  and  O_21
REMARK    5  A    between atoms: C_16  and  C_19
REMARK    6  A    between atoms: C_16  and  O_20
REMARK    7  A    between atoms: O_21  and  C_22
REMARK    8  A    between atoms: C_22  and  C_24
REMARK    9  A    between atoms: C_28  and  C_29
REMARK   10  A    between atoms: C_29  and  C_30
REMARK                            x       y       z     vdW  Elec       q    Type
REMARK                         _______ _______ _______ _____ _____    ______ ____
ROOT
ATOM      1  C   UNL     1      -8.161  19.083  24.066  0.00  0.00    +0.021 C 
ATOM      2  C   UNL     1      -8.449  19.214  22.560  0.00  0.00    -0.025 C 
ATOM      3  C   UNL     1      -8.660  17.879  21.894  0.00  0.00    -0.087 C 
ATOM      4  C   UNL     1      -7.782  17.315  21.047  0.00  0.00    -0.081 C 
ATOM      5  C   UNL     1      -7.984  15.956  20.375  0.00  0.00    +0.025 C 
ATOM      6  C   UNL     1      -8.106  16.164  18.838  0.00  0.00    +0.084 C 
ATOM      7  C   UNL     1      -8.227  14.869  18.059  0.00  0.00    -0.045 C 
ATOM      8  C   UNL     1      -8.203  14.884  16.713  0.00  0.00    -0.097 C 
ATOM      9  C   UNL     1      -8.352  13.622  18.911  0.00  0.00    -0.015 C 
ATOM     10  C   UNL     1      -7.138  13.528  19.871  0.00  0.00    +0.002 C 
ATOM     11  C   UNL     1      -6.923  14.847  20.735  0.00  0.00    +0.101 C 
ATOM     12  C   UNL     1      -6.940  14.457  22.256  0.00  0.00    +0.136 C 
ATOM     13  C   UNL     1      -6.352  15.483  23.205  0.00  0.00    -0.044 C 
ATOM     14  C   UNL     1      -7.007  16.182  24.150  0.00  0.00    -0.046 C 
ATOM     15  C   UNL     1      -6.429  17.292  24.990  0.00  0.00    +0.139 C 
ATOM     16  C   UNL     1      -6.711  18.653  24.294  0.00  0.00    +0.171 C 
ATOM     17  O   UNL     1      -5.769  19.367  23.929  0.00  0.00    -0.294 OA
ATOM     18  C   UNL     1      -5.534  15.301  20.297  0.00  0.00    +0.224 C 
ATOM     19  O   UNL     1      -4.947  16.319  20.626  0.00  0.00    -0.275 OA
ATOM     20  N   UNL     1      -4.994  14.414  19.411  0.00  0.00    -0.311 N 
ATOM     21  C   UNL     1      -5.803  13.271  19.129  0.00  0.00    +0.032 C 
ATOM     22  H   UNL     1      -8.841  18.348  24.511  0.00  0.00    +0.038 HD
ATOM     23  H   UNL     1      -7.642  19.766  22.061  0.00  0.00    +0.031 HD
ATOM     24  H   UNL     1      -9.364  19.800  22.407  0.00  0.00    +0.031 HD
ATOM     25  H   UNL     1      -9.587  17.360  22.133  0.00  0.00    +0.057 HD
ATOM     26  H   UNL     1      -6.859  17.847  20.816  0.00  0.00    +0.057 HD
ATOM     27  H   UNL     1      -8.967  15.599  20.714  0.00  0.00    +0.038 HD
ATOM     28  H   UNL     1      -7.248  16.735  18.460  0.00  0.00    +0.065 HD
ATOM     29  H   UNL     1      -8.120  15.824  16.172  0.00  0.00    +0.054 HD
ATOM     30  H   UNL     1      -8.289  13.988  16.109  0.00  0.00    +0.054 HD
ATOM     31  H   UNL     1      -9.256  13.743  19.525  0.00  0.00    +0.035 HD
ATOM     32  H   UNL     1      -7.343  12.677  20.527  0.00  0.00    +0.034 HD
ATOM     33  H   UNL     1      -6.354  13.547  22.413  0.00  0.00    +0.079 HD
ATOM     34  H   UNL     1      -5.286  15.670  23.071  0.00  0.00    +0.061 HD
ATOM     35  H   UNL     1      -8.071  16.004  24.288  0.00  0.00    +0.060 HD
ATOM     36  H   UNL     1      -4.088  14.603  18.998  0.00  0.00    +0.149 HD
ATOM     37  H   UNL     1      -5.946  13.286  18.044  0.00  0.00    +0.050 HD
ENDROOT
BRANCH   1  38
ATOM     38  C   UNL     1      -8.382  20.417  24.779  0.00  0.00    -0.055 C 
ATOM     39  H   UNL     1      -9.441  20.697  24.790  0.00  0.00    +0.024 HD
ATOM     40  H   UNL     1      -7.831  21.221  24.280  0.00  0.00    +0.024 HD
ATOM     41  H   UNL     1      -8.035  20.365  25.817  0.00  0.00    +0.024 HD
ENDBRANCH   1  38
BRANCH  15  42
ATOM     42  C   UNL     1      -6.977  17.280  26.414  0.00  0.00    -0.025 C 
ATOM     43  H   UNL     1      -6.516  16.506  27.036  0.00  0.00    +0.026 HD
ATOM     44  H   UNL     1      -6.820  18.250  26.903  0.00  0.00    +0.026 HD
ATOM     45  H   UNL     1      -8.059  17.104  26.409  0.00  0.00    +0.026 HD
ENDBRANCH  15  42
BRANCH   9  46
ATOM     46  C   UNL     1      -8.574  12.303  18.156  0.00  0.00    -0.058 C 
ATOM     47  H   UNL     1      -8.733  12.496  17.089  0.00  0.00    +0.024 HD
ATOM     48  H   UNL     1      -7.694  11.654  18.241  0.00  0.00    +0.024 HD
ATOM     49  H   UNL     1      -9.439  11.743  18.524  0.00  0.00    +0.024 HD
ENDBRANCH   9  46
BRANCH  21  50
ATOM     50  C   UNL     1      -5.101  11.935  19.456  0.00  0.00    -0.009 C 
ATOM     51  H   UNL     1      -4.022  12.117  19.545  0.00  0.00    +0.033 HD
ATOM     52  H   UNL     1      -5.422  11.606  20.454  0.00  0.00    +0.033 HD
BRANCH  50  53
ATOM     53  C   UNL     1      -5.340  10.786  18.507  0.00  0.00    -0.046 A 
ATOM     54  C   UNL     1      -4.866  10.842  17.191  0.00  0.00    -0.059 A 
ATOM     55  C   UNL     1      -5.098   9.789  16.305  0.00  0.00    -0.062 A 
ATOM     56  C   UNL     1      -5.798   8.661  16.726  0.00  0.00    -0.062 A 
ATOM     57  C   UNL     1      -6.259   8.584  18.037  0.00  0.00    -0.062 A 
ATOM     58  C   UNL     1      -6.027   9.637  18.924  0.00  0.00    -0.059 A 
ATOM     59  H   UNL     1      -4.331  11.719  16.829  0.00  0.00    +0.062 HD
ATOM     60  H   UNL     1      -4.744   9.859  15.280  0.00  0.00    +0.062 HD
ATOM     61  H   UNL     1      -5.985   7.846  16.033  0.00  0.00    +0.062 HD
ATOM     62  H   UNL     1      -6.805   7.705  18.369  0.00  0.00    +0.062 HD
ATOM     63  H   UNL     1      -6.393   9.549  19.944  0.00  0.00    +0.062 HD
ENDBRANCH  50  53
ENDBRANCH  21  50
BRANCH  15  64
ATOM     64  O   UNL     1      -5.014  17.113  25.101  0.00  0.00    -0.377 OA
ATOM     65  H   UNL     1      -4.888  16.421  25.783  0.00  0.00    +0.211 HD
ENDBRANCH  15  64
BRANCH   6  66
ATOM     66  O   UNL     1      -9.292  16.912  18.552  0.00  0.00    -0.387 OA
ATOM     67  H   UNL     1      -9.013  17.692  18.041  0.00  0.00    +0.210 HD
ENDBRANCH   6  66
BRANCH  12  68
ATOM     68  O   UNL     1      -8.323  14.240  22.648  0.00  0.00    -0.456 OA
BRANCH  68  69
ATOM     69  C   UNL     1      -8.659  13.098  23.295  0.00  0.00    +0.305 C 
ATOM     70  O   UNL     1      -8.342  12.789  24.433  0.00  0.00    -0.251 OA
BRANCH  69  71
ATOM     71  C   UNL     1      -9.454  12.216  22.379  0.00  0.00    +0.033 C 
ATOM     72  H   UNL     1      -8.898  11.297  22.182  0.00  0.00    +0.034 HD
ATOM     73  H   UNL     1     -10.407  11.965  22.854  0.00  0.00    +0.034 HD
ATOM     74  H   UNL     1      -9.668  12.744  21.445  0.00  0.00    +0.034 HD
ENDBRANCH  69  71
ENDBRANCH  68  69
ENDBRANCH  12  68
TORSDOF 10
ENDMDL
MODEL 7
REMARK VINA RESULT:      -6.1     11.669     13.839
REMARK  Name = Cytochalasin D_conf1
REMARK  10 active torsions:
REMARK  status: ('A' for Active; 'I' for Inactive)
REMARK    1  A    between atoms: C_1  and  C_2
REMARK    2  A    between atoms: C_7  and  O_37
REMARK    3  A    between atoms: C_10  and  C_36
REMARK    4  A    between atoms: C_13  and  O_21
REMARK    5  A    between atoms: C_16  and  C_19
REMARK    6  A    between atoms: C_16  and  O_20
REMARK    7  A    between atoms: O_21  and  C_22
REMARK    8  A    between atoms: C_22  and  C_24
REMARK    9  A    between atoms: C_28  and  C_29
REMARK   10  A    between atoms: C_29  and  C_30
REMARK                            x       y       z     vdW  Elec       q    Type
REMARK                         _______ _______ _______ _____ _____    ______ ____
ROOT
ATOM      1  C   UNL     1      -6.166  20.342  22.918  0.00  0.00    +0.021 C 
ATOM      2  C   UNL     1      -5.825  20.378  21.418  0.00  0.00    -0.025 C 
ATOM      3  C   UNL     1      -6.336  19.167  20.681  0.00  0.00    -0.087 C 
ATOM      4  C   UNL     1      -5.547  18.189  20.204  0.00  0.00    -0.081 C 
ATOM      5  C   UNL     1      -6.058  16.953  19.464  0.00  0.00    +0.025 C 
ATOM      6  C   UNL     1      -5.535  16.987  17.998  0.00  0.00    +0.084 C 
ATOM      7  C   UNL     1      -5.914  15.761  17.191  0.00  0.00    -0.045 C 
ATOM      8  C   UNL     1      -5.418  15.587  15.952  0.00  0.00    -0.097 C 
ATOM      9  C   UNL     1      -6.845  14.795  17.898  0.00  0.00    -0.015 C 
ATOM     10  C   UNL     1      -6.206  14.346  19.236  0.00  0.00    +0.002 C 
ATOM     11  C   UNL     1      -5.767  15.567  20.159  0.00  0.00    +0.101 C 
ATOM     12  C   UNL     1      -6.477  15.422  21.551  0.00  0.00    +0.136 C 
ATOM     13  C   UNL     1      -5.882  16.238  22.681  0.00  0.00    -0.044 C 
ATOM     14  C   UNL     1      -6.462  17.261  23.337  0.00  0.00    -0.046 C 
ATOM     15  C   UNL     1      -5.801  18.143  24.364  0.00  0.00    +0.139 C 
ATOM     16  C   UNL     1      -5.216  19.396  23.656  0.00  0.00    +0.171 C 
ATOM     17  O   UNL     1      -3.998  19.614  23.689  0.00  0.00    -0.294 OA
ATOM     18  C   UNL     1      -4.261  15.358  20.282  0.00  0.00    +0.224 C 
ATOM     19  O   UNL     1      -3.453  16.086  20.837  0.00  0.00    -0.275 OA
ATOM     20  N   UNL     1      -3.877  14.220  19.634  0.00  0.00    -0.311 N 
ATOM     21  C   UNL     1      -4.940  13.476  19.037  0.00  0.00    +0.032 C 
ATOM     22  H   UNL     1      -7.201  20.011  23.056  0.00  0.00    +0.038 HD
ATOM     23  H   UNL     1      -4.743  20.485  21.272  0.00  0.00    +0.031 HD
ATOM     24  H   UNL     1      -6.287  21.258  20.953  0.00  0.00    +0.031 HD
ATOM     25  H   UNL     1      -7.414  19.104  20.542  0.00  0.00    +0.057 HD
ATOM     26  H   UNL     1      -4.468  18.267  20.349  0.00  0.00    +0.057 HD
ATOM     27  H   UNL     1      -7.149  17.072  19.402  0.00  0.00    +0.038 HD
ATOM     28  H   UNL     1      -4.444  17.106  17.984  0.00  0.00    +0.065 HD
ATOM     29  H   UNL     1      -4.761  16.332  15.509  0.00  0.00    +0.054 HD
ATOM     30  H   UNL     1      -5.659  14.731  15.332  0.00  0.00    +0.054 HD
ATOM     31  H   UNL     1      -7.763  15.352  18.135  0.00  0.00    +0.035 HD
ATOM     32  H   UNL     1      -6.966  13.746  19.743  0.00  0.00    +0.034 HD
ATOM     33  H   UNL     1      -6.429  14.382  21.887  0.00  0.00    +0.079 HD
ATOM     34  H   UNL     1      -4.865  15.959  22.959  0.00  0.00    +0.061 HD
ATOM     35  H   UNL     1      -7.475  17.548  23.063  0.00  0.00    +0.060 HD
ATOM     36  H   UNL     1      -2.896  13.970  19.593  0.00  0.00    +0.149 HD
ATOM     37  H   UNL     1      -4.675  13.404  17.977  0.00  0.00    +0.050 HD
ENDROOT
BRANCH   1  38
ATOM     38  C   UNL     1      -6.033  21.733  23.539  0.00  0.00    -0.055 C 
ATOM     39  H   UNL     1      -6.069  21.690  24.633  0.00  0.00    +0.024 HD
ATOM     40  H   UNL     1      -6.845  22.387  23.206  0.00  0.00    +0.024 HD
ATOM     41  H   UNL     1      -5.085  22.198  23.249  0.00  0.00    +0.024 HD
ENDBRANCH   1  38
BRANCH  15  42
ATOM     42  C   UNL     1      -6.760  18.542  25.481  0.00  0.00    -0.025 C 
ATOM     43  H   UNL     1      -7.766  18.768  25.112  0.00  0.00    +0.026 HD
ATOM     44  H   UNL     1      -6.843  17.746  26.232  0.00  0.00    +0.026 HD
ATOM     45  H   UNL     1      -6.392  19.431  26.008  0.00  0.00    +0.026 HD
ENDBRANCH  15  42
BRANCH   9  46
ATOM     46  C   UNL     1      -7.327  13.592  17.073  0.00  0.00    -0.058 C 
ATOM     47  H   UNL     1      -7.793  12.845  17.725  0.00  0.00    +0.024 HD
ATOM     48  H   UNL     1      -8.083  13.901  16.342  0.00  0.00    +0.024 HD
ATOM     49  H   UNL     1      -6.516  13.098  16.530  0.00  0.00    +0.024 HD
ENDBRANCH   9  46
BRANCH  21  50
ATOM     50  C   UNL     1      -5.034  12.026  19.560  0.00  0.00    -0.009 C 
ATOM     51  H   UNL     1      -4.128  11.801  20.136  0.00  0.00    +0.033 HD
ATOM     52  H   UNL     1      -5.859  11.968  20.284  0.00  0.00    +0.033 HD
BRANCH  50  53
ATOM     53  C   UNL     1      -5.262  10.942  18.535  0.00  0.00    -0.046 A 
ATOM     54  C   UNL     1      -6.024   9.812  18.855  0.00  0.00    -0.059 A 
ATOM     55  C   UNL     1      -6.224   8.799  17.915  0.00  0.00    -0.062 A 
ATOM     56  C   UNL     1      -5.673   8.907  16.642  0.00  0.00    -0.062 A 
ATOM     57  C   UNL     1      -4.927  10.033  16.304  0.00  0.00    -0.062 A 
ATOM     58  C   UNL     1      -4.728  11.046  17.243  0.00  0.00    -0.059 A 
ATOM     59  H   UNL     1      -6.453   9.693  19.849  0.00  0.00    +0.062 HD
ATOM     60  H   UNL     1      -6.799   7.918  18.188  0.00  0.00    +0.062 HD
ATOM     61  H   UNL     1      -5.822   8.113  15.915  0.00  0.00    +0.062 HD
ATOM     62  H   UNL     1      -4.497  10.120  15.310  0.00  0.00    +0.062 HD
ATOM     63  H   UNL     1      -4.146  11.918  16.952  0.00  0.00    +0.062 HD
ENDBRANCH  50  53
ENDBRANCH  21  50
BRANCH  15  64
ATOM     64  O   UNL     1      -4.733  17.423  24.988  0.00  0.00    -0.377 OA
ATOM     65  H   UNL     1      -3.909  17.864  24.693  0.00  0.00    +0.211 HD
ENDBRANCH  15  64
BRANCH   6  66
ATOM     66  O   UNL     1      -6.109  18.106  17.315  0.00  0.00    -0.387 OA
ATOM     67  H   UNL     1      -7.019  18.198  17.646  0.00  0.00    +0.210 HD
ENDBRANCH   6  66
BRANCH  12  68
ATOM     68  O   UNL     1      -7.862  15.838  21.394  0.00  0.00    -0.456 OA
BRANCH  68  69
ATOM     69  C   UNL     1      -8.855  14.964  21.687  0.00  0.00    +0.305 C 
ATOM     70  O   UNL     1      -9.035  14.404  22.757  0.00  0.00    -0.251 OA
BRANCH  69  71
ATOM     71  C   UNL     1      -9.698  14.733  20.470  0.00  0.00    +0.033 C 
ATOM     72  H   UNL     1     -10.661  14.311  20.766  0.00  0.00    +0.034 HD
ATOM     73  H   UNL     1      -9.865  15.685  19.958  0.00  0.00    +0.034 HD
ATOM     74  H   UNL     1      -9.180  14.062  19.779  0.00  0.00    +0.034 HD
ENDBRANCH  69  71
ENDBRANCH  68  69
ENDBRANCH  12  68
TORSDOF 10
ENDMDL
MODEL 8
REMARK VINA RESULT:      -6.0     11.533     13.639
REMARK  Name = Cytochalasin D_conf1
REMARK  10 active torsions:
REMARK  status: ('A' for Active; 'I' for Inactive)
REMARK    1  A    between atoms: C_1  and  C_2
REMARK    2  A    between atoms: C_7  and  O_37
REMARK    3  A    between atoms: C_10  and  C_36
REMARK    4  A    between atoms: C_13  and  O_21
REMARK    5  A    between atoms: C_16  and  C_19
REMARK    6  A    between atoms: C_16  and  O_20
REMARK    7  A    between atoms: O_21  and  C_22
REMARK    8  A    between atoms: C_22  and  C_24
REMARK    9  A    between atoms: C_28  and  C_29
REMARK   10  A    between atoms: C_29  and  C_30
REMARK                            x       y       z     vdW  Elec       q    Type
REMARK                         _______ _______ _______ _____ _____    ______ ____
ROOT
ATOM      1  C   UNL     1      -5.827  19.629  24.106  0.00  0.00    +0.021 C 
ATOM      2  C   UNL     1      -4.795  19.638  22.965  0.00  0.00    -0.025 C 
ATOM      3  C   UNL     1      -5.217  18.784  21.798  0.00  0.00    -0.087 C 
ATOM      4  C   UNL     1      -4.642  17.613  21.477  0.00  0.00    -0.081 C 
ATOM      5  C   UNL     1      -5.071  16.736  20.300  0.00  0.00    +0.025 C 
ATOM      6  C   UNL     1      -3.909  16.669  19.267  0.00  0.00    +0.084 C 
ATOM      7  C   UNL     1      -4.194  15.755  18.093  0.00  0.00    -0.045 C 
ATOM      8  C   UNL     1      -3.230  15.491  17.191  0.00  0.00    -0.097 C 
ATOM      9  C   UNL     1      -5.598  15.184  18.055  0.00  0.00    -0.015 C 
ATOM     10  C   UNL     1      -5.883  14.422  19.374  0.00  0.00    +0.002 C 
ATOM     11  C   UNL     1      -5.608  15.301  20.673  0.00  0.00    +0.101 C 
ATOM     12  C   UNL     1      -6.920  15.345  21.534  0.00  0.00    +0.136 C 
ATOM     13  C   UNL     1      -6.746  15.774  22.977  0.00  0.00    -0.044 C 
ATOM     14  C   UNL     1      -7.226  16.892  23.554  0.00  0.00    -0.046 C 
ATOM     15  C   UNL     1      -6.928  17.364  24.954  0.00  0.00    +0.139 C 
ATOM     16  C   UNL     1      -5.715  18.334  24.913  0.00  0.00    +0.171 C 
ATOM     17  O   UNL     1      -4.676  18.051  25.524  0.00  0.00    -0.294 OA
ATOM     18  C   UNL     1      -4.512  14.506  21.377  0.00  0.00    +0.224 C 
ATOM     19  O   UNL     1      -3.907  14.814  22.392  0.00  0.00    -0.275 OA
ATOM     20  N   UNL     1      -4.230  13.360  20.692  0.00  0.00    -0.311 N 
ATOM     21  C   UNL     1      -5.025  13.141  19.526  0.00  0.00    +0.032 C 
ATOM     22  H   UNL     1      -6.837  19.723  23.694  0.00  0.00    +0.038 HD
ATOM     23  H   UNL     1      -3.811  19.321  23.334  0.00  0.00    +0.031 HD
ATOM     24  H   UNL     1      -4.667  20.660  22.588  0.00  0.00    +0.031 HD
ATOM     25  H   UNL     1      -6.042  19.162  21.196  0.00  0.00    +0.057 HD
ATOM     26  H   UNL     1      -3.815  17.249  22.088  0.00  0.00    +0.057 HD
ATOM     27  H   UNL     1      -5.889  17.279  19.806  0.00  0.00    +0.038 HD
ATOM     28  H   UNL     1      -2.979  16.350  19.757  0.00  0.00    +0.065 HD
ATOM     29  H   UNL     1      -2.247  15.948  17.282  0.00  0.00    +0.054 HD
ATOM     30  H   UNL     1      -3.382  14.847  16.332  0.00  0.00    +0.054 HD
ATOM     31  H   UNL     1      -6.289  16.038  18.005  0.00  0.00    +0.035 HD
ATOM     32  H   UNL     1      -6.936  14.135  19.330  0.00  0.00    +0.034 HD
ATOM     33  H   UNL     1      -7.369  14.348  21.580  0.00  0.00    +0.079 HD
ATOM     34  H   UNL     1      -6.146  15.098  23.585  0.00  0.00    +0.061 HD
ATOM     35  H   UNL     1      -7.824  17.574  22.953  0.00  0.00    +0.060 HD
ATOM     36  H   UNL     1      -3.491  12.748  21.017  0.00  0.00    +0.149 HD
ATOM     37  H   UNL     1      -4.307  13.049  18.706  0.00  0.00    +0.050 HD
ENDROOT
BRANCH   1  38
ATOM     38  C   UNL     1      -5.598  20.805  25.056  0.00  0.00    -0.055 C 
ATOM     39  H   UNL     1      -6.300  21.623  24.859  0.00  0.00    +0.024 HD
ATOM     40  H   UNL     1      -4.584  21.204  24.944  0.00  0.00    +0.024 HD
ATOM     41  H   UNL     1      -5.725  20.494  26.098  0.00  0.00    +0.024 HD
ENDBRANCH   1  38
BRANCH  15  42
ATOM     42  C   UNL     1      -8.138  18.025  25.607  0.00  0.00    -0.025 C 
ATOM     43  H   UNL     1      -8.373  17.598  26.588  0.00  0.00    +0.026 HD
ATOM     44  H   UNL     1      -7.976  19.103  25.734  0.00  0.00    +0.026 HD
ATOM     45  H   UNL     1      -9.026  17.915  24.974  0.00  0.00    +0.026 HD
ENDBRANCH  15  42
BRANCH   9  46
ATOM     46  C   UNL     1      -5.951  14.332  16.826  0.00  0.00    -0.058 C 
ATOM     47  H   UNL     1      -5.876  14.930  15.912  0.00  0.00    +0.024 HD
ATOM     48  H   UNL     1      -5.254  13.492  16.724  0.00  0.00    +0.024 HD
ATOM     49  H   UNL     1      -6.965  13.922  16.872  0.00  0.00    +0.024 HD
ENDBRANCH   9  46
BRANCH  21  50
ATOM     50  C   UNL     1      -5.809  11.812  19.568  0.00  0.00    -0.009 C 
ATOM     51  H   UNL     1      -5.600  11.309  20.521  0.00  0.00    +0.033 HD
ATOM     52  H   UNL     1      -6.884  12.039  19.591  0.00  0.00    +0.033 HD
BRANCH  50  53
ATOM     53  C   UNL     1      -5.581  10.846  18.430  0.00  0.00    -0.046 A 
ATOM     54  C   UNL     1      -4.763  11.201  17.351  0.00  0.00    -0.059 A 
ATOM     55  C   UNL     1      -4.562  10.318  16.289  0.00  0.00    -0.062 A 
ATOM     56  C   UNL     1      -5.168   9.065  16.297  0.00  0.00    -0.062 A 
ATOM     57  C   UNL     1      -5.969   8.691  17.372  0.00  0.00    -0.062 A 
ATOM     58  C   UNL     1      -6.170   9.573  18.434  0.00  0.00    -0.059 A 
ATOM     59  H   UNL     1      -4.291  12.182  17.310  0.00  0.00    +0.062 HD
ATOM     60  H   UNL     1      -3.943  10.620  15.448  0.00  0.00    +0.062 HD
ATOM     61  H   UNL     1      -5.017   8.382  15.465  0.00  0.00    +0.062 HD
ATOM     62  H   UNL     1      -6.442   7.713  17.381  0.00  0.00    +0.062 HD
ATOM     63  H   UNL     1      -6.796   9.255  19.265  0.00  0.00    +0.062 HD
ENDBRANCH  50  53
ENDBRANCH  21  50
BRANCH  15  64
ATOM     64  O   UNL     1      -6.594  16.237  25.771  0.00  0.00    -0.377 OA
ATOM     65  H   UNL     1      -7.223  16.259  26.521  0.00  0.00    +0.211 HD
ENDBRANCH  15  64
BRANCH   6  66
ATOM     66  O   UNL     1      -3.689  17.971  18.714  0.00  0.00    -0.387 OA
ATOM     67  H   UNL     1      -3.070  18.426  19.311  0.00  0.00    +0.210 HD
ENDBRANCH   6  66
BRANCH  12  68
ATOM     68  O   UNL     1      -7.838  16.282  20.905  0.00  0.00    -0.456 OA
BRANCH  68  69
ATOM     69  C   UNL     1      -9.043  15.842  20.472  0.00  0.00    +0.305 C 
ATOM     70  O   UNL     1      -9.884  15.259  21.138  0.00  0.00    -0.251 OA
BRANCH  69  71
ATOM     71  C   UNL     1      -9.189  16.133  19.009  0.00  0.00    +0.033 C 
ATOM     72  H   UNL     1      -8.222  16.431  18.596  0.00  0.00    +0.034 HD
ATOM     73  H   UNL     1      -9.537  15.233  18.493  0.00  0.00    +0.034 HD
ATOM     74  H   UNL     1      -9.932  16.920  18.857  0.00  0.00    +0.034 HD
ENDBRANCH  69  71
ENDBRANCH  68  69
ENDBRANCH  12  68
TORSDOF 10
ENDMDL
MODEL 9
REMARK VINA RESULT:      -5.9     18.423     21.080
REMARK  Name = Cytochalasin D_conf1
REMARK  10 active torsions:
REMARK  status: ('A' for Active; 'I' for Inactive)
REMARK    1  A    between atoms: C_1  and  C_2
REMARK    2  A    between atoms: C_7  and  O_37
REMARK    3  A    between atoms: C_10  and  C_36
REMARK    4  A    between atoms: C_13  and  O_21
REMARK    5  A    between atoms: C_16  and  C_19
REMARK    6  A    between atoms: C_16  and  O_20
REMARK    7  A    between atoms: O_21  and  C_22
REMARK    8  A    between atoms: C_22  and  C_24
REMARK    9  A    between atoms: C_28  and  C_29
REMARK   10  A    between atoms: C_29  and  C_30
REMARK                            x       y       z     vdW  Elec       q    Type
REMARK                         _______ _______ _______ _____ _____    ______ ____
ROOT
ATOM      1  C   UNL     1     -11.967  10.291  23.156  0.00  0.00    +0.021 C 
ATOM      2  C   UNL     1     -11.720   8.804  22.848  0.00  0.00    -0.025 C 
ATOM      3  C   UNL     1     -11.835   7.934  24.073  0.00  0.00    -0.087 C 
ATOM      4  C   UNL     1     -10.788   7.345  24.677  0.00  0.00    -0.081 C 
ATOM      5  C   UNL     1     -10.895   6.468  25.926  0.00  0.00    +0.025 C 
ATOM      6  C   UNL     1     -10.475   5.015  25.564  0.00  0.00    +0.084 C 
ATOM      7  C   UNL     1     -10.463   4.073  26.751  0.00  0.00    -0.045 C 
ATOM      8  C   UNL     1      -9.990   2.820  26.617  0.00  0.00    -0.097 C 
ATOM      9  C   UNL     1     -10.994   4.667  28.041  0.00  0.00    -0.015 C 
ATOM     10  C   UNL     1     -10.187   5.943  28.394  0.00  0.00    +0.002 C 
ATOM     11  C   UNL     1     -10.137   6.998  27.203  0.00  0.00    +0.101 C 
ATOM     12  C   UNL     1     -10.701   8.367  27.724  0.00  0.00    +0.136 C 
ATOM     13  C   UNL     1     -10.360   9.582  26.883  0.00  0.00    -0.044 C 
ATOM     14  C   UNL     1     -11.216  10.353  26.187  0.00  0.00    -0.046 C 
ATOM     15  C   UNL     1     -10.839  11.473  25.252  0.00  0.00    +0.139 C 
ATOM     16  C   UNL     1     -10.729  10.911  23.807  0.00  0.00    +0.171 C 
ATOM     17  O   UNL     1      -9.650  10.964  23.203  0.00  0.00    -0.294 OA
ATOM     18  C   UNL     1      -8.642   7.091  26.914  0.00  0.00    +0.224 C 
ATOM     19  O   UNL     1      -8.095   7.722  26.023  0.00  0.00    -0.275 OA
ATOM     20  N   UNL     1      -7.932   6.314  27.783  0.00  0.00    -0.311 N 
ATOM     21  C   UNL     1      -8.716   5.639  28.769  0.00  0.00    +0.032 C 
ATOM     22  H   UNL     1     -12.828  10.394  23.824  0.00  0.00    +0.038 HD
ATOM     23  H   UNL     1     -10.740   8.667  22.373  0.00  0.00    +0.031 HD
ATOM     24  H   UNL     1     -12.464   8.445  22.127  0.00  0.00    +0.031 HD
ATOM     25  H   UNL     1     -12.837   7.793  24.475  0.00  0.00    +0.057 HD
ATOM     26  H   UNL     1      -9.791   7.493  24.263  0.00  0.00    +0.057 HD
ATOM     27  H   UNL     1     -11.967   6.425  26.170  0.00  0.00    +0.038 HD
ATOM     28  H   UNL     1      -9.485   5.010  25.088  0.00  0.00    +0.065 HD
ATOM     29  H   UNL     1      -9.634   2.464  25.653  0.00  0.00    +0.054 HD
ATOM     30  H   UNL     1      -9.962   2.107  27.433  0.00  0.00    +0.054 HD
ATOM     31  H   UNL     1     -12.033   4.971  27.849  0.00  0.00    +0.035 HD
ATOM     32  H   UNL     1     -10.687   6.380  29.263  0.00  0.00    +0.034 HD
ATOM     33  H   UNL     1     -10.299   8.581  28.719  0.00  0.00    +0.079 HD
ATOM     34  H   UNL     1      -9.297   9.822  26.838  0.00  0.00    +0.061 HD
ATOM     35  H   UNL     1     -12.277  10.118  26.224  0.00  0.00    +0.060 HD
ATOM     36  H   UNL     1      -6.927   6.241  27.688  0.00  0.00    +0.149 HD
ATOM     37  H   UNL     1      -8.486   4.577  28.635  0.00  0.00    +0.050 HD
ENDROOT
BRANCH   1  38
ATOM     38  C   UNL     1     -12.272  11.067  21.875  0.00  0.00    -0.055 C 
ATOM     39  H   UNL     1     -13.211  11.625  21.957  0.00  0.00    +0.024 HD
ATOM     40  H   UNL     1     -12.364  10.388  21.021  0.00  0.00    +0.024 HD
ATOM     41  H   UNL     1     -11.472  11.782  21.653  0.00  0.00    +0.024 HD
ENDBRANCH   1  38
BRANCH  15  42
ATOM     42  C   UNL     1     -11.829  12.632  25.315  0.00  0.00    -0.025 C 
ATOM     43  H   UNL     1     -12.505  12.562  26.174  0.00  0.00    +0.026 HD
ATOM     44  H   UNL     1     -11.304  13.594  25.372  0.00  0.00    +0.026 HD
ATOM     45  H   UNL     1     -12.444  12.665  24.408  0.00  0.00    +0.026 HD
ENDBRANCH  15  42
BRANCH   9  46
ATOM     46  C   UNL     1     -11.088   3.712  29.240  0.00  0.00    -0.058 C 
ATOM     47  H   UNL     1     -11.246   4.276  30.166  0.00  0.00    +0.024 HD
ATOM     48  H   UNL     1     -11.939   3.029  29.127  0.00  0.00    +0.024 HD
ATOM     49  H   UNL     1     -10.187   3.105  29.371  0.00  0.00    +0.024 HD
ENDBRANCH   9  46
BRANCH  21  50
ATOM     50  C   UNL     1      -8.306   5.993  30.215  0.00  0.00    -0.009 C 
ATOM     51  H   UNL     1      -8.352   5.082  30.826  0.00  0.00    +0.033 HD
ATOM     52  H   UNL     1      -7.248   6.290  30.217  0.00  0.00    +0.033 HD
BRANCH  50  53
ATOM     53  C   UNL     1      -9.081   7.094  30.897  0.00  0.00    -0.046 A 
ATOM     54  C   UNL     1     -10.269   6.809  31.580  0.00  0.00    -0.059 A 
ATOM     55  C   UNL     1     -10.998   7.826  32.198  0.00  0.00    -0.062 A 
ATOM     56  C   UNL     1     -10.543   9.141  32.150  0.00  0.00    -0.062 A 
ATOM     57  C   UNL     1      -9.354   9.437  31.489  0.00  0.00    -0.062 A 
ATOM     58  C   UNL     1      -8.625   8.420  30.872  0.00  0.00    -0.059 A 
ATOM     59  H   UNL     1     -10.658   5.792  31.619  0.00  0.00    +0.062 HD
ATOM     60  H   UNL     1     -11.930   7.590  32.704  0.00  0.00    +0.062 HD
ATOM     61  H   UNL     1     -11.115   9.933  32.624  0.00  0.00    +0.062 HD
ATOM     62  H   UNL     1      -8.996  10.463  31.451  0.00  0.00    +0.062 HD
ATOM     63  H   UNL     1      -7.696   8.677  30.368  0.00  0.00    +0.062 HD
ENDBRANCH  50  53
ENDBRANCH  21  50
BRANCH  15  64
ATOM     64  O   UNL     1      -9.569  12.005  25.640  0.00  0.00    -0.377 OA
ATOM     65  H   UNL     1      -9.704  12.971  25.734  0.00  0.00    +0.211 HD
ENDBRANCH  15  64
BRANCH   6  66
ATOM     66  O   UNL     1     -11.412   4.467  24.631  0.00  0.00    -0.387 OA
ATOM     67  H   UNL     1     -11.212   4.868  23.767  0.00  0.00    +0.210 HD
ENDBRANCH   6  66
BRANCH  12  68
ATOM     68  O   UNL     1     -12.150   8.265  27.777  0.00  0.00    -0.456 OA
BRANCH  68  69
ATOM     69  C   UNL     1     -12.793   8.526  28.940  0.00  0.00    +0.305 C 
ATOM     70  O   UNL     1     -12.828   9.598  29.524  0.00  0.00    -0.251 OA
BRANCH  69  71
ATOM     71  C   UNL     1     -13.432   7.272  29.455  0.00  0.00    +0.033 C 
ATOM     72  H   UNL     1     -14.318   7.526  30.042  0.00  0.00    +0.034 HD
ATOM     73  H   UNL     1     -13.729   6.643  28.611  0.00  0.00    +0.034 HD
ATOM     74  H   UNL     1     -12.716   6.710  30.062  0.00  0.00    +0.034 HD
ENDBRANCH  69  71
ENDBRANCH  68  69
ENDBRANCH  12  68
TORSDOF 10
ENDMDL
MODEL 10
REMARK VINA RESULT:      -5.8     11.637     14.566
REMARK  Name = Cytochalasin D_conf1
REMARK  10 active torsions:
REMARK  status: ('A' for Active; 'I' for Inactive)
REMARK    1  A    between atoms: C_1  and  C_2
REMARK    2  A    between atoms: C_7  and  O_37
REMARK    3  A    between atoms: C_10  and  C_36
REMARK    4  A    between atoms: C_13  and  O_21
REMARK    5  A    between atoms: C_16  and  C_19
REMARK    6  A    between atoms: C_16  and  O_20
REMARK    7  A    between atoms: O_21  and  C_22
REMARK    8  A    between atoms: C_22  and  C_24
REMARK    9  A    between atoms: C_28  and  C_29
REMARK   10  A    between atoms: C_29  and  C_30
REMARK                            x       y       z     vdW  Elec       q    Type
REMARK                         _______ _______ _______ _____ _____    ______ ____
ROOT
ATOM      1  C   UNL     1      -6.344  21.261  19.355  0.00  0.00    +0.021 C 
ATOM      2  C   UNL     1      -7.373  20.646  18.390  0.00  0.00    -0.025 C 
ATOM      3  C   UNL     1      -7.672  19.204  18.707  0.00  0.00    -0.087 C 
ATOM      4  C   UNL     1      -7.267  18.169  17.951  0.00  0.00    -0.081 C 
ATOM      5  C   UNL     1      -7.558  16.702  18.270  0.00  0.00    +0.025 C 
ATOM      6  C   UNL     1      -8.475  16.113  17.160  0.00  0.00    +0.084 C 
ATOM      7  C   UNL     1      -8.762  14.634  17.331  0.00  0.00    -0.045 C 
ATOM      8  C   UNL     1      -9.427  13.959  16.376  0.00  0.00    -0.097 C 
ATOM      9  C   UNL     1      -8.231  14.027  18.615  0.00  0.00    -0.015 C 
ATOM     10  C   UNL     1      -6.702  14.264  18.706  0.00  0.00    +0.002 C 
ATOM     11  C   UNL     1      -6.296  15.793  18.533  0.00  0.00    +0.101 C 
ATOM     12  C   UNL     1      -5.475  16.239  19.795  0.00  0.00    +0.136 C 
ATOM     13  C   UNL     1      -4.664  17.509  19.636  0.00  0.00    -0.044 C 
ATOM     14  C   UNL     1      -4.852  18.678  20.278  0.00  0.00    -0.046 C 
ATOM     15  C   UNL     1      -4.118  19.966  20.007  0.00  0.00    +0.139 C 
ATOM     16  C   UNL     1      -4.931  20.806  18.984  0.00  0.00    +0.171 C 
ATOM     17  O   UNL     1      -4.437  21.093  17.887  0.00  0.00    -0.294 OA
ATOM     18  C   UNL     1      -5.417  15.758  17.286  0.00  0.00    +0.224 C 
ATOM     19  O   UNL     1      -4.920  16.707  16.701  0.00  0.00    -0.275 OA
ATOM     20  N   UNL     1      -5.265  14.478  16.839  0.00  0.00    -0.311 N 
ATOM     21  C   UNL     1      -5.906  13.479  17.633  0.00  0.00    +0.032 C 
ATOM     22  H   UNL     1      -6.574  20.960  20.382  0.00  0.00    +0.038 HD
ATOM     23  H   UNL     1      -7.034  20.747  17.351  0.00  0.00    +0.031 HD
ATOM     24  H   UNL     1      -8.321  21.195  18.459  0.00  0.00    +0.031 HD
ATOM     25  H   UNL     1      -8.251  19.016  19.610  0.00  0.00    +0.057 HD
ATOM     26  H   UNL     1      -6.690  18.372  17.048  0.00  0.00    +0.057 HD
ATOM     27  H   UNL     1      -8.159  16.710  19.191  0.00  0.00    +0.038 HD
ATOM     28  H   UNL     1      -8.034  16.283  16.169  0.00  0.00    +0.065 HD
ATOM     29  H   UNL     1      -9.784  14.469  15.485  0.00  0.00    +0.054 HD
ATOM     30  H   UNL     1      -9.660  12.902  16.451  0.00  0.00    +0.054 HD
ATOM     31  H   UNL     1      -8.704  14.570  19.446  0.00  0.00    +0.035 HD
ATOM     32  H   UNL     1      -6.403  13.905  19.695  0.00  0.00    +0.034 HD
ATOM     33  H   UNL     1      -4.751  15.463  20.061  0.00  0.00    +0.079 HD
ATOM     34  H   UNL     1      -3.861  17.449  18.902  0.00  0.00    +0.061 HD
ATOM     35  H   UNL     1      -5.653  18.747  21.011  0.00  0.00    +0.060 HD
ATOM     36  H   UNL     1      -4.740  14.299  15.991  0.00  0.00    +0.149 HD
ATOM     37  H   UNL     1      -6.581  12.959  16.945  0.00  0.00    +0.050 HD
ENDROOT
BRANCH   1  38
ATOM     38  C   UNL     1      -6.387  22.788  19.293  0.00  0.00    -0.055 C 
ATOM     39  H   UNL     1      -7.046  23.140  18.492  0.00  0.00    +0.024 HD
ATOM     40  H   UNL     1      -5.389  23.198  19.106  0.00  0.00    +0.024 HD
ATOM     41  H   UNL     1      -6.751  23.205  20.238  0.00  0.00    +0.024 HD
ENDBRANCH   1  38
BRANCH  15  42
ATOM     42  C   UNL     1      -3.857  20.758  21.284  0.00  0.00    -0.025 C 
ATOM     43  H   UNL     1      -4.133  21.814  21.189  0.00  0.00    +0.026 HD
ATOM     44  H   UNL     1      -4.413  20.335  22.130  0.00  0.00    +0.026 HD
ATOM     45  H   UNL     1      -2.796  20.715  21.555  0.00  0.00    +0.026 HD
ENDBRANCH  15  42
BRANCH   9  46
ATOM     46  C   UNL     1      -8.587  12.554  18.867  0.00  0.00    -0.058 C 
ATOM     47  H   UNL     1      -9.623  12.355  18.571  0.00  0.00    +0.024 HD
ATOM     48  H   UNL     1      -7.946  11.893  18.272  0.00  0.00    +0.024 HD
ATOM     49  H   UNL     1      -8.482  12.266  19.918  0.00  0.00    +0.024 HD
ENDBRANCH   9  46
BRANCH  21  50
ATOM     50  C   UNL     1      -4.929  12.412  18.171  0.00  0.00    -0.009 C 
ATOM     51  H   UNL     1      -3.925  12.628  17.784  0.00  0.00    +0.033 HD
ATOM     52  H   UNL     1      -4.849  12.527  19.261  0.00  0.00    +0.033 HD
BRANCH  50  53
ATOM     53  C   UNL     1      -5.273  10.968  17.898  0.00  0.00    -0.046 A 
ATOM     54  C   UNL     1      -5.003  10.397  16.649  0.00  0.00    -0.059 A 
ATOM     55  C   UNL     1      -5.334   9.067  16.386  0.00  0.00    -0.062 A 
ATOM     56  C   UNL     1      -5.930   8.287  17.373  0.00  0.00    -0.062 A 
ATOM     57  C   UNL     1      -6.189   8.836  18.626  0.00  0.00    -0.062 A 
ATOM     58  C   UNL     1      -5.857  10.165  18.889  0.00  0.00    -0.059 A 
ATOM     59  H   UNL     1      -4.553  10.989  15.853  0.00  0.00    +0.062 HD
ATOM     60  H   UNL     1      -5.139   8.647  15.403  0.00  0.00    +0.062 HD
ATOM     61  H   UNL     1      -6.196   7.254  17.164  0.00  0.00    +0.062 HD
ATOM     62  H   UNL     1      -6.654   8.228  19.398  0.00  0.00    +0.062 HD
ATOM     63  H   UNL     1      -6.064  10.568  19.877  0.00  0.00    +0.062 HD
ENDBRANCH  50  53
ENDBRANCH  21  50
BRANCH  15  64
ATOM     64  O   UNL     1      -2.835  19.669  19.447  0.00  0.00    -0.377 OA
ATOM     65  H   UNL     1      -2.212  19.665  20.203  0.00  0.00    +0.211 HD
ENDBRANCH  15  64
BRANCH   6  66
ATOM     66  O   UNL     1      -9.746  16.771  17.194  0.00  0.00    -0.387 OA
ATOM     67  H   UNL     1     -10.373  16.190  16.729  0.00  0.00    +0.210 HD
ENDBRANCH   6  66
BRANCH  12  68
ATOM     68  O   UNL     1      -6.411  16.451  20.887  0.00  0.00    -0.456 OA
BRANCH  68  69
ATOM     69  C   UNL     1      -6.235  15.782  22.052  0.00  0.00    +0.305 C 
ATOM     70  O   UNL     1      -5.267  15.859  22.792  0.00  0.00    -0.251 OA
BRANCH  69  71
ATOM     71  C   UNL     1      -7.400  14.870  22.291  0.00  0.00    +0.033 C 
ATOM     72  H   UNL     1      -7.038  13.869  22.537  0.00  0.00    +0.034 HD
ATOM     73  H   UNL     1      -7.995  15.253  23.126  0.00  0.00    +0.034 HD
ATOM     74  H   UNL     1      -8.040  14.841  21.404  0.00  0.00    +0.034 HD
ENDBRANCH  69  71
ENDBRANCH  68  69
ENDBRANCH  12  68
TORSDOF 10
ENDMDL
