MODEL 1
REMARK VINA RESULT:      -6.9      0.000      0.000
REMARK  Name = Cytochalasin D_conf3
REMARK  10 active torsions:
REMARK  status: ('A' for Active; 'I' for Inactive)
REMARK    1  A    between atoms: C_1  and  C_2
REMARK    2  A    between atoms: C_7  and  O_37
REMARK    3  A    between atoms: C_10  and  C_36
REMARK    4  A    between atoms: C_13  and  O_21
REMARK    5  A    between atoms: C_16  and  C_19
REMARK    6  A    between atoms: C_16  and  O_20
REMARK    7  A    between atoms: O_21  and  C_22
REMARK    8  A    between atoms: C_22  and  C_24
REMARK    9  A    between atoms: C_28  and  C_29
REMARK   10  A    between atoms: C_29  and  C_30
REMARK                            x       y       z     vdW  Elec       q    Type
REMARK                         _______ _______ _______ _____ _____    ______ ____
ROOT
ATOM      1  C   UNL     1      -6.026  19.711  24.113  0.00  0.00    +0.021 C 
ATOM      2  C   UNL     1      -4.946  19.403  23.064  0.00  0.00    -0.025 C 
ATOM      3  C   UNL     1      -5.416  18.602  21.878  0.00  0.00    -0.087 C 
ATOM      4  C   UNL     1      -4.730  17.549  21.397  0.00  0.00    -0.081 C 
ATOM      5  C   UNL     1      -5.181  16.646  20.248  0.00  0.00    +0.025 C 
ATOM      6  C   UNL     1      -4.242  16.930  19.034  0.00  0.00    +0.084 C 
ATOM      7  C   UNL     1      -4.355  15.913  17.923  0.00  0.00    -0.045 C 
ATOM      8  C   UNL     1      -3.367  15.760  17.023  0.00  0.00    -0.097 C 
ATOM      9  C   UNL     1      -5.634  15.111  17.962  0.00  0.00    -0.015 C 
ATOM     10  C   UNL     1      -5.668  14.264  19.264  0.00  0.00    +0.002 C 
ATOM     11  C   UNL     1      -5.272  15.104  20.563  0.00  0.00    +0.101 C 
ATOM     12  C   UNL     1      -6.255  14.729  21.725  0.00  0.00    +0.136 C 
ATOM     13  C   UNL     1      -5.979  15.409  23.053  0.00  0.00    -0.044 C 
ATOM     14  C   UNL     1      -6.798  16.274  23.682  0.00  0.00    -0.046 C 
ATOM     15  C   UNL     1      -6.482  17.169  24.865  0.00  0.00    +0.139 C 
ATOM     16  C   UNL     1      -7.001  18.584  24.460  0.00  0.00    +0.171 C 
ATOM     17  O   UNL     1      -8.218  18.817  24.395  0.00  0.00    -0.294 OA
ATOM     18  C   UNL     1      -3.900  14.539  20.902  0.00  0.00    +0.224 C 
ATOM     19  O   UNL     1      -3.102  14.984  21.710  0.00  0.00    -0.275 OA
ATOM     20  N   UNL     1      -3.669  13.404  20.179  0.00  0.00    -0.311 N 
ATOM     21  C   UNL     1      -4.707  13.048  19.251  0.00  0.00    +0.032 C 
ATOM     22  H   UNL     1      -6.657  20.501  23.677  0.00  0.00    +0.038 HD
ATOM     23  H   UNL     1      -4.086  18.913  23.539  0.00  0.00    +0.031 HD
ATOM     24  H   UNL     1      -4.561  20.359  22.683  0.00  0.00    +0.031 HD
ATOM     25  H   UNL     1      -6.363  18.890  21.424  0.00  0.00    +0.057 HD
ATOM     26  H   UNL     1      -3.770  17.303  21.850  0.00  0.00    +0.057 HD
ATOM     27  H   UNL     1      -6.193  16.978  19.974  0.00  0.00    +0.038 HD
ATOM     28  H   UNL     1      -3.195  16.993  19.363  0.00  0.00    +0.065 HD
ATOM     29  H   UNL     1      -2.479  16.385  17.060  0.00  0.00    +0.054 HD
ATOM     30  H   UNL     1      -3.415  15.039  16.215  0.00  0.00    +0.054 HD
ATOM     31  H   UNL     1      -6.457  15.838  18.027  0.00  0.00    +0.035 HD
ATOM     32  H   UNL     1      -6.699  13.904  19.342  0.00  0.00    +0.034 HD
ATOM     33  H   UNL     1      -6.176  13.652  21.916  0.00  0.00    +0.079 HD
ATOM     34  H   UNL     1      -5.000  15.193  23.478  0.00  0.00    +0.061 HD
ATOM     35  H   UNL     1      -7.789  16.450  23.260  0.00  0.00    +0.060 HD
ATOM     36  H   UNL     1      -2.790  12.909  20.277  0.00  0.00    +0.149 HD
ATOM     37  H   UNL     1      -4.206  12.925  18.288  0.00  0.00    +0.050 HD
ENDROOT
BRANCH   1  38
ATOM     38  C   UNL     1      -5.422  20.292  25.389  0.00  0.00    -0.055 C 
ATOM     39  H   UNL     1      -5.202  21.359  25.267  0.00  0.00    +0.024 HD
ATOM     40  H   UNL     1      -4.489  19.781  25.643  0.00  0.00    +0.024 HD
ATOM     41  H   UNL     1      -6.101  20.194  26.242  0.00  0.00    +0.024 HD
ENDBRANCH   1  38
BRANCH  15  42
ATOM     42  C   UNL     1      -7.254  16.700  26.099  0.00  0.00    -0.025 C 
ATOM     43  H   UNL     1      -7.683  17.533  26.668  0.00  0.00    +0.026 HD
ATOM     44  H   UNL     1      -6.597  16.138  26.773  0.00  0.00    +0.026 HD
ATOM     45  H   UNL     1      -8.070  16.021  25.819  0.00  0.00    +0.026 HD
ENDBRANCH  15  42
BRANCH   9  46
ATOM     46  C   UNL     1      -5.963  14.297  16.705  0.00  0.00    -0.058 C 
ATOM     47  H   UNL     1      -6.056  14.956  15.835  0.00  0.00    +0.024 HD
ATOM     48  H   UNL     1      -6.890  13.724  16.793  0.00  0.00    +0.024 HD
ATOM     49  H   UNL     1      -5.159  13.584  16.489  0.00  0.00    +0.024 HD
ENDBRANCH   9  46
BRANCH  21  50
ATOM     50  C   UNL     1      -5.361  11.713  19.659  0.00  0.00    -0.009 C 
ATOM     51  H   UNL     1      -4.780  11.255  20.473  0.00  0.00    +0.033 HD
ATOM     52  H   UNL     1      -6.356  11.885  20.085  0.00  0.00    +0.033 HD
BRANCH  50  53
ATOM     53  C   UNL     1      -5.440  10.708  18.535  0.00  0.00    -0.046 A 
ATOM     54  C   UNL     1      -4.822  10.967  17.306  0.00  0.00    -0.059 A 
ATOM     55  C   UNL     1      -4.884  10.033  16.269  0.00  0.00    -0.062 A 
ATOM     56  C   UNL     1      -5.572   8.836  16.450  0.00  0.00    -0.062 A 
ATOM     57  C   UNL     1      -6.204   8.573  17.663  0.00  0.00    -0.062 A 
ATOM     58  C   UNL     1      -6.142   9.506  18.700  0.00  0.00    -0.059 A 
ATOM     59  H   UNL     1      -4.292  11.903  17.139  0.00  0.00    +0.062 HD
ATOM     60  H   UNL     1      -4.402  10.246  15.318  0.00  0.00    +0.062 HD
ATOM     61  H   UNL     1      -5.622   8.111  15.642  0.00  0.00    +0.062 HD
ATOM     62  H   UNL     1      -6.748   7.643  17.801  0.00  0.00    +0.062 HD
ATOM     63  H   UNL     1      -6.649   9.286  19.637  0.00  0.00    +0.062 HD
ENDBRANCH  50  53
ENDBRANCH  21  50
BRANCH  15  64
ATOM     64  O   UNL     1      -5.108  17.118  25.207  0.00  0.00    -0.377 OA
ATOM     65  H   UNL     1      -5.004  16.516  25.961  0.00  0.00    +0.211 HD
ENDBRANCH  15  64
BRANCH   6  66
ATOM     66  O   UNL     1      -4.591  18.192  18.458  0.00  0.00    -0.387 OA
ATOM     67  H   UNL     1      -5.454  18.440  18.832  0.00  0.00    +0.210 HD
ENDBRANCH   6  66
BRANCH  12  68
ATOM     68  O   UNL     1      -7.592  15.076  21.292  0.00  0.00    -0.456 OA
BRANCH  68  69
ATOM     69  C   UNL     1      -8.520  14.082  21.285  0.00  0.00    +0.305 C 
ATOM     70  O   UNL     1      -8.677  13.244  22.160  0.00  0.00    -0.251 OA
BRANCH  69  71
ATOM     71  C   UNL     1      -9.317  14.141  20.017  0.00  0.00    +0.033 C 
ATOM     72  H   UNL     1     -10.375  13.986  20.246  0.00  0.00    +0.034 HD
ATOM     73  H   UNL     1      -9.204  15.124  19.553  0.00  0.00    +0.034 HD
ATOM     74  H   UNL     1      -8.985  13.353  19.335  0.00  0.00    +0.034 HD
ENDBRANCH  69  71
ENDBRANCH  68  69
ENDBRANCH  12  68
TORSDOF 10
ENDMDL
MODEL 2
REMARK VINA RESULT:      -6.6      9.808     12.188
REMARK  Name = Cytochalasin D_conf3
REMARK  10 active torsions:
REMARK  status: ('A' for Active; 'I' for Inactive)
REMARK    1  A    between atoms: C_1  and  C_2
REMARK    2  A    between atoms: C_7  and  O_37
REMARK    3  A    between atoms: C_10  and  C_36
REMARK    4  A    between atoms: C_13  and  O_21
REMARK    5  A    between atoms: C_16  and  C_19
REMARK    6  A    between atoms: C_16  and  O_20
REMARK    7  A    between atoms: O_21  and  C_22
REMARK    8  A    between atoms: C_22  and  C_24
REMARK    9  A    between atoms: C_28  and  C_29
REMARK   10  A    between atoms: C_29  and  C_30
REMARK                            x       y       z     vdW  Elec       q    Type
REMARK                         _______ _______ _______ _____ _____    ______ ____
ROOT
ATOM      1  C   UNL     1       1.709  22.270  19.726  0.00  0.00    +0.021 C 
ATOM      2  C   UNL     1       2.348  21.019  19.102  0.00  0.00    -0.025 C 
ATOM      3  C   UNL     1       2.355  19.799  19.985  0.00  0.00    -0.087 C 
ATOM      4  C   UNL     1       3.444  19.023  20.139  0.00  0.00    -0.081 C 
ATOM      5  C   UNL     1       3.549  17.815  21.072  0.00  0.00    +0.025 C 
ATOM      6  C   UNL     1       3.619  16.538  20.177  0.00  0.00    +0.084 C 
ATOM      7  C   UNL     1       4.028  15.291  20.925  0.00  0.00    -0.045 C 
ATOM      8  C   UNL     1       4.531  14.228  20.272  0.00  0.00    -0.097 C 
ATOM      9  C   UNL     1       3.839  15.390  22.420  0.00  0.00    -0.015 C 
ATOM     10  C   UNL     1       4.771  16.498  22.982  0.00  0.00    +0.002 C 
ATOM     11  C   UNL     1       4.716  17.848  22.131  0.00  0.00    +0.101 C 
ATOM     12  C   UNL     1       4.674  19.065  23.118  0.00  0.00    +0.136 C 
ATOM     13  C   UNL     1       4.671  20.433  22.461  0.00  0.00    -0.044 C 
ATOM     14  C   UNL     1       3.676  21.338  22.528  0.00  0.00    -0.046 C 
ATOM     15  C   UNL     1       3.502  22.599  21.704  0.00  0.00    +0.139 C 
ATOM     16  C   UNL     1       2.027  22.557  21.194  0.00  0.00    +0.171 C 
ATOM     17  O   UNL     1       1.082  22.737  21.977  0.00  0.00    -0.294 OA
ATOM     18  C   UNL     1       6.073  17.844  21.441  0.00  0.00    +0.224 C 
ATOM     19  O   UNL     1       6.439  18.578  20.538  0.00  0.00    -0.275 OA
ATOM     20  N   UNL     1       6.879  16.894  21.998  0.00  0.00    -0.311 N 
ATOM     21  C   UNL     1       6.268  16.100  23.028  0.00  0.00    +0.032 C 
ATOM     22  H   UNL     1       0.621  22.099  19.704  0.00  0.00    +0.038 HD
ATOM     23  H   UNL     1       3.363  21.246  18.756  0.00  0.00    +0.031 HD
ATOM     24  H   UNL     1       1.782  20.766  18.195  0.00  0.00    +0.031 HD
ATOM     25  H   UNL     1       1.440  19.569  20.529  0.00  0.00    +0.057 HD
ATOM     26  H   UNL     1       4.337  19.257  19.559  0.00  0.00    +0.057 HD
ATOM     27  H   UNL     1       2.605  17.779  21.636  0.00  0.00    +0.038 HD
ATOM     28  H   UNL     1       4.304  16.697  19.334  0.00  0.00    +0.065 HD
ATOM     29  H   UNL     1       4.627  14.234  19.190  0.00  0.00    +0.054 HD
ATOM     30  H   UNL     1       4.836  13.319  20.777  0.00  0.00    +0.054 HD
ATOM     31  H   UNL     1       2.804  15.724  22.583  0.00  0.00    +0.035 HD
ATOM     32  H   UNL     1       4.418  16.676  24.003  0.00  0.00    +0.034 HD
ATOM     33  H   UNL     1       5.570  19.035  23.748  0.00  0.00    +0.079 HD
ATOM     34  H   UNL     1       5.545  20.643  21.847  0.00  0.00    +0.061 HD
ATOM     35  H   UNL     1       2.824  21.125  23.178  0.00  0.00    +0.060 HD
ATOM     36  H   UNL     1       7.818  16.752  21.642  0.00  0.00    +0.149 HD
ATOM     37  H   UNL     1       6.431  15.061  22.729  0.00  0.00    +0.050 HD
ENDROOT
BRANCH   1  38
ATOM     38  C   UNL     1       1.969  23.516  18.881  0.00  0.00    -0.055 C 
ATOM     39  H   UNL     1       3.038  23.756  18.859  0.00  0.00    +0.024 HD
ATOM     40  H   UNL     1       1.437  24.379  19.292  0.00  0.00    +0.024 HD
ATOM     41  H   UNL     1       1.642  23.381  17.846  0.00  0.00    +0.024 HD
ENDBRANCH   1  38
BRANCH  15  42
ATOM     42  C   UNL     1       3.678  23.834  22.590  0.00  0.00    -0.025 C 
ATOM     43  H   UNL     1       3.061  23.792  23.495  0.00  0.00    +0.026 HD
ATOM     44  H   UNL     1       3.404  24.743  22.040  0.00  0.00    +0.026 HD
ATOM     45  H   UNL     1       4.725  23.954  22.893  0.00  0.00    +0.026 HD
ENDBRANCH  15  42
BRANCH   9  46
ATOM     46  C   UNL     1       3.927  14.074  23.204  0.00  0.00    -0.058 C 
ATOM     47  H   UNL     1       3.079  13.980  23.892  0.00  0.00    +0.024 HD
ATOM     48  H   UNL     1       4.846  13.981  23.788  0.00  0.00    +0.024 HD
ATOM     49  H   UNL     1       3.886  13.218  22.520  0.00  0.00    +0.024 HD
ENDBRANCH   9  46
BRANCH  21  50
ATOM     50  C   UNL     1       6.956  16.353  24.384  0.00  0.00    -0.009 C 
ATOM     51  H   UNL     1       7.549  17.278  24.327  0.00  0.00    +0.033 HD
ATOM     52  H   UNL     1       6.211  16.544  25.165  0.00  0.00    +0.033 HD
BRANCH  50  53
ATOM     53  C   UNL     1       7.885  15.242  24.810  0.00  0.00    -0.046 A 
ATOM     54  C   UNL     1       7.410  14.175  25.582  0.00  0.00    -0.059 A 
ATOM     55  C   UNL     1       8.265  13.141  25.967  0.00  0.00    -0.062 A 
ATOM     56  C   UNL     1       9.605  13.167  25.589  0.00  0.00    -0.062 A 
ATOM     57  C   UNL     1      10.094  14.231  24.834  0.00  0.00    -0.062 A 
ATOM     58  C   UNL     1       9.240  15.265  24.449  0.00  0.00    -0.059 A 
ATOM     59  H   UNL     1       6.369  14.143  25.901  0.00  0.00    +0.062 HD
ATOM     60  H   UNL     1       7.885  12.319  26.569  0.00  0.00    +0.062 HD
ATOM     61  H   UNL     1      10.271  12.363  25.892  0.00  0.00    +0.062 HD
ATOM     62  H   UNL     1      11.142  14.256  24.547  0.00  0.00    +0.062 HD
ATOM     63  H   UNL     1       9.642  16.091  23.867  0.00  0.00    +0.062 HD
ENDBRANCH  50  53
ENDBRANCH  21  50
BRANCH  15  64
ATOM     64  O   UNL     1       4.478  22.694  20.682  0.00  0.00    -0.377 OA
ATOM     65  H   UNL     1       4.117  22.286  19.878  0.00  0.00    +0.211 HD
ENDBRANCH  15  64
BRANCH   6  66
ATOM     66  O   UNL     1       2.321  16.274  19.638  0.00  0.00    -0.387 OA
ATOM     67  H   UNL     1       1.719  16.933  20.024  0.00  0.00    +0.210 HD
ENDBRANCH   6  66
BRANCH  12  68
ATOM     68  O   UNL     1       3.478  18.931  23.922  0.00  0.00    -0.456 OA
BRANCH  68  69
ATOM     69  C   UNL     1       3.626  18.997  25.272  0.00  0.00    +0.305 C 
ATOM     70  O   UNL     1       4.590  18.596  25.906  0.00  0.00    -0.251 OA
BRANCH  69  71
ATOM     71  C   UNL     1       2.407  19.614  25.887  0.00  0.00    +0.033 C 
ATOM     72  H   UNL     1       1.592  18.885  25.887  0.00  0.00    +0.034 HD
ATOM     73  H   UNL     1       2.617  19.899  26.921  0.00  0.00    +0.034 HD
ATOM     74  H   UNL     1       2.099  20.486  25.303  0.00  0.00    +0.034 HD
ENDBRANCH  69  71
ENDBRANCH  68  69
ENDBRANCH  12  68
TORSDOF 10
ENDMDL
MODEL 3
REMARK VINA RESULT:      -6.4      1.687      2.080
REMARK  Name = Cytochalasin D_conf3
REMARK  10 active torsions:
REMARK  status: ('A' for Active; 'I' for Inactive)
REMARK    1  A    between atoms: C_1  and  C_2
REMARK    2  A    between atoms: C_7  and  O_37
REMARK    3  A    between atoms: C_10  and  C_36
REMARK    4  A    between atoms: C_13  and  O_21
REMARK    5  A    between atoms: C_16  and  C_19
REMARK    6  A    between atoms: C_16  and  O_20
REMARK    7  A    between atoms: O_21  and  C_22
REMARK    8  A    between atoms: C_22  and  C_24
REMARK    9  A    between atoms: C_28  and  C_29
REMARK   10  A    between atoms: C_29  and  C_30
REMARK                            x       y       z     vdW  Elec       q    Type
REMARK                         _______ _______ _______ _____ _____    ______ ____
ROOT
ATOM      1  C   UNL     1      -6.174  21.390  22.167  0.00  0.00    +0.021 C 
ATOM      2  C   UNL     1      -5.540  21.064  20.806  0.00  0.00    -0.025 C 
ATOM      3  C   UNL     1      -6.100  19.848  20.116  0.00  0.00    -0.087 C 
ATOM      4  C   UNL     1      -5.317  18.910  19.552  0.00  0.00    -0.081 C 
ATOM      5  C   UNL     1      -5.809  17.616  18.901  0.00  0.00    +0.025 C 
ATOM      6  C   UNL     1      -5.572  17.748  17.363  0.00  0.00    +0.084 C 
ATOM      7  C   UNL     1      -5.721  16.447  16.610  0.00  0.00    -0.045 C 
ATOM      8  C   UNL     1      -5.166  16.285  15.396  0.00  0.00    -0.097 C 
ATOM      9  C   UNL     1      -6.504  15.396  17.361  0.00  0.00    -0.015 C 
ATOM     10  C   UNL     1      -5.733  15.007  18.651  0.00  0.00    +0.002 C 
ATOM     11  C   UNL     1      -5.208  16.274  19.468  0.00  0.00    +0.101 C 
ATOM     12  C   UNL     1      -5.468  16.032  20.995  0.00  0.00    +0.136 C 
ATOM     13  C   UNL     1      -4.975  17.132  21.919  0.00  0.00    -0.044 C 
ATOM     14  C   UNL     1      -5.748  17.908  22.703  0.00  0.00    -0.046 C 
ATOM     15  C   UNL     1      -5.355  19.170  23.447  0.00  0.00    +0.139 C 
ATOM     16  C   UNL     1      -6.464  20.213  23.101  0.00  0.00    +0.171 C 
ATOM     17  O   UNL     1      -7.609  20.096  23.564  0.00  0.00    -0.294 OA
ATOM     18  C   UNL     1      -3.706  16.209  19.227  0.00  0.00    +0.224 C 
ATOM     19  O   UNL     1      -2.882  17.068  19.495  0.00  0.00    -0.275 OA
ATOM     20  N   UNL     1      -3.372  15.007  18.674  0.00  0.00    -0.311 N 
ATOM     21  C   UNL     1      -4.478  14.132  18.397  0.00  0.00    +0.032 C 
ATOM     22  H   UNL     1      -7.164  21.821  21.947  0.00  0.00    +0.038 HD
ATOM     23  H   UNL     1      -4.452  20.979  20.906  0.00  0.00    +0.031 HD
ATOM     24  H   UNL     1      -5.704  21.924  20.141  0.00  0.00    +0.031 HD
ATOM     25  H   UNL     1      -7.183  19.731  20.106  0.00  0.00    +0.057 HD
ATOM     26  H   UNL     1      -4.238  19.067  19.547  0.00  0.00    +0.057 HD
ATOM     27  H   UNL     1      -6.895  17.579  19.072  0.00  0.00    +0.038 HD
ATOM     28  H   UNL     1      -4.580  18.172  17.161  0.00  0.00    +0.065 HD
ATOM     29  H   UNL     1      -4.623  17.096  14.919  0.00  0.00    +0.054 HD
ATOM     30  H   UNL     1      -5.251  15.365  14.828  0.00  0.00    +0.054 HD
ATOM     31  H   UNL     1      -7.444  15.872  17.676  0.00  0.00    +0.035 HD
ATOM     32  H   UNL     1      -6.449  14.437  19.251  0.00  0.00    +0.034 HD
ATOM     33  H   UNL     1      -4.937  15.123  21.300  0.00  0.00    +0.079 HD
ATOM     34  H   UNL     1      -3.903  17.313  21.877  0.00  0.00    +0.061 HD
ATOM     35  H   UNL     1      -6.816  17.687  22.760  0.00  0.00    +0.060 HD
ATOM     36  H   UNL     1      -2.406  14.807  18.437  0.00  0.00    +0.149 HD
ATOM     37  H   UNL     1      -4.373  13.854  17.345  0.00  0.00    +0.050 HD
ENDROOT
BRANCH   1  38
ATOM     38  C   UNL     1      -5.388  22.467  22.912  0.00  0.00    -0.055 C 
ATOM     39  H   UNL     1      -5.098  23.278  22.234  0.00  0.00    +0.024 HD
ATOM     40  H   UNL     1      -4.475  22.047  23.347  0.00  0.00    +0.024 HD
ATOM     41  H   UNL     1      -5.973  22.911  23.723  0.00  0.00    +0.024 HD
ENDBRANCH   1  38
BRANCH  15  42
ATOM     42  C   UNL     1      -5.375  18.918  24.956  0.00  0.00    -0.025 C 
ATOM     43  H   UNL     1      -4.404  19.114  25.426  0.00  0.00    +0.026 HD
ATOM     44  H   UNL     1      -5.645  17.877  25.167  0.00  0.00    +0.026 HD
ATOM     45  H   UNL     1      -6.127  19.544  25.450  0.00  0.00    +0.026 HD
ENDBRANCH  15  42
BRANCH   9  46
ATOM     46  C   UNL     1      -6.966  14.182  16.545  0.00  0.00    -0.058 C 
ATOM     47  H   UNL     1      -7.061  14.445  15.486  0.00  0.00    +0.024 HD
ATOM     48  H   UNL     1      -7.926  13.778  16.879  0.00  0.00    +0.024 HD
ATOM     49  H   UNL     1      -6.230  13.372  16.614  0.00  0.00    +0.024 HD
ENDBRANCH   9  46
BRANCH  21  50
ATOM     50  C   UNL     1      -4.395  12.864  19.270  0.00  0.00    -0.009 C 
ATOM     51  H   UNL     1      -3.351  12.695  19.571  0.00  0.00    +0.033 HD
ATOM     52  H   UNL     1      -4.941  13.007  20.210  0.00  0.00    +0.033 HD
BRANCH  50  53
ATOM     53  C   UNL     1      -4.876  11.615  18.572  0.00  0.00    -0.046 A 
ATOM     54  C   UNL     1      -4.588  11.402  17.218  0.00  0.00    -0.059 A 
ATOM     55  C   UNL     1      -5.022  10.241  16.575  0.00  0.00    -0.062 A 
ATOM     56  C   UNL     1      -5.754   9.286  17.276  0.00  0.00    -0.062 A 
ATOM     57  C   UNL     1      -6.060   9.494  18.619  0.00  0.00    -0.062 A 
ATOM     58  C   UNL     1      -5.628  10.654  19.263  0.00  0.00    -0.059 A 
ATOM     59  H   UNL     1      -4.030  12.142  16.648  0.00  0.00    +0.062 HD
ATOM     60  H   UNL     1      -4.794  10.087  15.523  0.00  0.00    +0.062 HD
ATOM     61  H   UNL     1      -6.094   8.385  16.774  0.00  0.00    +0.062 HD
ATOM     62  H   UNL     1      -6.640   8.754  19.165  0.00  0.00    +0.062 HD
ATOM     63  H   UNL     1      -5.884  10.802  20.311  0.00  0.00    +0.062 HD
ENDBRANCH  50  53
ENDBRANCH  21  50
BRANCH  15  64
ATOM     64  O   UNL     1      -4.038  19.578  23.124  0.00  0.00    -0.377 OA
ATOM     65  H   UNL     1      -3.496  18.784  22.992  0.00  0.00    +0.211 HD
ENDBRANCH  15  64
BRANCH   6  66
ATOM     66  O   UNL     1      -6.546  18.640  16.815  0.00  0.00    -0.387 OA
ATOM     67  H   UNL     1      -7.155  18.098  16.286  0.00  0.00    +0.210 HD
ENDBRANCH   6  66
BRANCH  12  68
ATOM     68  O   UNL     1      -6.896  15.878  21.174  0.00  0.00    -0.456 OA
BRANCH  68  69
ATOM     69  C   UNL     1      -7.315  14.857  21.967  0.00  0.00    +0.305 C 
ATOM     70  O   UNL     1      -7.422  14.893  23.184  0.00  0.00    -0.251 OA
BRANCH  69  71
ATOM     71  C   UNL     1      -7.605  13.649  21.129  0.00  0.00    +0.033 C 
ATOM     72  H   UNL     1      -7.432  13.887  20.076  0.00  0.00    +0.034 HD
ATOM     73  H   UNL     1      -6.937  12.831  21.413  0.00  0.00    +0.034 HD
ATOM     74  H   UNL     1      -8.650  13.353  21.256  0.00  0.00    +0.034 HD
ENDBRANCH  69  71
ENDBRANCH  68  69
ENDBRANCH  12  68
TORSDOF 10
ENDMDL
MODEL 4
REMARK VINA RESULT:      -6.3      1.538      1.910
REMARK  Name = Cytochalasin D_conf3
REMARK  10 active torsions:
REMARK  status: ('A' for Active; 'I' for Inactive)
REMARK    1  A    between atoms: C_1  and  C_2
REMARK    2  A    between atoms: C_7  and  O_37
REMARK    3  A    between atoms: C_10  and  C_36
REMARK    4  A    between atoms: C_13  and  O_21
REMARK    5  A    between atoms: C_16  and  C_19
REMARK    6  A    between atoms: C_16  and  O_20
REMARK    7  A    between atoms: O_21  and  C_22
REMARK    8  A    between atoms: C_22  and  C_24
REMARK    9  A    between atoms: C_28  and  C_29
REMARK   10  A    between atoms: C_29  and  C_30
REMARK                            x       y       z     vdW  Elec       q    Type
REMARK                         _______ _______ _______ _____ _____    ______ ____
ROOT
ATOM      1  C   UNL     1      -6.474  17.916  24.863  0.00  0.00    +0.021 C 
ATOM      2  C   UNL     1      -5.202  17.436  24.147  0.00  0.00    -0.025 C 
ATOM      3  C   UNL     1      -5.322  17.304  22.651  0.00  0.00    -0.087 C 
ATOM      4  C   UNL     1      -4.873  16.227  21.980  0.00  0.00    -0.081 C 
ATOM      5  C   UNL     1      -5.026  15.991  20.477  0.00  0.00    +0.025 C 
ATOM      6  C   UNL     1      -3.608  16.119  19.837  0.00  0.00    +0.084 C 
ATOM      7  C   UNL     1      -3.533  15.618  18.414  0.00  0.00    -0.045 C 
ATOM      8  C   UNL     1      -2.355  15.271  17.865  0.00  0.00    -0.097 C 
ATOM      9  C   UNL     1      -4.876  15.532  17.729  0.00  0.00    -0.015 C 
ATOM     10  C   UNL     1      -5.758  14.483  18.460  0.00  0.00    +0.002 C 
ATOM     11  C   UNL     1      -5.738  14.652  20.047  0.00  0.00    +0.101 C 
ATOM     12  C   UNL     1      -7.199  14.482  20.590  0.00  0.00    +0.136 C 
ATOM     13  C   UNL     1      -7.343  14.564  22.100  0.00  0.00    -0.044 C 
ATOM     14  C   UNL     1      -8.029  15.505  22.775  0.00  0.00    -0.046 C 
ATOM     15  C   UNL     1      -8.007  15.789  24.266  0.00  0.00    +0.139 C 
ATOM     16  C   UNL     1      -7.805  17.332  24.387  0.00  0.00    +0.171 C 
ATOM     17  O   UNL     1      -8.717  18.115  24.082  0.00  0.00    -0.294 OA
ATOM     18  C   UNL     1      -4.925  13.442  20.486  0.00  0.00    +0.224 C 
ATOM     19  O   UNL     1      -4.476  13.224  21.599  0.00  0.00    -0.275 OA
ATOM     20  N   UNL     1      -4.774  12.576  19.442  0.00  0.00    -0.311 N 
ATOM     21  C   UNL     1      -5.340  13.014  18.197  0.00  0.00    +0.032 C 
ATOM     22  H   UNL     1      -6.552  18.995  24.653  0.00  0.00    +0.038 HD
ATOM     23  H   UNL     1      -4.854  16.493  24.586  0.00  0.00    +0.031 HD
ATOM     24  H   UNL     1      -4.404  18.163  24.350  0.00  0.00    +0.031 HD
ATOM     25  H   UNL     1      -5.818  18.112  22.116  0.00  0.00    +0.057 HD
ATOM     26  H   UNL     1      -4.352  15.448  22.536  0.00  0.00    +0.057 HD
ATOM     27  H   UNL     1      -5.642  16.819  20.096  0.00  0.00    +0.038 HD
ATOM     28  H   UNL     1      -2.861  15.593  20.447  0.00  0.00    +0.065 HD
ATOM     29  H   UNL     1      -1.429  15.370  18.425  0.00  0.00    +0.054 HD
ATOM     30  H   UNL     1      -2.265  14.905  16.848  0.00  0.00    +0.054 HD
ATOM     31  H   UNL     1      -5.359  16.511  17.863  0.00  0.00    +0.035 HD
ATOM     32  H   UNL     1      -6.769  14.642  18.072  0.00  0.00    +0.034 HD
ATOM     33  H   UNL     1      -7.563  13.487  20.307  0.00  0.00    +0.079 HD
ATOM     34  H   UNL     1      -6.785  13.809  22.650  0.00  0.00    +0.061 HD
ATOM     35  H   UNL     1      -8.613  16.231  22.206  0.00  0.00    +0.060 HD
ATOM     36  H   UNL     1      -4.242  11.721  19.564  0.00  0.00    +0.149 HD
ATOM     37  H   UNL     1      -4.531  12.937  17.466  0.00  0.00    +0.050 HD
ENDROOT
BRANCH   1  38
ATOM     38  C   UNL     1      -6.353  17.777  26.379  0.00  0.00    -0.055 C 
ATOM     39  H   UNL     1      -7.341  17.809  26.854  0.00  0.00    +0.024 HD
ATOM     40  H   UNL     1      -5.751  18.590  26.795  0.00  0.00    +0.024 HD
ATOM     41  H   UNL     1      -5.883  16.831  26.665  0.00  0.00    +0.024 HD
ENDBRANCH   1  38
BRANCH  15  42
ATOM     42  C   UNL     1      -9.354  15.421  24.890  0.00  0.00    -0.025 C 
ATOM     43  H   UNL     1      -9.715  16.186  25.588  0.00  0.00    +0.026 HD
ATOM     44  H   UNL     1      -9.277  14.476  25.441  0.00  0.00    +0.026 HD
ATOM     45  H   UNL     1     -10.119  15.273  24.118  0.00  0.00    +0.026 HD
ENDBRANCH  15  42
BRANCH   9  46
ATOM     46  C   UNL     1      -4.850  15.342  16.207  0.00  0.00    -0.058 C 
ATOM     47  H   UNL     1      -4.874  16.313  15.699  0.00  0.00    +0.024 HD
ATOM     48  H   UNL     1      -5.687  14.746  15.833  0.00  0.00    +0.024 HD
ATOM     49  H   UNL     1      -3.927  14.837  15.899  0.00  0.00    +0.024 HD
ENDBRANCH   9  46
BRANCH  21  50
ATOM     50  C   UNL     1      -6.497  12.086  17.774  0.00  0.00    -0.009 C 
ATOM     51  H   UNL     1      -7.183  11.948  18.622  0.00  0.00    +0.033 HD
ATOM     52  H   UNL     1      -7.104  12.559  16.994  0.00  0.00    +0.033 HD
BRANCH  50  53
ATOM     53  C   UNL     1      -6.044  10.718  17.325  0.00  0.00    -0.046 A 
ATOM     54  C   UNL     1      -6.686   9.566  17.799  0.00  0.00    -0.059 A 
ATOM     55  C   UNL     1      -6.276   8.301  17.376  0.00  0.00    -0.062 A 
ATOM     56  C   UNL     1      -5.216   8.173  16.482  0.00  0.00    -0.062 A 
ATOM     57  C   UNL     1      -4.560   9.310  16.015  0.00  0.00    -0.062 A 
ATOM     58  C   UNL     1      -4.969  10.576  16.438  0.00  0.00    -0.059 A 
ATOM     59  H   UNL     1      -7.507   9.643  18.511  0.00  0.00    +0.062 HD
ATOM     60  H   UNL     1      -6.780   7.414  17.752  0.00  0.00    +0.062 HD
ATOM     61  H   UNL     1      -4.896   7.188  16.156  0.00  0.00    +0.062 HD
ATOM     62  H   UNL     1      -3.727   9.211  15.324  0.00  0.00    +0.062 HD
ATOM     63  H   UNL     1      -4.438  11.451  16.068  0.00  0.00    +0.062 HD
ENDBRANCH  50  53
ENDBRANCH  21  50
BRANCH  15  64
ATOM     64  O   UNL     1      -7.029  15.010  24.931  0.00  0.00    -0.377 OA
ATOM     65  H   UNL     1      -6.219  15.539  25.007  0.00  0.00    +0.211 HD
ENDBRANCH  15  64
BRANCH   6  66
ATOM     66  O   UNL     1      -3.237  17.499  19.794  0.00  0.00    -0.387 OA
ATOM     67  H   UNL     1      -3.087  17.720  18.859  0.00  0.00    +0.210 HD
ENDBRANCH   6  66
BRANCH  12  68
ATOM     68  O   UNL     1      -8.010  15.517  19.987  0.00  0.00    -0.456 OA
BRANCH  68  69
ATOM     69  C   UNL     1      -9.122  15.121  19.314  0.00  0.00    +0.305 C 
ATOM     70  O   UNL     1      -9.975  14.350  19.731  0.00  0.00    -0.251 OA
BRANCH  69  71
ATOM     71  C   UNL     1      -9.143  15.747  17.953  0.00  0.00    +0.033 C 
ATOM     72  H   UNL     1      -8.275  16.402  17.842  0.00  0.00    +0.034 HD
ATOM     73  H   UNL     1      -9.090  14.970  17.186  0.00  0.00    +0.034 HD
ATOM     74  H   UNL     1     -10.051  16.344  17.834  0.00  0.00    +0.034 HD
ENDBRANCH  69  71
ENDBRANCH  68  69
ENDBRANCH  12  68
TORSDOF 10
ENDMDL
MODEL 5
REMARK VINA RESULT:      -6.2     13.325     15.404
REMARK  Name = Cytochalasin D_conf3
REMARK  10 active torsions:
REMARK  status: ('A' for Active; 'I' for Inactive)
REMARK    1  A    between atoms: C_1  and  C_2
REMARK    2  A    between atoms: C_7  and  O_37
REMARK    3  A    between atoms: C_10  and  C_36
REMARK    4  A    between atoms: C_13  and  O_21
REMARK    5  A    between atoms: C_16  and  C_19
REMARK    6  A    between atoms: C_16  and  O_20
REMARK    7  A    between atoms: O_21  and  C_22
REMARK    8  A    between atoms: C_22  and  C_24
REMARK    9  A    between atoms: C_28  and  C_29
REMARK   10  A    between atoms: C_29  and  C_30
REMARK                            x       y       z     vdW  Elec       q    Type
REMARK                         _______ _______ _______ _____ _____    ______ ____
ROOT
ATOM      1  C   UNL     1      11.219  22.750  26.581  0.00  0.00    +0.021 C 
ATOM      2  C   UNL     1      10.864  21.364  27.141  0.00  0.00    -0.025 C 
ATOM      3  C   UNL     1      10.852  20.250  26.128  0.00  0.00    -0.087 C 
ATOM      4  C   UNL     1       9.859  19.344  26.059  0.00  0.00    -0.081 C 
ATOM      5  C   UNL     1       9.741  18.233  25.014  0.00  0.00    +0.025 C 
ATOM      6  C   UNL     1       9.993  16.876  25.744  0.00  0.00    +0.084 C 
ATOM      7  C   UNL     1       9.617  15.664  24.925  0.00  0.00    -0.045 C 
ATOM      8  C   UNL     1       9.376  14.480  25.515  0.00  0.00    -0.097 C 
ATOM      9  C   UNL     1       9.521  15.938  23.443  0.00  0.00    -0.015 C 
ATOM     10  C   UNL     1       8.372  16.950  23.182  0.00  0.00    +0.002 C 
ATOM     11  C   UNL     1       8.409  18.201  24.173  0.00  0.00    +0.101 C 
ATOM     12  C   UNL     1       8.121  19.504  23.350  0.00  0.00    +0.136 C 
ATOM     13  C   UNL     1       8.070  20.786  24.162  0.00  0.00    -0.044 C 
ATOM     14  C   UNL     1       8.915  21.827  24.045  0.00  0.00    -0.046 C 
ATOM     15  C   UNL     1       9.074  23.012  24.979  0.00  0.00    +0.139 C 
ATOM     16  C   UNL     1      10.610  23.133  25.231  0.00  0.00    +0.171 C 
ATOM     17  O   UNL     1      11.369  23.526  24.332  0.00  0.00    -0.294 OA
ATOM     18  C   UNL     1       7.209  17.932  25.070  0.00  0.00    +0.224 C 
ATOM     19  O   UNL     1       6.921  18.512  26.104  0.00  0.00    -0.275 OA
ATOM     20  N   UNL     1       6.441  16.936  24.540  0.00  0.00    -0.311 N 
ATOM     21  C   UNL     1       6.953  16.346  23.334  0.00  0.00    +0.032 C 
ATOM     22  H   UNL     1      12.306  22.737  26.403  0.00  0.00    +0.038 HD
ATOM     23  H   UNL     1       9.907  21.406  27.675  0.00  0.00    +0.031 HD
ATOM     24  H   UNL     1      11.611  21.106  27.905  0.00  0.00    +0.031 HD
ATOM     25  H   UNL     1      11.676  20.210  25.418  0.00  0.00    +0.057 HD
ATOM     26  H   UNL     1       9.063  19.387  26.802  0.00  0.00    +0.057 HD
ATOM     27  H   UNL     1      10.566  18.390  24.304  0.00  0.00    +0.038 HD
ATOM     28  H   UNL     1       9.456  16.848  26.701  0.00  0.00    +0.065 HD
ATOM     29  H   UNL     1       9.475  14.363  26.591  0.00  0.00    +0.054 HD
ATOM     30  H   UNL     1       9.102  13.591  24.959  0.00  0.00    +0.054 HD
ATOM     31  H   UNL     1      10.460  16.433  23.155  0.00  0.00    +0.035 HD
ATOM     32  H   UNL     1       8.512  17.278  22.147  0.00  0.00    +0.034 HD
ATOM     33  H   UNL     1       7.137  19.408  22.876  0.00  0.00    +0.079 HD
ATOM     34  H   UNL     1       7.300  20.805  24.931  0.00  0.00    +0.061 HD
ATOM     35  H   UNL     1       9.656  21.807  23.243  0.00  0.00    +0.060 HD
ATOM     36  H   UNL     1       5.607  16.624  25.025  0.00  0.00    +0.149 HD
ATOM     37  H   UNL     1       6.978  15.270  23.525  0.00  0.00    +0.050 HD
ENDROOT
BRANCH   1  38
ATOM     38  C   UNL     1      10.960  23.854  27.604  0.00  0.00    -0.055 C 
ATOM     39  H   UNL     1      11.378  24.808  27.263  0.00  0.00    +0.024 HD
ATOM     40  H   UNL     1      11.420  23.607  28.565  0.00  0.00    +0.024 HD
ATOM     41  H   UNL     1       9.889  24.008  27.775  0.00  0.00    +0.024 HD
ENDBRANCH   1  38
BRANCH  15  42
ATOM     42  C   UNL     1       8.589  24.291  24.293  0.00  0.00    -0.025 C 
ATOM     43  H   UNL     1       8.718  24.258  23.205  0.00  0.00    +0.026 HD
ATOM     44  H   UNL     1       9.140  25.161  24.670  0.00  0.00    +0.026 HD
ATOM     45  H   UNL     1       7.529  24.474  24.507  0.00  0.00    +0.026 HD
ENDBRANCH  15  42
BRANCH   9  46
ATOM     46  C   UNL     1       9.461  14.708  22.528  0.00  0.00    -0.058 C 
ATOM     47  H   UNL     1      10.450  14.492  22.110  0.00  0.00    +0.024 HD
ATOM     48  H   UNL     1       8.762  14.825  21.695  0.00  0.00    +0.024 HD
ATOM     49  H   UNL     1       9.147  13.824  23.095  0.00  0.00    +0.024 HD
ENDBRANCH   9  46
BRANCH  21  50
ATOM     50  C   UNL     1       6.007  16.631  22.150  0.00  0.00    -0.009 C 
ATOM     51  H   UNL     1       5.355  17.481  22.399  0.00  0.00    +0.033 HD
ATOM     52  H   UNL     1       6.576  16.960  21.273  0.00  0.00    +0.033 HD
BRANCH  50  53
ATOM     53  C   UNL     1       5.118  15.465  21.789  0.00  0.00    -0.046 A 
ATOM     54  C   UNL     1       5.160  14.912  20.503  0.00  0.00    -0.059 A 
ATOM     55  C   UNL     1       4.347  13.826  20.171  0.00  0.00    -0.062 A 
ATOM     56  C   UNL     1       3.481  13.287  21.119  0.00  0.00    -0.062 A 
ATOM     57  C   UNL     1       3.419  13.839  22.397  0.00  0.00    -0.062 A 
ATOM     58  C   UNL     1       4.231  14.924  22.730  0.00  0.00    -0.059 A 
ATOM     59  H   UNL     1       5.819  15.327  19.743  0.00  0.00    +0.062 HD
ATOM     60  H   UNL     1       4.386  13.406  19.169  0.00  0.00    +0.062 HD
ATOM     61  H   UNL     1       2.847  12.445  20.859  0.00  0.00    +0.062 HD
ATOM     62  H   UNL     1       2.736  13.425  23.134  0.00  0.00    +0.062 HD
ATOM     63  H   UNL     1       4.162  15.346  23.730  0.00  0.00    +0.062 HD
ENDBRANCH  50  53
ENDBRANCH  21  50
BRANCH  15  64
ATOM     64  O   UNL     1       8.293  22.862  26.151  0.00  0.00    -0.377 OA
ATOM     65  H   UNL     1       8.412  21.957  26.482  0.00  0.00    +0.211 HD
ENDBRANCH  15  64
BRANCH   6  66
ATOM     66  O   UNL     1      11.389  16.750  26.027  0.00  0.00    -0.387 OA
ATOM     67  H   UNL     1      11.504  15.905  26.495  0.00  0.00    +0.210 HD
ENDBRANCH   6  66
BRANCH  12  68
ATOM     68  O   UNL     1       9.161  19.626  22.351  0.00  0.00    -0.456 OA
BRANCH  68  69
ATOM     69  C   UNL     1       8.790  19.497  21.050  0.00  0.00    +0.305 C 
ATOM     70  O   UNL     1       9.530  19.214  20.119  0.00  0.00    -0.251 OA
BRANCH  69  71
ATOM     71  C   UNL     1       7.327  19.784  20.907  0.00  0.00    +0.033 C 
ATOM     72  H   UNL     1       7.003  20.433  21.726  0.00  0.00    +0.034 HD
ATOM     73  H   UNL     1       7.139  20.301  19.962  0.00  0.00    +0.034 HD
ATOM     74  H   UNL     1       6.760  18.850  20.954  0.00  0.00    +0.034 HD
ENDBRANCH  69  71
ENDBRANCH  68  69
ENDBRANCH  12  68
TORSDOF 10
ENDMDL
MODEL 6
REMARK VINA RESULT:      -6.2      2.929      7.104
REMARK  Name = Cytochalasin D_conf3
REMARK  10 active torsions:
REMARK  status: ('A' for Active; 'I' for Inactive)
REMARK    1  A    between atoms: C_1  and  C_2
REMARK    2  A    between atoms: C_7  and  O_37
REMARK    3  A    between atoms: C_10  and  C_36
REMARK    4  A    between atoms: C_13  and  O_21
REMARK    5  A    between atoms: C_16  and  C_19
REMARK    6  A    between atoms: C_16  and  O_20
REMARK    7  A    between atoms: O_21  and  C_22
REMARK    8  A    between atoms: C_22  and  C_24
REMARK    9  A    between atoms: C_28  and  C_29
REMARK   10  A    between atoms: C_29  and  C_30
REMARK                            x       y       z     vdW  Elec       q    Type
REMARK                         _______ _______ _______ _____ _____    ______ ____
ROOT
ATOM      1  C   UNL     1      -9.384  10.694  19.075  0.00  0.00    +0.021 C 
ATOM      2  C   UNL     1      -8.781  11.391  20.304  0.00  0.00    -0.025 C 
ATOM      3  C   UNL     1      -8.262  12.784  20.058  0.00  0.00    -0.087 C 
ATOM      4  C   UNL     1      -7.066  13.202  20.511  0.00  0.00    -0.081 C 
ATOM      5  C   UNL     1      -6.442  14.571  20.238  0.00  0.00    +0.025 C 
ATOM      6  C   UNL     1      -6.452  15.366  21.582  0.00  0.00    +0.084 C 
ATOM      7  C   UNL     1      -5.602  16.614  21.559  0.00  0.00    -0.045 C 
ATOM      8  C   UNL     1      -5.168  17.175  22.701  0.00  0.00    -0.097 C 
ATOM      9  C   UNL     1      -5.292  17.113  20.167  0.00  0.00    -0.015 C 
ATOM     10  C   UNL     1      -4.437  16.052  19.421  0.00  0.00    +0.002 C 
ATOM     11  C   UNL     1      -5.013  14.570  19.574  0.00  0.00    +0.101 C 
ATOM     12  C   UNL     1      -4.935  13.854  18.181  0.00  0.00    +0.136 C 
ATOM     13  C   UNL     1      -5.401  12.409  18.169  0.00  0.00    -0.044 C 
ATOM     14  C   UNL     1      -6.459  11.928  17.489  0.00  0.00    -0.046 C 
ATOM     15  C   UNL     1      -7.120  10.569  17.628  0.00  0.00    +0.139 C 
ATOM     16  C   UNL     1      -8.648  10.866  17.745  0.00  0.00    +0.171 C 
ATOM     17  O   UNL     1      -9.292  11.265  16.762  0.00  0.00    -0.294 OA
ATOM     18  C   UNL     1      -3.988  13.924  20.496  0.00  0.00    +0.224 C 
ATOM     19  O   UNL     1      -4.082  12.845  21.056  0.00  0.00    -0.275 OA
ATOM     20  N   UNL     1      -2.887  14.724  20.606  0.00  0.00    -0.311 N 
ATOM     21  C   UNL     1      -2.966  15.974  19.903  0.00  0.00    +0.032 C 
ATOM     22  H   UNL     1     -10.368  11.162  18.911  0.00  0.00    +0.038 HD
ATOM     23  H   UNL     1      -7.998  10.765  20.748  0.00  0.00    +0.031 HD
ATOM     24  H   UNL     1      -9.565  11.464  21.071  0.00  0.00    +0.031 HD
ATOM     25  H   UNL     1      -8.886  13.453  19.467  0.00  0.00    +0.057 HD
ATOM     26  H   UNL     1      -6.476  12.522  21.126  0.00  0.00    +0.057 HD
ATOM     27  H   UNL     1      -7.120  15.085  19.540  0.00  0.00    +0.038 HD
ATOM     28  H   UNL     1      -6.129  14.722  22.411  0.00  0.00    +0.065 HD
ATOM     29  H   UNL     1      -5.443  16.757  23.666  0.00  0.00    +0.054 HD
ATOM     30  H   UNL     1      -4.555  18.069  22.722  0.00  0.00    +0.054 HD
ATOM     31  H   UNL     1      -6.254  17.183  19.639  0.00  0.00    +0.035 HD
ATOM     32  H   UNL     1      -4.453  16.361  18.371  0.00  0.00    +0.034 HD
ATOM     33  H   UNL     1      -3.889  13.836  17.855  0.00  0.00    +0.079 HD
ATOM     34  H   UNL     1      -4.836  11.745  18.820  0.00  0.00    +0.061 HD
ATOM     35  H   UNL     1      -6.991  12.600  16.813  0.00  0.00    +0.060 HD
ATOM     36  H   UNL     1      -2.113  14.444  21.198  0.00  0.00    +0.149 HD
ATOM     37  H   UNL     1      -2.732  16.741  20.647  0.00  0.00    +0.050 HD
ENDROOT
BRANCH   1  38
ATOM     38  C   UNL     1      -9.647   9.213  19.340  0.00  0.00    -0.055 C 
ATOM     39  H   UNL     1      -9.487   8.619  18.433  0.00  0.00    +0.024 HD
ATOM     40  H   UNL     1     -10.679   9.057  19.668  0.00  0.00    +0.024 HD
ATOM     41  H   UNL     1      -8.985   8.815  20.114  0.00  0.00    +0.024 HD
ENDBRANCH   1  38
BRANCH  15  42
ATOM     42  C   UNL     1      -6.878   9.736  16.368  0.00  0.00    -0.025 C 
ATOM     43  H   UNL     1      -7.812   9.420  15.889  0.00  0.00    +0.026 HD
ATOM     44  H   UNL     1      -6.304   8.834  16.609  0.00  0.00    +0.026 HD
ATOM     45  H   UNL     1      -6.288  10.297  15.633  0.00  0.00    +0.026 HD
ENDBRANCH  15  42
BRANCH   9  46
ATOM     46  C   UNL     1      -4.715  18.531  20.067  0.00  0.00    -0.058 C 
ATOM     47  H   UNL     1      -4.830  18.920  19.050  0.00  0.00    +0.024 HD
ATOM     48  H   UNL     1      -3.656  18.584  20.331  0.00  0.00    +0.024 HD
ATOM     49  H   UNL     1      -5.253  19.211  20.738  0.00  0.00    +0.024 HD
ENDBRANCH   9  46
BRANCH  21  50
ATOM     50  C   UNL     1      -1.919  16.026  18.773  0.00  0.00    -0.009 C 
ATOM     51  H   UNL     1      -2.355  15.611  17.852  0.00  0.00    +0.033 HD
ATOM     52  H   UNL     1      -1.670  17.064  18.525  0.00  0.00    +0.033 HD
BRANCH  50  53
ATOM     53  C   UNL     1      -0.662  15.245  19.074  0.00  0.00    -0.046 A 
ATOM     54  C   UNL     1       0.053  15.479  20.255  0.00  0.00    -0.059 A 
ATOM     55  C   UNL     1       1.209  14.750  20.540  0.00  0.00    -0.062 A 
ATOM     56  C   UNL     1       1.665  13.785  19.645  0.00  0.00    -0.062 A 
ATOM     57  C   UNL     1       0.970  13.554  18.460  0.00  0.00    -0.062 A 
ATOM     58  C   UNL     1      -0.185  14.283  18.173  0.00  0.00    -0.059 A 
ATOM     59  H   UNL     1      -0.277  16.239  20.961  0.00  0.00    +0.062 HD
ATOM     60  H   UNL     1       1.758  14.942  21.459  0.00  0.00    +0.062 HD
ATOM     61  H   UNL     1       2.566  13.221  19.867  0.00  0.00    +0.062 HD
ATOM     62  H   UNL     1       1.330  12.808  17.756  0.00  0.00    +0.062 HD
ATOM     63  H   UNL     1      -0.709  14.093  17.239  0.00  0.00    +0.062 HD
ENDBRANCH  50  53
ENDBRANCH  21  50
BRANCH  15  64
ATOM     64  O   UNL     1      -6.577   9.832  18.709  0.00  0.00    -0.377 OA
ATOM     65  H   UNL     1      -5.820   9.322  18.379  0.00  0.00    +0.211 HD
ENDBRANCH  15  64
BRANCH   6  66
ATOM     66  O   UNL     1      -7.786  15.796  21.861  0.00  0.00    -0.387 OA
ATOM     67  H   UNL     1      -7.826  16.743  21.642  0.00  0.00    +0.210 HD
ENDBRANCH   6  66
BRANCH  12  68
ATOM     68  O   UNL     1      -5.749  14.614  17.256  0.00  0.00    -0.456 OA
BRANCH  68  69
ATOM     69  C   UNL     1      -5.109  15.508  16.457  0.00  0.00    +0.305 C 
ATOM     70  O   UNL     1      -4.019  15.343  15.928  0.00  0.00    -0.251 OA
BRANCH  69  71
ATOM     71  C   UNL     1      -5.925  16.758  16.337  0.00  0.00    +0.033 C 
ATOM     72  H   UNL     1      -5.689  17.427  17.169  0.00  0.00    +0.034 HD
ATOM     73  H   UNL     1      -5.685  17.271  15.402  0.00  0.00    +0.034 HD
ATOM     74  H   UNL     1      -6.990  16.510  16.376  0.00  0.00    +0.034 HD
ENDBRANCH  69  71
ENDBRANCH  68  69
ENDBRANCH  12  68
TORSDOF 10
ENDMDL
MODEL 7
REMARK VINA RESULT:      -6.2     10.476     12.336
REMARK  Name = Cytochalasin D_conf3
REMARK  10 active torsions:
REMARK  status: ('A' for Active; 'I' for Inactive)
REMARK    1  A    between atoms: C_1  and  C_2
REMARK    2  A    between atoms: C_7  and  O_37
REMARK    3  A    between atoms: C_10  and  C_36
REMARK    4  A    between atoms: C_13  and  O_21
REMARK    5  A    between atoms: C_16  and  C_19
REMARK    6  A    between atoms: C_16  and  O_20
REMARK    7  A    between atoms: O_21  and  C_22
REMARK    8  A    between atoms: C_22  and  C_24
REMARK    9  A    between atoms: C_28  and  C_29
REMARK   10  A    between atoms: C_29  and  C_30
REMARK                            x       y       z     vdW  Elec       q    Type
REMARK                         _______ _______ _______ _____ _____    ______ ____
ROOT
ATOM      1  C   UNL     1       4.822  18.805  29.815  0.00  0.00    +0.021 C 
ATOM      2  C   UNL     1       6.059  18.206  29.129  0.00  0.00    -0.025 C 
ATOM      3  C   UNL     1       6.373  18.773  27.769  0.00  0.00    -0.087 C 
ATOM      4  C   UNL     1       6.680  17.996  26.713  0.00  0.00    -0.081 C 
ATOM      5  C   UNL     1       6.937  18.494  25.290  0.00  0.00    +0.025 C 
ATOM      6  C   UNL     1       8.458  18.302  24.994  0.00  0.00    +0.084 C 
ATOM      7  C   UNL     1       8.820  18.459  23.536  0.00  0.00    -0.045 C 
ATOM      8  C   UNL     1       9.959  17.936  23.048  0.00  0.00    -0.097 C 
ATOM      9  C   UNL     1       7.788  19.211  22.731  0.00  0.00    -0.015 C 
ATOM     10  C   UNL     1       6.463  18.400  22.712  0.00  0.00    +0.002 C 
ATOM     11  C   UNL     1       6.040  17.865  24.156  0.00  0.00    +0.101 C 
ATOM     12  C   UNL     1       4.499  18.081  24.342  0.00  0.00    +0.136 C 
ATOM     13  C   UNL     1       3.927  17.573  25.654  0.00  0.00    -0.044 C 
ATOM     14  C   UNL     1       3.364  18.332  26.614  0.00  0.00    -0.046 C 
ATOM     15  C   UNL     1       3.007  17.930  28.033  0.00  0.00    +0.139 C 
ATOM     16  C   UNL     1       3.593  19.058  28.939  0.00  0.00    +0.171 C 
ATOM     17  O   UNL     1       3.083  20.188  28.952  0.00  0.00    -0.294 OA
ATOM     18  C   UNL     1       6.298  16.370  24.030  0.00  0.00    +0.224 C 
ATOM     19  O   UNL     1       6.300  15.547  24.930  0.00  0.00    -0.275 OA
ATOM     20  N   UNL     1       6.510  16.040  22.722  0.00  0.00    -0.311 N 
ATOM     21  C   UNL     1       6.503  17.145  21.803  0.00  0.00    +0.032 C 
ATOM     22  H   UNL     1       5.123  19.804  30.167  0.00  0.00    +0.038 HD
ATOM     23  H   UNL     1       5.971  17.114  29.076  0.00  0.00    +0.031 HD
ATOM     24  H   UNL     1       6.929  18.396  29.772  0.00  0.00    +0.031 HD
ATOM     25  H   UNL     1       6.319  19.854  27.653  0.00  0.00    +0.057 HD
ATOM     26  H   UNL     1       6.759  16.920  26.865  0.00  0.00    +0.057 HD
ATOM     27  H   UNL     1       6.731  19.574  25.300  0.00  0.00    +0.038 HD
ATOM     28  H   UNL     1       8.797  17.319  25.349  0.00  0.00    +0.065 HD
ATOM     29  H   UNL     1      10.656  17.414  23.698  0.00  0.00    +0.054 HD
ATOM     30  H   UNL     1      10.249  18.028  22.007  0.00  0.00    +0.054 HD
ATOM     31  H   UNL     1       7.587  20.146  23.274  0.00  0.00    +0.035 HD
ATOM     32  H   UNL     1       5.709  19.095  22.328  0.00  0.00    +0.034 HD
ATOM     33  H   UNL     1       3.971  17.534  23.552  0.00  0.00    +0.079 HD
ATOM     34  H   UNL     1       4.049  16.505  25.818  0.00  0.00    +0.061 HD
ATOM     35  H   UNL     1       3.217  19.395  26.416  0.00  0.00    +0.060 HD
ATOM     36  H   UNL     1       6.711  15.080  22.466  0.00  0.00    +0.149 HD
ATOM     37  H   UNL     1       7.441  17.066  21.247  0.00  0.00    +0.050 HD
ENDROOT
BRANCH   1  38
ATOM     38  C   UNL     1       4.425  18.008  31.055  0.00  0.00    -0.055 C 
ATOM     39  H   UNL     1       5.091  18.236  31.896  0.00  0.00    +0.024 HD
ATOM     40  H   UNL     1       4.482  16.933  30.859  0.00  0.00    +0.024 HD
ATOM     41  H   UNL     1       3.403  18.237  31.376  0.00  0.00    +0.024 HD
ENDBRANCH   1  38
BRANCH  15  42
ATOM     42  C   UNL     1       1.487  17.906  28.204  0.00  0.00    -0.025 C 
ATOM     43  H   UNL     1       0.966  17.601  27.289  0.00  0.00    +0.026 HD
ATOM     44  H   UNL     1       1.116  18.899  28.486  0.00  0.00    +0.026 HD
ATOM     45  H   UNL     1       1.193  17.221  29.010  0.00  0.00    +0.026 HD
ENDBRANCH  15  42
BRANCH   9  46
ATOM     46  C   UNL     1       8.225  19.683  21.338  0.00  0.00    -0.058 C 
ATOM     47  H   UNL     1       7.493  20.385  20.925  0.00  0.00    +0.024 HD
ATOM     48  H   UNL     1       8.347  18.864  20.624  0.00  0.00    +0.024 HD
ATOM     49  H   UNL     1       9.184  20.210  21.397  0.00  0.00    +0.024 HD
ENDBRANCH   9  46
BRANCH  21  50
ATOM     50  C   UNL     1       5.319  17.026  20.824  0.00  0.00    -0.009 C 
ATOM     51  H   UNL     1       4.574  17.801  21.055  0.00  0.00    +0.033 HD
ATOM     52  H   UNL     1       5.643  17.242  19.799  0.00  0.00    +0.033 HD
BRANCH  50  53
ATOM     53  C   UNL     1       4.618  15.690  20.879  0.00  0.00    -0.046 A 
ATOM     54  C   UNL     1       4.977  14.663  19.996  0.00  0.00    -0.059 A 
ATOM     55  C   UNL     1       4.338  13.423  20.054  0.00  0.00    -0.062 A 
ATOM     56  C   UNL     1       3.329  13.200  20.988  0.00  0.00    -0.062 A 
ATOM     57  C   UNL     1       2.953  14.219  21.861  0.00  0.00    -0.062 A 
ATOM     58  C   UNL     1       3.591  15.459  21.804  0.00  0.00    -0.059 A 
ATOM     59  H   UNL     1       5.752  14.821  19.248  0.00  0.00    +0.062 HD
ATOM     60  H   UNL     1       4.623  12.634  19.362  0.00  0.00    +0.062 HD
ATOM     61  H   UNL     1       2.831  12.236  21.030  0.00  0.00    +0.062 HD
ATOM     62  H   UNL     1       2.160  14.048  22.584  0.00  0.00    +0.062 HD
ATOM     63  H   UNL     1       3.277  16.244  22.489  0.00  0.00    +0.062 HD
ENDBRANCH  50  53
ENDBRANCH  21  50
BRANCH  15  64
ATOM     64  O   UNL     1       3.468  16.626  28.339  0.00  0.00    -0.377 OA
ATOM     65  H   UNL     1       4.211  16.420  27.750  0.00  0.00    +0.211 HD
ENDBRANCH  15  64
BRANCH   6  66
ATOM     66  O   UNL     1       9.201  19.298  25.701  0.00  0.00    -0.387 OA
ATOM     67  H   UNL     1       8.552  19.933  26.051  0.00  0.00    +0.210 HD
ENDBRANCH   6  66
BRANCH  12  68
ATOM     68  O   UNL     1       4.243  19.502  24.240  0.00  0.00    -0.456 OA
BRANCH  68  69
ATOM     69  C   UNL     1       3.280  19.898  23.368  0.00  0.00    +0.305 C 
ATOM     70  O   UNL     1       3.214  19.592  22.186  0.00  0.00    -0.251 OA
BRANCH  69  71
ATOM     71  C   UNL     1       2.308  20.804  24.061  0.00  0.00    +0.033 C 
ATOM     72  H   UNL     1       1.505  20.206  24.501  0.00  0.00    +0.034 HD
ATOM     73  H   UNL     1       2.814  21.348  24.863  0.00  0.00    +0.034 HD
ATOM     74  H   UNL     1       1.872  21.501  23.339  0.00  0.00    +0.034 HD
ENDBRANCH  69  71
ENDBRANCH  68  69
ENDBRANCH  12  68
TORSDOF 10
ENDMDL
MODEL 8
REMARK VINA RESULT:      -6.0     11.770     13.795
REMARK  Name = Cytochalasin D_conf3
REMARK  10 active torsions:
REMARK  status: ('A' for Active; 'I' for Inactive)
REMARK    1  A    between atoms: C_1  and  C_2
REMARK    2  A    between atoms: C_7  and  O_37
REMARK    3  A    between atoms: C_10  and  C_36
REMARK    4  A    between atoms: C_13  and  O_21
REMARK    5  A    between atoms: C_16  and  C_19
REMARK    6  A    between atoms: C_16  and  O_20
REMARK    7  A    between atoms: O_21  and  C_22
REMARK    8  A    between atoms: C_22  and  C_24
REMARK    9  A    between atoms: C_28  and  C_29
REMARK   10  A    between atoms: C_29  and  C_30
REMARK                            x       y       z     vdW  Elec       q    Type
REMARK                         _______ _______ _______ _____ _____    ______ ____
ROOT
ATOM      1  C   UNL     1       2.980  21.899  20.706  0.00  0.00    +0.021 C 
ATOM      2  C   UNL     1       4.506  22.072  20.680  0.00  0.00    -0.025 C 
ATOM      3  C   UNL     1       5.295  20.794  20.794  0.00  0.00    -0.087 C 
ATOM      4  C   UNL     1       6.352  20.666  21.618  0.00  0.00    -0.081 C 
ATOM      5  C   UNL     1       7.153  19.382  21.842  0.00  0.00    +0.025 C 
ATOM      6  C   UNL     1       8.560  19.591  21.197  0.00  0.00    +0.084 C 
ATOM      7  C   UNL     1       9.572  18.542  21.591  0.00  0.00    -0.045 C 
ATOM      8  C   UNL     1      10.891  18.779  21.479  0.00  0.00    -0.097 C 
ATOM      9  C   UNL     1       8.955  17.271  22.124  0.00  0.00    -0.015 C 
ATOM     10  C   UNL     1       8.195  17.584  23.441  0.00  0.00    +0.002 C 
ATOM     11  C   UNL     1       7.265  18.878  23.331  0.00  0.00    +0.101 C 
ATOM     12  C   UNL     1       5.894  18.574  24.027  0.00  0.00    +0.136 C 
ATOM     13  C   UNL     1       4.910  19.730  24.052  0.00  0.00    -0.044 C 
ATOM     14  C   UNL     1       3.711  19.758  23.439  0.00  0.00    -0.046 C 
ATOM     15  C   UNL     1       2.802  20.953  23.217  0.00  0.00    +0.139 C 
ATOM     16  C   UNL     1       2.409  20.894  21.707  0.00  0.00    +0.171 C 
ATOM     17  O   UNL     1       1.637  20.018  21.289  0.00  0.00    -0.294 OA
ATOM     18  C   UNL     1       8.019  19.886  24.188  0.00  0.00    +0.224 C 
ATOM     19  O   UNL     1       7.805  21.084  24.271  0.00  0.00    -0.275 OA
ATOM     20  N   UNL     1       8.991  19.253  24.908  0.00  0.00    -0.311 N 
ATOM     21  C   UNL     1       9.120  17.845  24.658  0.00  0.00    +0.032 C 
ATOM     22  H   UNL     1       2.702  21.497  19.719  0.00  0.00    +0.038 HD
ATOM     23  H   UNL     1       4.820  22.784  21.452  0.00  0.00    +0.031 HD
ATOM     24  H   UNL     1       4.778  22.541  19.724  0.00  0.00    +0.031 HD
ATOM     25  H   UNL     1       4.965  19.946  20.196  0.00  0.00    +0.057 HD
ATOM     26  H   UNL     1       6.682  21.539  22.181  0.00  0.00    +0.057 HD
ATOM     27  H   UNL     1       6.637  18.595  21.274  0.00  0.00    +0.038 HD
ATOM     28  H   UNL     1       8.953  20.586  21.446  0.00  0.00    +0.065 HD
ATOM     29  H   UNL     1      11.256  19.720  21.076  0.00  0.00    +0.054 HD
ATOM     30  H   UNL     1      11.645  18.050  21.754  0.00  0.00    +0.054 HD
ATOM     31  H   UNL     1       8.205  16.954  21.385  0.00  0.00    +0.035 HD
ATOM     32  H   UNL     1       7.588  16.695  23.639  0.00  0.00    +0.034 HD
ATOM     33  H   UNL     1       6.083  18.317  25.075  0.00  0.00    +0.079 HD
ATOM     34  H   UNL     1       5.263  20.615  24.578  0.00  0.00    +0.061 HD
ATOM     35  H   UNL     1       3.358  18.850  22.948  0.00  0.00    +0.060 HD
ATOM     36  H   UNL     1       9.596  19.787  25.523  0.00  0.00    +0.149 HD
ATOM     37  H   UNL     1      10.175  17.688  24.417  0.00  0.00    +0.050 HD
ENDROOT
BRANCH   1  38
ATOM     38  C   UNL     1       2.264  23.241  20.845  0.00  0.00    -0.055 C 
ATOM     39  H   UNL     1       1.435  23.169  21.558  0.00  0.00    +0.024 HD
ATOM     40  H   UNL     1       1.855  23.562  19.882  0.00  0.00    +0.024 HD
ATOM     41  H   UNL     1       2.937  24.026  21.202  0.00  0.00    +0.024 HD
ENDBRANCH   1  38
BRANCH  15  42
ATOM     42  C   UNL     1       1.533  20.811  24.059  0.00  0.00    -0.025 C 
ATOM     43  H   UNL     1       1.178  21.773  24.448  0.00  0.00    +0.026 HD
ATOM     44  H   UNL     1       1.713  20.150  24.916  0.00  0.00    +0.026 HD
ATOM     45  H   UNL     1       0.723  20.356  23.477  0.00  0.00    +0.026 HD
ENDBRANCH  15  42
BRANCH   9  46
ATOM     46  C   UNL     1       9.889  16.059  22.240  0.00  0.00    -0.058 C 
ATOM     47  H   UNL     1      10.668  16.247  22.987  0.00  0.00    +0.024 HD
ATOM     48  H   UNL     1      10.380  15.802  21.298  0.00  0.00    +0.024 HD
ATOM     49  H   UNL     1       9.330  15.176  22.569  0.00  0.00    +0.024 HD
ENDBRANCH   9  46
BRANCH  21  50
ATOM     50  C   UNL     1       8.760  17.037  25.920  0.00  0.00    -0.009 C 
ATOM     51  H   UNL     1       9.349  17.406  26.772  0.00  0.00    +0.033 HD
ATOM     52  H   UNL     1       7.715  17.210  26.203  0.00  0.00    +0.033 HD
BRANCH  50  53
ATOM     53  C   UNL     1       9.026  15.556  25.789  0.00  0.00    -0.046 A 
ATOM     54  C   UNL     1      10.340  15.070  25.764  0.00  0.00    -0.059 A 
ATOM     55  C   UNL     1      10.587  13.701  25.655  0.00  0.00    -0.062 A 
ATOM     56  C   UNL     1       9.525  12.804  25.563  0.00  0.00    -0.062 A 
ATOM     57  C   UNL     1       8.214  13.277  25.572  0.00  0.00    -0.062 A 
ATOM     58  C   UNL     1       7.966  14.646  25.680  0.00  0.00    -0.059 A 
ATOM     59  H   UNL     1      11.184  15.755  25.820  0.00  0.00    +0.062 HD
ATOM     60  H   UNL     1      11.611  13.335  25.634  0.00  0.00    +0.062 HD
ATOM     61  H   UNL     1       9.719  11.739  25.476  0.00  0.00    +0.062 HD
ATOM     62  H   UNL     1       7.385  12.579  25.491  0.00  0.00    +0.062 HD
ATOM     63  H   UNL     1       6.935  14.996  25.677  0.00  0.00    +0.062 HD
ENDBRANCH  50  53
ENDBRANCH  21  50
BRANCH  15  64
ATOM     64  O   UNL     1       3.421  22.162  23.621  0.00  0.00    -0.377 OA
ATOM     65  H   UNL     1       4.273  21.945  24.031  0.00  0.00    +0.211 HD
ENDBRANCH  15  64
BRANCH   6  66
ATOM     66  O   UNL     1       8.438  19.515  19.775  0.00  0.00    -0.387 OA
ATOM     67  H   UNL     1       9.263  19.874  19.404  0.00  0.00    +0.210 HD
ENDBRANCH   6  66
BRANCH  12  68
ATOM     68  O   UNL     1       5.289  17.461  23.326  0.00  0.00    -0.456 OA
BRANCH  68  69
ATOM     69  C   UNL     1       4.875  16.407  24.077  0.00  0.00    +0.305 C 
ATOM     70  O   UNL     1       4.828  16.372  25.298  0.00  0.00    -0.251 OA
BRANCH  69  71
ATOM     71  C   UNL     1       4.506  15.261  23.185  0.00  0.00    +0.033 C 
ATOM     72  H   UNL     1       4.215  15.645  22.203  0.00  0.00    +0.034 HD
ATOM     73  H   UNL     1       5.366  14.599  23.055  0.00  0.00    +0.034 HD
ATOM     74  H   UNL     1       3.662  14.715  23.614  0.00  0.00    +0.034 HD
ENDBRANCH  69  71
ENDBRANCH  68  69
ENDBRANCH  12  68
TORSDOF 10
ENDMDL
MODEL 9
REMARK VINA RESULT:      -5.9      2.442      7.845
REMARK  Name = Cytochalasin D_conf3
REMARK  10 active torsions:
REMARK  status: ('A' for Active; 'I' for Inactive)
REMARK    1  A    between atoms: C_1  and  C_2
REMARK    2  A    between atoms: C_7  and  O_37
REMARK    3  A    between atoms: C_10  and  C_36
REMARK    4  A    between atoms: C_13  and  O_21
REMARK    5  A    between atoms: C_16  and  C_19
REMARK    6  A    between atoms: C_16  and  O_20
REMARK    7  A    between atoms: O_21  and  C_22
REMARK    8  A    between atoms: C_22  and  C_24
REMARK    9  A    between atoms: C_28  and  C_29
REMARK   10  A    between atoms: C_29  and  C_30
REMARK                            x       y       z     vdW  Elec       q    Type
REMARK                         _______ _______ _______ _____ _____    ______ ____
ROOT
ATOM      1  C   UNL     1      -6.164   8.657  17.969  0.00  0.00    +0.021 C 
ATOM      2  C   UNL     1      -5.465   9.898  17.391  0.00  0.00    -0.025 C 
ATOM      3  C   UNL     1      -5.232  11.015  18.374  0.00  0.00    -0.087 C 
ATOM      4  C   UNL     1      -5.506  12.302  18.087  0.00  0.00    -0.081 C 
ATOM      5  C   UNL     1      -5.365  13.476  19.057  0.00  0.00    +0.025 C 
ATOM      6  C   UNL     1      -4.165  14.346  18.566  0.00  0.00    +0.084 C 
ATOM      7  C   UNL     1      -4.081  15.700  19.230  0.00  0.00    -0.045 C 
ATOM      8  C   UNL     1      -3.397  16.707  18.660  0.00  0.00    -0.097 C 
ATOM      9  C   UNL     1      -4.843  15.787  20.531  0.00  0.00    -0.015 C 
ATOM     10  C   UNL     1      -6.358  15.589  20.251  0.00  0.00    +0.002 C 
ATOM     11  C   UNL     1      -6.657  14.349  19.291  0.00  0.00    +0.101 C 
ATOM     12  C   UNL     1      -7.889  13.561  19.856  0.00  0.00    +0.136 C 
ATOM     13  C   UNL     1      -8.335  12.373  19.022  0.00  0.00    -0.044 C 
ATOM     14  C   UNL     1      -8.314  11.084  19.412  0.00  0.00    -0.046 C 
ATOM     15  C   UNL     1      -8.504   9.845  18.556  0.00  0.00    +0.139 C 
ATOM     16  C   UNL     1      -7.323   8.898  18.937  0.00  0.00    +0.171 C 
ATOM     17  O   UNL     1      -7.295   8.335  20.042  0.00  0.00    -0.294 OA
ATOM     18  C   UNL     1      -7.085  15.039  18.004  0.00  0.00    +0.224 C 
ATOM     19  O   UNL     1      -7.243  14.521  16.911  0.00  0.00    -0.275 OA
ATOM     20  N   UNL     1      -7.308  16.366  18.235  0.00  0.00    -0.311 N 
ATOM     21  C   UNL     1      -7.039  16.807  19.576  0.00  0.00    +0.032 C 
ATOM     22  H   UNL     1      -5.404   8.133  18.569  0.00  0.00    +0.038 HD
ATOM     23  H   UNL     1      -6.014  10.268  16.516  0.00  0.00    +0.031 HD
ATOM     24  H   UNL     1      -4.484   9.587  17.008  0.00  0.00    +0.031 HD
ATOM     25  H   UNL     1      -4.848  10.745  19.357  0.00  0.00    +0.057 HD
ATOM     26  H   UNL     1      -5.858  12.548  17.086  0.00  0.00    +0.057 HD
ATOM     27  H   UNL     1      -5.090  13.042  20.029  0.00  0.00    +0.038 HD
ATOM     28  H   UNL     1      -4.205  14.478  17.477  0.00  0.00    +0.065 HD
ATOM     29  H   UNL     1      -2.866  16.560  17.723  0.00  0.00    +0.054 HD
ATOM     30  H   UNL     1      -3.317  17.692  19.107  0.00  0.00    +0.054 HD
ATOM     31  H   UNL     1      -4.513  14.935  21.145  0.00  0.00    +0.035 HD
ATOM     32  H   UNL     1      -6.810  15.428  21.235  0.00  0.00    +0.034 HD
ATOM     33  H   UNL     1      -8.749  14.239  19.898  0.00  0.00    +0.079 HD
ATOM     34  H   UNL     1      -8.644  12.621  18.008  0.00  0.00    +0.061 HD
ATOM     35  H   UNL     1      -8.037  10.858  20.443  0.00  0.00    +0.060 HD
ATOM     36  H   UNL     1      -7.588  16.974  17.474  0.00  0.00    +0.149 HD
ATOM     37  H   UNL     1      -6.360  17.657  19.471  0.00  0.00    +0.050 HD
ENDROOT
BRANCH   1  38
ATOM     38  C   UNL     1      -6.592   7.689  16.869  0.00  0.00    -0.055 C 
ATOM     39  H   UNL     1      -5.723   7.182  16.434  0.00  0.00    +0.024 HD
ATOM     40  H   UNL     1      -7.111   8.221  16.066  0.00  0.00    +0.024 HD
ATOM     41  H   UNL     1      -7.267   6.915  17.249  0.00  0.00    +0.024 HD
ENDBRANCH   1  38
BRANCH  15  42
ATOM     42  C   UNL     1      -9.821   9.155  18.917  0.00  0.00    -0.025 C 
ATOM     43  H   UNL     1     -10.606   9.334  18.173  0.00  0.00    +0.026 HD
ATOM     44  H   UNL     1     -10.190   9.515  19.885  0.00  0.00    +0.026 HD
ATOM     45  H   UNL     1      -9.683   8.072  19.016  0.00  0.00    +0.026 HD
ENDBRANCH  15  42
BRANCH   9  46
ATOM     46  C   UNL     1      -4.546  17.008  21.411  0.00  0.00    -0.058 C 
ATOM     47  H   UNL     1      -4.284  16.693  22.427  0.00  0.00    +0.024 HD
ATOM     48  H   UNL     1      -5.388  17.703  21.480  0.00  0.00    +0.024 HD
ATOM     49  H   UNL     1      -3.692  17.568  21.013  0.00  0.00    +0.024 HD
ENDBRANCH   9  46
BRANCH  21  50
ATOM     50  C   UNL     1      -8.338  17.275  20.261  0.00  0.00    -0.009 C 
ATOM     51  H   UNL     1      -8.851  18.002  19.615  0.00  0.00    +0.033 HD
ATOM     52  H   UNL     1      -9.042  16.441  20.362  0.00  0.00    +0.033 HD
BRANCH  50  53
ATOM     53  C   UNL     1      -8.114  17.934  21.601  0.00  0.00    -0.046 A 
ATOM     54  C   UNL     1      -8.529  17.305  22.781  0.00  0.00    -0.059 A 
ATOM     55  C   UNL     1      -8.312  17.908  24.021  0.00  0.00    -0.062 A 
ATOM     56  C   UNL     1      -7.684  19.149  24.093  0.00  0.00    -0.062 A 
ATOM     57  C   UNL     1      -7.279  19.792  22.925  0.00  0.00    -0.062 A 
ATOM     58  C   UNL     1      -7.497  19.190  21.685  0.00  0.00    -0.059 A 
ATOM     59  H   UNL     1      -9.036  16.342  22.746  0.00  0.00    +0.062 HD
ATOM     60  H   UNL     1      -8.641  17.411  24.930  0.00  0.00    +0.062 HD
ATOM     61  H   UNL     1      -7.518  19.618  25.058  0.00  0.00    +0.062 HD
ATOM     62  H   UNL     1      -6.798  20.765  22.980  0.00  0.00    +0.062 HD
ATOM     63  H   UNL     1      -7.181  19.712  20.784  0.00  0.00    +0.062 HD
ENDBRANCH  50  53
ENDBRANCH  21  50
BRANCH  15  64
ATOM     64  O   UNL     1      -8.583  10.169  17.179  0.00  0.00    -0.377 OA
ATOM     65  H   UNL     1      -7.720   9.986  16.774  0.00  0.00    +0.211 HD
ENDBRANCH  15  64
BRANCH   6  66
ATOM     66  O   UNL     1      -2.943  13.672  18.876  0.00  0.00    -0.387 OA
ATOM     67  H   UNL     1      -2.607  14.067  19.700  0.00  0.00    +0.210 HD
ENDBRANCH   6  66
BRANCH  12  68
ATOM     68  O   UNL     1      -7.537  13.095  21.180  0.00  0.00    -0.456 OA
BRANCH  68  69
ATOM     69  C   UNL     1      -8.283  13.556  22.219  0.00  0.00    +0.305 C 
ATOM     70  O   UNL     1      -9.487  13.767  22.196  0.00  0.00    -0.251 OA
BRANCH  69  71
ATOM     71  C   UNL     1      -7.405  13.801  23.407  0.00  0.00    +0.033 C 
ATOM     72  H   UNL     1      -8.012  13.789  24.316  0.00  0.00    +0.034 HD
ATOM     73  H   UNL     1      -6.652  13.012  23.482  0.00  0.00    +0.034 HD
ATOM     74  H   UNL     1      -6.926  14.781  23.316  0.00  0.00    +0.034 HD
ENDBRANCH  69  71
ENDBRANCH  68  69
ENDBRANCH  12  68
TORSDOF 10
ENDMDL
MODEL 10
REMARK VINA RESULT:      -5.9      2.960      4.729
REMARK  Name = Cytochalasin D_conf3
REMARK  10 active torsions:
REMARK  status: ('A' for Active; 'I' for Inactive)
REMARK    1  A    between atoms: C_1  and  C_2
REMARK    2  A    between atoms: C_7  and  O_37
REMARK    3  A    between atoms: C_10  and  C_36
REMARK    4  A    between atoms: C_13  and  O_21
REMARK    5  A    between atoms: C_16  and  C_19
REMARK    6  A    between atoms: C_16  and  O_20
REMARK    7  A    between atoms: O_21  and  C_22
REMARK    8  A    between atoms: C_22  and  C_24
REMARK    9  A    between atoms: C_28  and  C_29
REMARK   10  A    between atoms: C_29  and  C_30
REMARK                            x       y       z     vdW  Elec       q    Type
REMARK                         _______ _______ _______ _____ _____    ______ ____
ROOT
ATOM      1  C   UNL     1      -5.545  21.388  20.122  0.00  0.00    +0.021 C 
ATOM      2  C   UNL     1      -6.704  20.609  19.480  0.00  0.00    -0.025 C 
ATOM      3  C   UNL     1      -6.848  19.183  19.943  0.00  0.00    -0.087 C 
ATOM      4  C   UNL     1      -7.044  18.161  19.089  0.00  0.00    -0.081 C 
ATOM      5  C   UNL     1      -7.124  16.684  19.476  0.00  0.00    +0.025 C 
ATOM      6  C   UNL     1      -8.603  16.227  19.272  0.00  0.00    +0.084 C 
ATOM      7  C   UNL     1      -8.791  14.729  19.318  0.00  0.00    -0.045 C 
ATOM      8  C   UNL     1      -9.874  14.152  18.767  0.00  0.00    -0.097 C 
ATOM      9  C   UNL     1      -7.660  13.996  19.998  0.00  0.00    -0.015 C 
ATOM     10  C   UNL     1      -6.356  14.194  19.179  0.00  0.00    +0.002 C 
ATOM     11  C   UNL     1      -6.113  15.714  18.755  0.00  0.00    +0.101 C 
ATOM     12  C   UNL     1      -4.600  16.062  18.973  0.00  0.00    +0.136 C 
ATOM     13  C   UNL     1      -4.193  17.467  18.565  0.00  0.00    -0.044 C 
ATOM     14  C   UNL     1      -3.733  18.426  19.392  0.00  0.00    -0.046 C 
ATOM     15  C   UNL     1      -3.550  19.903  19.099  0.00  0.00    +0.139 C 
ATOM     16  C   UNL     1      -4.220  20.646  20.298  0.00  0.00    +0.171 C 
ATOM     17  O   UNL     1      -3.696  20.632  21.422  0.00  0.00    -0.294 OA
ATOM     18  C   UNL     1      -6.378  15.672  17.256  0.00  0.00    +0.224 C 
ATOM     19  O   UNL     1      -6.498  16.626  16.505  0.00  0.00    -0.275 OA
ATOM     20  N   UNL     1      -6.441  14.378  16.828  0.00  0.00    -0.311 N 
ATOM     21  C   UNL     1      -6.310  13.385  17.858  0.00  0.00    +0.032 C 
ATOM     22  H   UNL     1      -5.870  21.626  21.148  0.00  0.00    +0.038 HD
ATOM     23  H   UNL     1      -6.628  20.651  18.387  0.00  0.00    +0.031 HD
ATOM     24  H   UNL     1      -7.640  21.131  19.726  0.00  0.00    +0.031 HD
ATOM     25  H   UNL     1      -6.763  18.992  21.011  0.00  0.00    +0.057 HD
ATOM     26  H   UNL     1      -7.157  18.384  18.028  0.00  0.00    +0.057 HD
ATOM     27  H   UNL     1      -6.904  16.635  20.553  0.00  0.00    +0.038 HD
ATOM     28  H   UNL     1      -8.998  16.613  18.322  0.00  0.00    +0.065 HD
ATOM     29  H   UNL     1     -10.650  14.754  18.302  0.00  0.00    +0.054 HD
ATOM     30  H   UNL     1     -10.040  13.081  18.780  0.00  0.00    +0.054 HD
ATOM     31  H   UNL     1      -7.510  14.486  20.971  0.00  0.00    +0.035 HD
ATOM     32  H   UNL     1      -5.551  13.849  19.837  0.00  0.00    +0.034 HD
ATOM     33  H   UNL     1      -3.993  15.384  18.363  0.00  0.00    +0.079 HD
ATOM     34  H   UNL     1      -4.350  17.697  17.513  0.00  0.00    +0.061 HD
ATOM     35  H   UNL     1      -3.547  18.166  20.435  0.00  0.00    +0.060 HD
ATOM     36  H   UNL     1      -6.626  14.174  15.851  0.00  0.00    +0.149 HD
ATOM     37  H   UNL     1      -7.178  12.731  17.742  0.00  0.00    +0.050 HD
ENDROOT
BRANCH   1  38
ATOM     38  C   UNL     1      -5.308  22.724  19.421  0.00  0.00    -0.055 C 
ATOM     39  H   UNL     1      -6.259  23.198  19.152  0.00  0.00    +0.024 HD
ATOM     40  H   UNL     1      -4.729  22.582  18.504  0.00  0.00    +0.024 HD
ATOM     41  H   UNL     1      -4.760  23.426  20.058  0.00  0.00    +0.024 HD
ENDBRANCH   1  38
BRANCH  15  42
ATOM     42  C   UNL     1      -2.061  20.253  19.077  0.00  0.00    -0.025 C 
ATOM     43  H   UNL     1      -1.581  20.106  20.051  0.00  0.00    +0.026 HD
ATOM     44  H   UNL     1      -1.917  21.301  18.789  0.00  0.00    +0.026 HD
ATOM     45  H   UNL     1      -1.525  19.648  18.336  0.00  0.00    +0.026 HD
ENDBRANCH  15  42
BRANCH   9  46
ATOM     46  C   UNL     1      -7.925  12.529  20.364  0.00  0.00    -0.058 C 
ATOM     47  H   UNL     1      -8.598  12.068  19.634  0.00  0.00    +0.024 HD
ATOM     48  H   UNL     1      -8.369  12.407  21.356  0.00  0.00    +0.024 HD
ATOM     49  H   UNL     1      -6.990  11.957  20.352  0.00  0.00    +0.024 HD
ENDBRANCH   9  46
BRANCH  21  50
ATOM     50  C   UNL     1      -5.022  12.563  17.655  0.00  0.00    -0.009 C 
ATOM     51  H   UNL     1      -4.482  12.940  16.774  0.00  0.00    +0.033 HD
ATOM     52  H   UNL     1      -4.333  12.714  18.494  0.00  0.00    +0.033 HD
BRANCH  50  53
ATOM     53  C   UNL     1      -5.270  11.089  17.441  0.00  0.00    -0.046 A 
ATOM     54  C   UNL     1      -5.944  10.335  18.410  0.00  0.00    -0.059 A 
ATOM     55  C   UNL     1      -6.184   8.974  18.208  0.00  0.00    -0.062 A 
ATOM     56  C   UNL     1      -5.747   8.353  17.041  0.00  0.00    -0.062 A 
ATOM     57  C   UNL     1      -5.062   9.090  16.077  0.00  0.00    -0.062 A 
ATOM     58  C   UNL     1      -4.820  10.450  16.277  0.00  0.00    -0.059 A 
ATOM     59  H   UNL     1      -6.281  10.797  19.336  0.00  0.00    +0.062 HD
ATOM     60  H   UNL     1      -6.707   8.398  18.968  0.00  0.00    +0.062 HD
ATOM     61  H   UNL     1      -5.932   7.294  16.887  0.00  0.00    +0.062 HD
ATOM     62  H   UNL     1      -4.712   8.604  15.170  0.00  0.00    +0.062 HD
ATOM     63  H   UNL     1      -4.277  11.006  15.517  0.00  0.00    +0.062 HD
ENDBRANCH  50  53
ENDBRANCH  21  50
BRANCH  15  64
ATOM     64  O   UNL     1      -4.064  20.251  17.826  0.00  0.00    -0.377 OA
ATOM     65  H   UNL     1      -3.364  20.703  17.328  0.00  0.00    +0.211 HD
ENDBRANCH  15  64
BRANCH   6  66
ATOM     66  O   UNL     1      -9.407  16.764  20.325  0.00  0.00    -0.387 OA
ATOM     67  H   UNL     1      -9.266  16.195  21.102  0.00  0.00    +0.210 HD
ENDBRANCH   6  66
BRANCH  12  68
ATOM     68  O   UNL     1      -4.311  15.883  20.380  0.00  0.00    -0.456 OA
BRANCH  68  69
ATOM     69  C   UNL     1      -3.410  14.921  20.712  0.00  0.00    +0.305 C 
ATOM     70  O   UNL     1      -3.677  13.790  21.089  0.00  0.00    -0.251 OA
BRANCH  69  71
ATOM     71  C   UNL     1      -2.019  15.461  20.577  0.00  0.00    +0.033 C 
ATOM     72  H   UNL     1      -1.306  14.632  20.581  0.00  0.00    +0.034 HD
ATOM     73  H   UNL     1      -1.919  15.999  19.630  0.00  0.00    +0.034 HD
ATOM     74  H   UNL     1      -1.795  16.121  21.420  0.00  0.00    +0.034 HD
ENDBRANCH  69  71
ENDBRANCH  68  69
ENDBRANCH  12  68
TORSDOF 10
ENDMDL
