MODEL 1
REMARK VINA RESULT:      -6.2      0.000      0.000
REMARK  Name = Kabiramide C_conf1
REMARK  29 active torsions:
REMARK  status: ('A' for Active; 'I' for Inactive)
REMARK    1  A    between atoms: C_1  and  C_2
REMARK    2  A    between atoms: C_4  and  O_64
REMARK    3  A    between atoms: C_9  and  C_41
REMARK    4  A    between atoms: C_10  and  C_40
REMARK    5  A    between atoms: C_11  and  O_38
REMARK    6  A    between atoms: C_30  and  O_36
REMARK    7  A    between atoms: C_31  and  C_35
REMARK    8  A    between atoms: C_32  and  O_34
REMARK    9  A    between atoms: O_36  and  C_37
REMARK   10  A    between atoms: O_38  and  C_39
REMARK   11  A    between atoms: C_41  and  C_42
REMARK   12  A    between atoms: C_42  and  C_43
REMARK   13  A    between atoms: C_42  and  O_62
REMARK   14  A    between atoms: C_43  and  C_44
REMARK   15  A    between atoms: C_43  and  C_45
REMARK   16  A    between atoms: C_45  and  C_46
REMARK   17  A    between atoms: C_46  and  C_47
REMARK   18  A    between atoms: C_47  and  C_49
REMARK   19  A    between atoms: C_49  and  C_50
REMARK   20  A    between atoms: C_49  and  C_51
REMARK   21  A    between atoms: C_51  and  C_52
REMARK   22  A    between atoms: C_51  and  O_60
REMARK   23  A    between atoms: C_52  and  C_53
REMARK   24  A    between atoms: C_52  and  C_54
REMARK   25  A    between atoms: C_55  and  N_56
REMARK   26  A    between atoms: N_56  and  C_57
REMARK   27  A    between atoms: O_60  and  C_61
REMARK   28  A    between atoms: O_62  and  C_63
REMARK   29  A    between atoms: O_64  and  C_65
REMARK                            x       y       z     vdW  Elec       q    Type
REMARK                         _______ _______ _______ _____ _____    ______ ____
ROOT
ATOM      1  C   UNL     1      -6.324   8.605  18.107  0.00  0.00    -0.038 C 
ATOM      2  C   UNL     1      -6.480   9.713  19.195  0.00  0.00    -0.012 C 
ATOM      3  C   UNL     1      -7.203  11.042  18.843  0.00  0.00    +0.115 C 
ATOM      4  C   UNL     1      -6.302  12.118  18.239  0.00  0.00    +0.082 C 
ATOM      5  C   UNL     1      -5.510  12.888  19.262  0.00  0.00    +0.311 C 
ATOM      6  O   UNL     1      -4.443  12.500  19.721  0.00  0.00    -0.251 OA
ATOM      7  O   UNL     1      -6.100  14.089  19.522  0.00  0.00    -0.461 OA
ATOM      8  C   UNL     1      -5.290  15.114  20.150  0.00  0.00    +0.110 C 
ATOM      9  C   UNL     1      -5.626  15.284  21.663  0.00  0.00    +0.020 C 
ATOM     10  C   UNL     1      -6.970  15.977  22.037  0.00  0.00    +0.068 C 
ATOM     11  C   UNL     1      -8.245  15.391  21.399  0.00  0.00    -0.008 C 
ATOM     12  C   UNL     1      -8.724  14.072  21.923  0.00  0.00    -0.077 C 
ATOM     13  C   UNL     1      -8.985  13.786  23.212  0.00  0.00    -0.003 C 
ATOM     14  C   UNL     1      -9.529  12.520  23.570  0.00  0.00    +0.220 A 
ATOM     15  N   UNL     1      -9.730  11.501  22.750  0.00  0.00    -0.205 NA
ATOM     16  C   UNL     1     -10.351  10.539  23.500  0.00  0.00    +0.164 A 
ATOM     17  C   UNL     1     -10.481  10.971  24.789  0.00  0.00    +0.125 A 
ATOM     18  O   UNL     1      -9.948  12.226  24.863  0.00  0.00    -0.443 OA
ATOM     19  C   UNL     1     -10.824   9.178  22.918  0.00  0.00    +0.250 A 
ATOM     20  N   UNL     1     -10.627   8.857  21.655  0.00  0.00    -0.203 NA
ATOM     21  C   UNL     1     -11.181   7.613  21.525  0.00  0.00    +0.164 A 
ATOM     22  C   UNL     1     -11.714   7.211  22.722  0.00  0.00    +0.125 A 
ATOM     23  O   UNL     1     -11.491   8.206  23.633  0.00  0.00    -0.442 OA
ATOM     24  C   UNL     1     -11.179   6.810  20.192  0.00  0.00    +0.249 A 
ATOM     25  N   UNL     1     -10.632   7.284  19.088  0.00  0.00    -0.210 NA
ATOM     26  C   UNL     1     -10.779   6.284  18.163  0.00  0.00    +0.109 A 
ATOM     27  C   UNL     1     -11.454   5.234  18.740  0.00  0.00    +0.118 A 
ATOM     28  O   UNL     1     -11.715   5.555  20.038  0.00  0.00    -0.442 OA
ATOM     29  C   UNL     1     -10.234   6.430  16.771  0.00  0.00    +0.108 C 
ATOM     30  C   UNL     1      -8.802   5.800  16.683  0.00  0.00    +0.014 C 
ATOM     31  C   UNL     1      -7.672   6.876  16.653  0.00  0.00    +0.061 C 
ATOM     32  C   UNL     1      -7.638   7.789  17.891  0.00  0.00    -0.024 C 
ATOM     33  H   UNL     1      -5.613   7.878  18.536  0.00  0.00    +0.030 HD
ATOM     34  H   UNL     1      -5.489   9.948  19.608  0.00  0.00    +0.030 HD
ATOM     35  H   UNL     1      -7.037   9.257  20.029  0.00  0.00    +0.030 HD
ATOM     36  H   UNL     1      -7.650  11.425  19.772  0.00  0.00    +0.074 HD
ATOM     37  H   UNL     1      -6.892  12.839  17.652  0.00  0.00    +0.041 HD
ATOM     38  H   UNL     1      -5.597  11.713  17.504  0.00  0.00    +0.041 HD
ATOM     39  H   UNL     1      -4.227  14.843  20.083  0.00  0.00    +0.074 HD
ATOM     40  H   UNL     1      -4.841  15.956  22.047  0.00  0.00    +0.036 HD
ATOM     41  H   UNL     1      -7.062  15.938  23.131  0.00  0.00    +0.060 HD
ATOM     42  H   UNL     1      -9.080  16.094  21.505  0.00  0.00    +0.033 HD
ATOM     43  H   UNL     1      -8.125  15.311  20.314  0.00  0.00    +0.033 HD
ATOM     44  H   UNL     1      -8.932  13.321  21.154  0.00  0.00    +0.057 HD
ATOM     45  H   UNL     1      -8.852  14.515  23.999  0.00  0.00    +0.067 HD
ATOM     46  H   UNL     1     -10.891  10.561  25.700  0.00  0.00    +0.105 HD
ATOM     47  H   UNL     1     -12.233   6.335  23.080  0.00  0.00    +0.105 HD
ATOM     48  H   UNL     1     -11.794   4.269  18.401  0.00  0.00    +0.105 HD
ATOM     49  H   UNL     1     -10.174   7.499  16.529  0.00  0.00    +0.067 HD
ATOM     50  H   UNL     1      -8.620   5.187  17.581  0.00  0.00    +0.035 HD
ATOM     51  H   UNL     1      -6.705   6.361  16.579  0.00  0.00    +0.060 HD
ATOM     52  H   UNL     1      -7.779   7.177  18.793  0.00  0.00    +0.029 HD
ATOM     53  H   UNL     1      -8.489   8.469  17.844  0.00  0.00    +0.029 HD
ENDROOT
BRANCH   1  54
ATOM     54  C   UNL     1      -5.656   9.124  16.835  0.00  0.00    -0.062 C 
ATOM     55  H   UNL     1      -5.291   8.311  16.198  0.00  0.00    +0.023 HD
ATOM     56  H   UNL     1      -4.805   9.777  17.070  0.00  0.00    +0.023 HD
ATOM     57  H   UNL     1      -6.355   9.737  16.255  0.00  0.00    +0.023 HD
ENDBRANCH   1  54
BRANCH  30  58
ATOM     58  C   UNL     1      -8.651   4.847  15.484  0.00  0.00    -0.057 C 
ATOM     59  H   UNL     1      -8.425   5.404  14.572  0.00  0.00    +0.023 HD
ATOM     60  H   UNL     1      -9.563   4.266  15.311  0.00  0.00    +0.023 HD
ATOM     61  H   UNL     1      -7.827   4.149  15.652  0.00  0.00    +0.023 HD
ENDBRANCH  30  58
BRANCH   9  62
ATOM     62  C   UNL     1      -5.445  13.963  22.424  0.00  0.00    -0.057 C 
ATOM     63  H   UNL     1      -5.715  14.090  23.481  0.00  0.00    +0.023 HD
ATOM     64  H   UNL     1      -6.101  13.185  22.021  0.00  0.00    +0.023 HD
ATOM     65  H   UNL     1      -4.418  13.593  22.387  0.00  0.00    +0.023 HD
ENDBRANCH   9  62
BRANCH   8  66
ATOM     66  C   UNL     1      -5.473  16.411  19.336  0.00  0.00    +0.011 C 
ATOM     67  H   UNL     1      -5.663  17.235  20.035  0.00  0.00    +0.033 HD
ATOM     68  H   UNL     1      -6.349  16.292  18.685  0.00  0.00    +0.033 HD
BRANCH  66  69
ATOM     69  C   UNL     1      -4.281  16.764  18.426  0.00  0.00    +0.064 C 
ATOM     70  H   UNL     1      -3.967  17.790  18.646  0.00  0.00    +0.060 HD
BRANCH  69  71
ATOM     71  C   UNL     1      -3.086  15.804  18.687  0.00  0.00    -0.017 C 
ATOM     72  H   UNL     1      -3.444  14.975  19.305  0.00  0.00    +0.032 HD
BRANCH  71  73
ATOM     73  C   UNL     1      -2.529  15.182  17.397  0.00  0.00    -0.060 C 
ATOM     74  H   UNL     1      -2.632  14.096  17.399  0.00  0.00    +0.023 HD
ATOM     75  H   UNL     1      -3.026  15.576  16.506  0.00  0.00    +0.023 HD
ATOM     76  H   UNL     1      -1.460  15.402  17.306  0.00  0.00    +0.023 HD
ENDBRANCH  71  73
BRANCH  71  77
ATOM     77  C   UNL     1      -1.919  16.494  19.439  0.00  0.00    -0.041 C 
ATOM     78  H   UNL     1      -2.318  17.053  20.295  0.00  0.00    +0.027 HD
ATOM     79  H   UNL     1      -1.463  17.236  18.770  0.00  0.00    +0.027 HD
BRANCH  77  80
ATOM     80  C   UNL     1      -0.811  15.567  19.939  0.00  0.00    +0.007 C 
ATOM     81  H   UNL     1      -0.795  15.599  21.036  0.00  0.00    +0.034 HD
ATOM     82  H   UNL     1      -0.982  14.519  19.679  0.00  0.00    +0.034 HD
BRANCH  80  83
ATOM     83  C   UNL     1       0.558  15.970  19.420  0.00  0.00    +0.139 C 
ATOM     84  O   UNL     1       0.899  17.154  19.416  0.00  0.00    -0.297 OA
BRANCH  83  85
ATOM     85  C   UNL     1       1.446  14.875  18.847  0.00  0.00    +0.041 C 
ATOM     86  H   UNL     1       1.857  15.267  17.908  0.00  0.00    +0.040 HD
BRANCH  85  87
ATOM     87  C   UNL     1       0.629  13.654  18.427  0.00  0.00    -0.053 C 
ATOM     88  H   UNL     1      -0.112  13.355  19.171  0.00  0.00    +0.024 HD
ATOM     89  H   UNL     1       0.070  13.877  17.512  0.00  0.00    +0.024 HD
ATOM     90  H   UNL     1       1.271  12.794  18.218  0.00  0.00    +0.024 HD
ENDBRANCH  85  87
BRANCH  85  91
ATOM     91  C   UNL     1       2.633  14.598  19.806  0.00  0.00    +0.074 C 
ATOM     92  H   UNL     1       2.866  13.525  19.730  0.00  0.00    +0.061 HD
BRANCH  91  93
ATOM     93  C   UNL     1       3.970  15.340  19.485  0.00  0.00    +0.003 C 
ATOM     94  H   UNL     1       3.873  15.796  18.490  0.00  0.00    +0.037 HD
BRANCH  93  95
ATOM     95  C   UNL     1       5.129  14.338  19.385  0.00  0.00    -0.057 C 
ATOM     96  H   UNL     1       4.974  13.492  20.064  0.00  0.00    +0.024 HD
ATOM     97  H   UNL     1       5.240  13.941  18.369  0.00  0.00    +0.024 HD
ATOM     98  H   UNL     1       6.075  14.817  19.666  0.00  0.00    +0.024 HD
ENDBRANCH  93  95
BRANCH  93  99
ATOM     99  C   UNL     1       4.350  16.406  20.493  0.00  0.00    -0.065 C 
ATOM    100  C   UNL     1       5.536  16.411  21.121  0.00  0.00    -0.005 C 
ATOM    101  H   UNL     1       3.593  17.163  20.670  0.00  0.00    +0.059 HD
ATOM    102  H   UNL     1       6.253  15.622  20.891  0.00  0.00    +0.078 HD
BRANCH 100 103
ATOM    103  N   UNL     1       5.994  17.332  22.050  0.00  0.00    -0.284 N 
ATOM    104  C   UNL     1       7.328  17.601  22.325  0.00  0.00    +0.206 C 
ATOM    105  O   UNL     1       7.755  18.418  23.134  0.00  0.00    -0.279 OA
ATOM    106  H   UNL     1       8.030  16.995  21.736  0.00  0.00    +0.126 HD
BRANCH 103 107
ATOM    107  C   UNL     1       4.977  18.053  22.814  0.00  0.00    +0.007 C 
ATOM    108  H   UNL     1       5.333  18.328  23.813  0.00  0.00    +0.043 HD
ATOM    109  H   UNL     1       4.712  18.968  22.273  0.00  0.00    +0.043 HD
ATOM    110  H   UNL     1       4.091  17.420  22.923  0.00  0.00    +0.043 HD
ENDBRANCH 103 107
ENDBRANCH 100 103
ENDBRANCH  93  99
ENDBRANCH  91  93
BRANCH  91 111
ATOM    111  O   UNL     1       2.271  14.879  21.170  0.00  0.00    -0.379 OA
BRANCH 111 112
ATOM    112  C   UNL     1       2.462  13.785  22.055  0.00  0.00    +0.037 C 
ATOM    113  H   UNL     1       2.951  14.159  22.959  0.00  0.00    +0.052 HD
ATOM    114  H   UNL     1       3.109  13.028  21.601  0.00  0.00    +0.052 HD
ATOM    115  H   UNL     1       1.506  13.339  22.345  0.00  0.00    +0.052 HD
ENDBRANCH 111 112
ENDBRANCH  91 111
ENDBRANCH  85  91
ENDBRANCH  83  85
ENDBRANCH  80  83
ENDBRANCH  77  80
ENDBRANCH  71  77
ENDBRANCH  69  71
BRANCH  69 116
ATOM    116  O   UNL     1      -4.681  16.636  17.058  0.00  0.00    -0.379 OA
BRANCH 116 117
ATOM    117  C   UNL     1      -6.077  16.788  16.852  0.00  0.00    +0.037 C 
ATOM    118  H   UNL     1      -6.274  17.504  16.052  0.00  0.00    +0.052 HD
ATOM    119  H   UNL     1      -6.486  15.818  16.557  0.00  0.00    +0.052 HD
ATOM    120  H   UNL     1      -6.572  17.107  17.772  0.00  0.00    +0.052 HD
ENDBRANCH 116 117
ENDBRANCH  69 116
ENDBRANCH  66  69
ENDBRANCH   8  66
BRANCH  31 121
ATOM    121  O   UNL     1      -7.839   7.688  15.487  0.00  0.00    -0.391 OA
ATOM    122  H   UNL     1      -7.619   7.134  14.717  0.00  0.00    +0.210 HD
ENDBRANCH  31 121
BRANCH  29 123
ATOM    123  O   UNL     1     -11.125   5.805  15.824  0.00  0.00    -0.373 OA
BRANCH 123 124
ATOM    124  C   UNL     1     -11.976   6.754  15.186  0.00  0.00    +0.037 C 
ATOM    125  H   UNL     1     -13.005   6.395  15.258  0.00  0.00    +0.052 HD
ATOM    126  H   UNL     1     -11.713   6.842  14.127  0.00  0.00    +0.052 HD
ATOM    127  H   UNL     1     -11.915   7.733  15.670  0.00  0.00    +0.052 HD
ENDBRANCH 123 124
ENDBRANCH  29 123
BRANCH  10 128
ATOM    128  O   UNL     1      -6.833  17.370  21.681  0.00  0.00    -0.379 OA
BRANCH 128 129
ATOM    129  C   UNL     1      -8.064  18.065  21.534  0.00  0.00    +0.037 C 
ATOM    130  H   UNL     1      -8.191  18.452  20.520  0.00  0.00    +0.052 HD
ATOM    131  H   UNL     1      -8.053  18.921  22.220  0.00  0.00    +0.052 HD
ATOM    132  H   UNL     1      -8.903  17.415  21.805  0.00  0.00    +0.052 HD
ENDBRANCH 128 129
ENDBRANCH  10 128
BRANCH   3 133
ATOM    133  O   UNL     1      -8.247  10.745  17.897  0.00  0.00    -0.447 OA
BRANCH 133 134
ATOM    134  C   UNL     1      -9.508  11.077  18.220  0.00  0.00    +0.398 C 
ATOM    135  O   UNL     1     -10.284  11.739  17.549  0.00  0.00    -0.227 OA
ATOM    136  N   UNL     1      -9.816  10.533  19.417  0.00  0.00    -0.295 N 
ATOM    137  H   UNL     1      -9.109  10.004  19.904  0.00  0.00    +0.148 HD
ATOM    138  H   UNL     1     -10.731  10.673  19.811  0.00  0.00    +0.148 HD
ENDBRANCH 133 134
ENDBRANCH   3 133
TORSDOF 29
ENDMDL
MODEL 2
REMARK VINA RESULT:      -5.9      4.543      7.891
REMARK  Name = Kabiramide C_conf1
REMARK  29 active torsions:
REMARK  status: ('A' for Active; 'I' for Inactive)
REMARK    1  A    between atoms: C_1  and  C_2
REMARK    2  A    between atoms: C_4  and  O_64
REMARK    3  A    between atoms: C_9  and  C_41
REMARK    4  A    between atoms: C_10  and  C_40
REMARK    5  A    between atoms: C_11  and  O_38
REMARK    6  A    between atoms: C_30  and  O_36
REMARK    7  A    between atoms: C_31  and  C_35
REMARK    8  A    between atoms: C_32  and  O_34
REMARK    9  A    between atoms: O_36  and  C_37
REMARK   10  A    between atoms: O_38  and  C_39
REMARK   11  A    between atoms: C_41  and  C_42
REMARK   12  A    between atoms: C_42  and  C_43
REMARK   13  A    between atoms: C_42  and  O_62
REMARK   14  A    between atoms: C_43  and  C_44
REMARK   15  A    between atoms: C_43  and  C_45
REMARK   16  A    between atoms: C_45  and  C_46
REMARK   17  A    between atoms: C_46  and  C_47
REMARK   18  A    between atoms: C_47  and  C_49
REMARK   19  A    between atoms: C_49  and  C_50
REMARK   20  A    between atoms: C_49  and  C_51
REMARK   21  A    between atoms: C_51  and  C_52
REMARK   22  A    between atoms: C_51  and  O_60
REMARK   23  A    between atoms: C_52  and  C_53
REMARK   24  A    between atoms: C_52  and  C_54
REMARK   25  A    between atoms: C_55  and  N_56
REMARK   26  A    between atoms: N_56  and  C_57
REMARK   27  A    between atoms: O_60  and  C_61
REMARK   28  A    between atoms: O_62  and  C_63
REMARK   29  A    between atoms: O_64  and  C_65
REMARK                            x       y       z     vdW  Elec       q    Type
REMARK                         _______ _______ _______ _____ _____    ______ ____
ROOT
ATOM      1  C   UNL     1      -5.812   9.469  18.127  0.00  0.00    -0.038 C 
ATOM      2  C   UNL     1      -5.870  10.713  19.067  0.00  0.00    -0.012 C 
ATOM      3  C   UNL     1      -6.565  12.014  18.580  0.00  0.00    +0.115 C 
ATOM      4  C   UNL     1      -5.661  12.965  17.796  0.00  0.00    +0.082 C 
ATOM      5  C   UNL     1      -4.789  13.827  18.669  0.00  0.00    +0.311 C 
ATOM      6  O   UNL     1      -3.712  13.458  19.121  0.00  0.00    -0.251 OA
ATOM      7  O   UNL     1      -5.321  15.075  18.798  0.00  0.00    -0.461 OA
ATOM      8  C   UNL     1      -4.443  16.138  19.245  0.00  0.00    +0.110 C 
ATOM      9  C   UNL     1      -4.691  16.516  20.738  0.00  0.00    +0.020 C 
ATOM     10  C   UNL     1      -5.987  17.307  21.084  0.00  0.00    +0.068 C 
ATOM     11  C   UNL     1      -7.314  16.697  20.592  0.00  0.00    -0.008 C 
ATOM     12  C   UNL     1      -7.810  15.478  21.308  0.00  0.00    -0.077 C 
ATOM     13  C   UNL     1      -8.010  15.371  22.634  0.00  0.00    -0.003 C 
ATOM     14  C   UNL     1      -8.577  14.186  23.181  0.00  0.00    +0.220 A 
ATOM     15  N   UNL     1      -8.858  13.079  22.513  0.00  0.00    -0.205 NA
ATOM     16  C   UNL     1      -9.470  12.248  23.412  0.00  0.00    +0.164 A 
ATOM     17  C   UNL     1      -9.515  12.848  24.638  0.00  0.00    +0.125 A 
ATOM     18  O   UNL     1      -8.936  14.079  24.521  0.00  0.00    -0.443 OA
ATOM     19  C   UNL     1     -10.021  10.844  23.038  0.00  0.00    +0.250 A 
ATOM     20  N   UNL     1      -9.905  10.355  21.819  0.00  0.00    -0.203 NA
ATOM     21  C   UNL     1     -10.508   9.129  21.881  0.00  0.00    +0.164 A 
ATOM     22  C   UNL     1     -10.988   8.908  23.145  0.00  0.00    +0.125 A 
ATOM     23  O   UNL     1     -10.682  10.002  23.906  0.00  0.00    -0.442 OA
ATOM     24  C   UNL     1     -10.606   8.161  20.667  0.00  0.00    +0.249 A 
ATOM     25  N   UNL     1     -10.104   8.465  19.484  0.00  0.00    -0.210 NA
ATOM     26  C   UNL     1     -10.336   7.362  18.706  0.00  0.00    +0.109 A 
ATOM     27  C   UNL     1     -11.014   6.424  19.449  0.00  0.00    +0.118 A 
ATOM     28  O   UNL     1     -11.193   6.920  20.705  0.00  0.00    -0.442 OA
ATOM     29  C   UNL     1      -9.862   7.304  17.282  0.00  0.00    +0.108 C 
ATOM     30  C   UNL     1      -8.461   6.608  17.207  0.00  0.00    +0.014 C 
ATOM     31  C   UNL     1      -7.297   7.624  16.980  0.00  0.00    +0.061 C 
ATOM     32  C   UNL     1      -7.164   8.687  18.085  0.00  0.00    -0.024 C 
ATOM     33  H   UNL     1      -5.105   8.774  18.611  0.00  0.00    +0.030 HD
ATOM     34  H   UNL     1      -4.851  10.958  19.396  0.00  0.00    +0.030 HD
ATOM     35  H   UNL     1      -6.397  10.393  19.980  0.00  0.00    +0.030 HD
ATOM     36  H   UNL     1      -6.947  12.532  19.471  0.00  0.00    +0.074 HD
ATOM     37  H   UNL     1      -6.257  13.629  17.150  0.00  0.00    +0.041 HD
ATOM     38  H   UNL     1      -5.012  12.440  17.087  0.00  0.00    +0.041 HD
ATOM     39  H   UNL     1      -3.396  15.817  19.162  0.00  0.00    +0.074 HD
ATOM     40  H   UNL     1      -3.863  17.199  20.991  0.00  0.00    +0.036 HD
ATOM     41  H   UNL     1      -6.020  17.413  22.177  0.00  0.00    +0.060 HD
ATOM     42  H   UNL     1      -8.117  17.441  20.646  0.00  0.00    +0.033 HD
ATOM     43  H   UNL     1      -7.257  16.473  19.522  0.00  0.00    +0.033 HD
ATOM     44  H   UNL     1      -8.086  14.643  20.655  0.00  0.00    +0.057 HD
ATOM     45  H   UNL     1      -7.809  16.190  23.311  0.00  0.00    +0.067 HD
ATOM     46  H   UNL     1      -9.889  12.577  25.614  0.00  0.00    +0.105 HD
ATOM     47  H   UNL     1     -11.517   8.107  23.640  0.00  0.00    +0.105 HD
ATOM     48  H   UNL     1     -11.406   5.438  19.257  0.00  0.00    +0.105 HD
ATOM     49  H   UNL     1      -9.779   8.329  16.900  0.00  0.00    +0.067 HD
ATOM     50  H   UNL     1      -8.251   6.110  18.168  0.00  0.00    +0.035 HD
ATOM     51  H   UNL     1      -6.354   7.064  16.927  0.00  0.00    +0.060 HD
ATOM     52  H   UNL     1      -7.276   8.203  19.065  0.00  0.00    +0.029 HD
ATOM     53  H   UNL     1      -7.993   9.390  17.991  0.00  0.00    +0.029 HD
ENDROOT
BRANCH   1  54
ATOM     54  C   UNL     1      -5.197   9.791  16.766  0.00  0.00    -0.062 C 
ATOM     55  H   UNL     1      -5.058   8.894  16.152  0.00  0.00    +0.023 HD
ATOM     56  H   UNL     1      -4.221  10.280  16.876  0.00  0.00    +0.023 HD
ATOM     57  H   UNL     1      -5.828  10.498  16.215  0.00  0.00    +0.023 HD
ENDBRANCH   1  54
BRANCH  30  58
ATOM     58  C   UNL     1      -8.408   5.504  16.137  0.00  0.00    -0.057 C 
ATOM     59  H   UNL     1      -7.854   4.636  16.502  0.00  0.00    +0.023 HD
ATOM     60  H   UNL     1      -7.928   5.853  15.217  0.00  0.00    +0.023 HD
ATOM     61  H   UNL     1      -9.418   5.164  15.889  0.00  0.00    +0.023 HD
ENDBRANCH  30  58
BRANCH   9  62
ATOM     62  C   UNL     1      -4.514  15.298  21.656  0.00  0.00    -0.057 C 
ATOM     63  H   UNL     1      -5.388  14.637  21.588  0.00  0.00    +0.023 HD
ATOM     64  H   UNL     1      -3.644  14.705  21.358  0.00  0.00    +0.023 HD
ATOM     65  H   UNL     1      -4.391  15.576  22.705  0.00  0.00    +0.023 HD
ENDBRANCH   9  62
BRANCH   8  66
ATOM     66  C   UNL     1      -4.625  17.326  18.278  0.00  0.00    +0.011 C 
ATOM     67  H   UNL     1      -3.700  17.449  17.702  0.00  0.00    +0.033 HD
ATOM     68  H   UNL     1      -4.794  18.234  18.871  0.00  0.00    +0.033 HD
BRANCH  66  69
ATOM     69  C   UNL     1      -5.822  17.185  17.318  0.00  0.00    +0.064 C 
ATOM     70  H   UNL     1      -6.376  16.279  17.583  0.00  0.00    +0.060 HD
BRANCH  69  71
ATOM     71  C   UNL     1      -6.772  18.411  17.438  0.00  0.00    -0.017 C 
ATOM     72  H   UNL     1      -6.597  18.883  18.409  0.00  0.00    +0.032 HD
BRANCH  71  73
ATOM     73  C   UNL     1      -6.499  19.483  16.371  0.00  0.00    -0.060 C 
ATOM     74  H   UNL     1      -6.401  20.474  16.816  0.00  0.00    +0.023 HD
ATOM     75  H   UNL     1      -5.593  19.268  15.799  0.00  0.00    +0.023 HD
ATOM     76  H   UNL     1      -7.335  19.530  15.666  0.00  0.00    +0.023 HD
ENDBRANCH  71  73
BRANCH  71  77
ATOM     77  C   UNL     1      -8.269  18.015  17.360  0.00  0.00    -0.041 C 
ATOM     78  H   UNL     1      -8.378  16.951  17.605  0.00  0.00    +0.027 HD
ATOM     79  H   UNL     1      -8.606  18.130  16.321  0.00  0.00    +0.027 HD
BRANCH  77  80
ATOM     80  C   UNL     1      -9.215  18.818  18.253  0.00  0.00    +0.007 C 
ATOM     81  H   UNL     1      -8.770  18.899  19.253  0.00  0.00    +0.034 HD
ATOM     82  H   UNL     1      -9.355  19.846  17.910  0.00  0.00    +0.034 HD
BRANCH  80  83
ATOM     83  C   UNL     1     -10.581  18.167  18.381  0.00  0.00    +0.139 C 
ATOM     84  O   UNL     1     -11.282  18.375  19.372  0.00  0.00    -0.297 OA
BRANCH  83  85
ATOM     85  C   UNL     1     -11.008  17.202  17.283  0.00  0.00    +0.041 C 
ATOM     86  H   UNL     1     -10.234  17.252  16.506  0.00  0.00    +0.040 HD
BRANCH  85  87
ATOM     87  C   UNL     1     -12.283  17.676  16.585  0.00  0.00    -0.053 C 
ATOM     88  H   UNL     1     -12.106  18.056  15.578  0.00  0.00    +0.024 HD
ATOM     89  H   UNL     1     -12.981  16.839  16.478  0.00  0.00    +0.024 HD
ATOM     90  H   UNL     1     -12.789  18.454  17.163  0.00  0.00    +0.024 HD
ENDBRANCH  85  87
BRANCH  85  91
ATOM     91  C   UNL     1     -11.035  15.752  17.832  0.00  0.00    +0.074 C 
ATOM     92  H   UNL     1     -12.090  15.441  17.870  0.00  0.00    +0.061 HD
BRANCH  91  93
ATOM     93  C   UNL     1     -10.311  14.671  16.968  0.00  0.00    +0.003 C 
ATOM     94  H   UNL     1     -10.453  13.697  17.457  0.00  0.00    +0.037 HD
BRANCH  93  95
ATOM     95  C   UNL     1      -8.797  14.924  16.949  0.00  0.00    -0.057 C 
ATOM     96  H   UNL     1      -8.411  15.067  17.965  0.00  0.00    +0.024 HD
ATOM     97  H   UNL     1      -8.249  14.091  16.494  0.00  0.00    +0.024 HD
ATOM     98  H   UNL     1      -8.567  15.832  16.379  0.00  0.00    +0.024 HD
ENDBRANCH  93  95
BRANCH  93  99
ATOM     99  C   UNL     1     -10.795  14.590  15.534  0.00  0.00    -0.065 C 
ATOM    100  C   UNL     1     -10.410  13.613  14.699  0.00  0.00    -0.005 C 
ATOM    101  H   UNL     1     -11.475  15.380  15.233  0.00  0.00    +0.059 HD
ATOM    102  H   UNL     1      -9.728  12.847  15.070  0.00  0.00    +0.078 HD
BRANCH 100 103
ATOM    103  N   UNL     1     -10.790  13.434  13.378  0.00  0.00    -0.284 N 
ATOM    104  C   UNL     1     -10.411  14.243  12.316  0.00  0.00    +0.206 C 
ATOM    105  O   UNL     1     -10.726  14.097  11.140  0.00  0.00    -0.279 OA
ATOM    106  H   UNL     1      -9.768  15.083  12.610  0.00  0.00    +0.126 HD
BRANCH 103 107
ATOM    107  C   UNL     1     -11.684  12.311  13.101  0.00  0.00    +0.007 C 
ATOM    108  H   UNL     1     -12.702  12.498  13.461  0.00  0.00    +0.043 HD
ATOM    109  H   UNL     1     -11.722  12.149  12.018  0.00  0.00    +0.043 HD
ATOM    110  H   UNL     1     -11.300  11.413  13.595  0.00  0.00    +0.043 HD
ENDBRANCH 103 107
ENDBRANCH 100 103
ENDBRANCH  93  99
ENDBRANCH  91  93
BRANCH  91 111
ATOM    111  O   UNL     1     -10.508  15.697  19.170  0.00  0.00    -0.379 OA
BRANCH 111 112
ATOM    112  C   UNL     1     -11.254  14.869  20.050  0.00  0.00    +0.037 C 
ATOM    113  H   UNL     1     -12.304  14.906  19.744  0.00  0.00    +0.052 HD
ATOM    114  H   UNL     1     -11.182  15.234  21.079  0.00  0.00    +0.052 HD
ATOM    115  H   UNL     1     -10.921  13.829  19.994  0.00  0.00    +0.052 HD
ENDBRANCH 111 112
ENDBRANCH  91 111
ENDBRANCH  85  91
ENDBRANCH  83  85
ENDBRANCH  80  83
ENDBRANCH  77  80
ENDBRANCH  71  77
ENDBRANCH  69  71
BRANCH  69 116
ATOM    116  O   UNL     1      -5.338  17.112  15.973  0.00  0.00    -0.379 OA
BRANCH 116 117
ATOM    117  C   UNL     1      -5.214  15.787  15.479  0.00  0.00    +0.037 C 
ATOM    118  H   UNL     1      -4.185  15.583  15.175  0.00  0.00    +0.052 HD
ATOM    119  H   UNL     1      -5.479  15.097  16.285  0.00  0.00    +0.052 HD
ATOM    120  H   UNL     1      -5.895  15.621  14.642  0.00  0.00    +0.052 HD
ENDBRANCH 116 117
ENDBRANCH  69 116
ENDBRANCH  66  69
ENDBRANCH   8  66
BRANCH  31 121
ATOM    121  O   UNL     1      -7.499   8.285  15.728  0.00  0.00    -0.391 OA
ATOM    122  H   UNL     1      -6.673   8.754  15.514  0.00  0.00    +0.210 HD
ENDBRANCH  31 121
BRANCH  29 123
ATOM    123  O   UNL     1     -10.825   6.599  16.471  0.00  0.00    -0.373 OA
BRANCH 123 124
ATOM    124  C   UNL     1     -11.616   7.490  15.688  0.00  0.00    +0.037 C 
ATOM    125  H   UNL     1     -11.593   8.475  16.158  0.00  0.00    +0.052 HD
ATOM    126  H   UNL     1     -12.655   7.144  15.661  0.00  0.00    +0.052 HD
ATOM    127  H   UNL     1     -11.226   7.581  14.671  0.00  0.00    +0.052 HD
ENDBRANCH 123 124
ENDBRANCH  29 123
BRANCH  10 128
ATOM    128  O   UNL     1      -5.822  18.636  20.542  0.00  0.00    -0.379 OA
BRANCH 128 129
ATOM    129  C   UNL     1      -4.986  19.487  21.313  0.00  0.00    +0.037 C 
ATOM    130  H   UNL     1      -3.973  19.088  21.400  0.00  0.00    +0.052 HD
ATOM    131  H   UNL     1      -5.409  19.552  22.323  0.00  0.00    +0.052 HD
ATOM    132  H   UNL     1      -4.966  20.494  20.881  0.00  0.00    +0.052 HD
ENDBRANCH 128 129
ENDBRANCH  10 128
BRANCH   3 133
ATOM    133  O   UNL     1      -7.669  11.642  17.733  0.00  0.00    -0.447 OA
BRANCH 133 134
ATOM    134  C   UNL     1      -8.907  11.676  18.254  0.00  0.00    +0.398 C 
ATOM    135  O   UNL     1      -9.932  11.278  17.726  0.00  0.00    -0.227 OA
ATOM    136  N   UNL     1      -8.849  12.205  19.495  0.00  0.00    -0.295 N 
ATOM    137  H   UNL     1      -7.957  12.513  19.850  0.00  0.00    +0.148 HD
ATOM    138  H   UNL     1      -9.690  12.297  20.040  0.00  0.00    +0.148 HD
ENDBRANCH 133 134
ENDBRANCH   3 133
TORSDOF 29
ENDMDL
MODEL 3
REMARK VINA RESULT:      -5.8      7.370     14.098
REMARK  Name = Kabiramide C_conf1
REMARK  29 active torsions:
REMARK  status: ('A' for Active; 'I' for Inactive)
REMARK    1  A    between atoms: C_1  and  C_2
REMARK    2  A    between atoms: C_4  and  O_64
REMARK    3  A    between atoms: C_9  and  C_41
REMARK    4  A    between atoms: C_10  and  C_40
REMARK    5  A    between atoms: C_11  and  O_38
REMARK    6  A    between atoms: C_30  and  O_36
REMARK    7  A    between atoms: C_31  and  C_35
REMARK    8  A    between atoms: C_32  and  O_34
REMARK    9  A    between atoms: O_36  and  C_37
REMARK   10  A    between atoms: O_38  and  C_39
REMARK   11  A    between atoms: C_41  and  C_42
REMARK   12  A    between atoms: C_42  and  C_43
REMARK   13  A    between atoms: C_42  and  O_62
REMARK   14  A    between atoms: C_43  and  C_44
REMARK   15  A    between atoms: C_43  and  C_45
REMARK   16  A    between atoms: C_45  and  C_46
REMARK   17  A    between atoms: C_46  and  C_47
REMARK   18  A    between atoms: C_47  and  C_49
REMARK   19  A    between atoms: C_49  and  C_50
REMARK   20  A    between atoms: C_49  and  C_51
REMARK   21  A    between atoms: C_51  and  C_52
REMARK   22  A    between atoms: C_51  and  O_60
REMARK   23  A    between atoms: C_52  and  C_53
REMARK   24  A    between atoms: C_52  and  C_54
REMARK   25  A    between atoms: C_55  and  N_56
REMARK   26  A    between atoms: N_56  and  C_57
REMARK   27  A    between atoms: O_60  and  C_61
REMARK   28  A    between atoms: O_62  and  C_63
REMARK   29  A    between atoms: O_64  and  C_65
REMARK                            x       y       z     vdW  Elec       q    Type
REMARK                         _______ _______ _______ _____ _____    ______ ____
ROOT
ATOM      1  C   UNL     1     -10.758  -1.236  16.301  0.00  0.00    -0.038 C 
ATOM      2  C   UNL     1     -10.199  -0.877  14.889  0.00  0.00    -0.012 C 
ATOM      3  C   UNL     1      -8.964   0.057  14.765  0.00  0.00    +0.115 C 
ATOM      4  C   UNL     1      -9.293   1.550  14.736  0.00  0.00    +0.082 C 
ATOM      5  C   UNL     1      -9.731   2.045  13.383  0.00  0.00    +0.311 C 
ATOM      6  O   UNL     1     -10.882   1.963  12.974  0.00  0.00    -0.251 OA
ATOM      7  O   UNL     1      -8.701   2.665  12.741  0.00  0.00    -0.461 OA
ATOM      8  C   UNL     1      -9.028   3.545  11.637  0.00  0.00    +0.110 C 
ATOM      9  C   UNL     1      -8.724   2.891  10.254  0.00  0.00    +0.020 C 
ATOM     10  C   UNL     1      -7.232   2.749   9.828  0.00  0.00    +0.068 C 
ATOM     11  C   UNL     1      -6.298   2.040  10.829  0.00  0.00    -0.008 C 
ATOM     12  C   UNL     1      -6.449   0.557  10.969  0.00  0.00    -0.077 C 
ATOM     13  C   UNL     1      -6.397  -0.337   9.965  0.00  0.00    -0.003 C 
ATOM     14  C   UNL     1      -6.459  -1.732  10.242  0.00  0.00    +0.220 A 
ATOM     15  N   UNL     1      -6.670  -2.280  11.428  0.00  0.00    -0.205 NA
ATOM     16  C   UNL     1      -6.554  -3.630  11.239  0.00  0.00    +0.164 A 
ATOM     17  C   UNL     1      -6.314  -3.893   9.920  0.00  0.00    +0.125 A 
ATOM     18  O   UNL     1      -6.266  -2.698   9.260  0.00  0.00    -0.443 OA
ATOM     19  C   UNL     1      -6.675  -4.666  12.390  0.00  0.00    +0.250 A 
ATOM     20  N   UNL     1      -6.930  -4.298  13.631  0.00  0.00    -0.203 NA
ATOM     21  C   UNL     1      -6.950  -5.468  14.340  0.00  0.00    +0.164 A 
ATOM     22  C   UNL     1      -6.696  -6.525  13.505  0.00  0.00    +0.125 A 
ATOM     23  O   UNL     1      -6.519  -6.028  12.244  0.00  0.00    -0.442 OA
ATOM     24  C   UNL     1      -7.229  -5.538  15.869  0.00  0.00    +0.249 A 
ATOM     25  N   UNL     1      -7.470  -4.457  16.588  0.00  0.00    -0.210 NA
ATOM     26  C   UNL     1      -7.717  -4.922  17.853  0.00  0.00    +0.109 A 
ATOM     27  C   UNL     1      -7.581  -6.290  17.863  0.00  0.00    +0.118 A 
ATOM     28  O   UNL     1      -7.270  -6.698  16.601  0.00  0.00    -0.442 OA
ATOM     29  C   UNL     1      -8.082  -3.982  18.966  0.00  0.00    +0.108 C 
ATOM     30  C   UNL     1      -9.640  -3.877  19.097  0.00  0.00    +0.014 C 
ATOM     31  C   UNL     1     -10.203  -2.542  18.517  0.00  0.00    +0.061 C 
ATOM     32  C   UNL     1      -9.906  -2.329  17.022  0.00  0.00    -0.024 C 
ATOM     33  H   UNL     1     -11.730  -1.723  16.111  0.00  0.00    +0.030 HD
ATOM     34  H   UNL     1     -11.014  -0.468  14.277  0.00  0.00    +0.030 HD
ATOM     35  H   UNL     1      -9.928  -1.829  14.407  0.00  0.00    +0.030 HD
ATOM     36  H   UNL     1      -8.442  -0.215  13.837  0.00  0.00    +0.074 HD
ATOM     37  H   UNL     1      -8.426   2.149  15.052  0.00  0.00    +0.041 HD
ATOM     38  H   UNL     1     -10.068   1.824  15.460  0.00  0.00    +0.041 HD
ATOM     39  H   UNL     1     -10.100   3.782  11.654  0.00  0.00    +0.074 HD
ATOM     40  H   UNL     1      -9.166   3.582   9.518  0.00  0.00    +0.036 HD
ATOM     41  H   UNL     1      -7.218   2.206   8.873  0.00  0.00    +0.060 HD
ATOM     42  H   UNL     1      -5.250   2.226  10.566  0.00  0.00    +0.033 HD
ATOM     43  H   UNL     1      -6.388   2.495  11.821  0.00  0.00    +0.033 HD
ATOM     44  H   UNL     1      -6.543   0.200  12.000  0.00  0.00    +0.057 HD
ATOM     45  H   UNL     1      -6.245  -0.037   8.937  0.00  0.00    +0.067 HD
ATOM     46  H   UNL     1      -6.160  -4.783   9.329  0.00  0.00    +0.105 HD
ATOM     47  H   UNL     1      -6.616  -7.596  13.619  0.00  0.00    +0.105 HD
ATOM     48  H   UNL     1      -7.667  -7.059  18.614  0.00  0.00    +0.105 HD
ATOM     49  H   UNL     1      -7.671  -2.991  18.736  0.00  0.00    +0.067 HD
ATOM     50  H   UNL     1     -10.108  -4.688  18.513  0.00  0.00    +0.035 HD
ATOM     51  H   UNL     1     -11.293  -2.537  18.654  0.00  0.00    +0.060 HD
ATOM     52  H   UNL     1     -10.082  -3.270  16.482  0.00  0.00    +0.029 HD
ATOM     53  H   UNL     1      -8.845  -2.102  16.909  0.00  0.00    +0.029 HD
ENDROOT
BRANCH   1  54
ATOM     54  C   UNL     1     -11.081   0.002  17.136  0.00  0.00    -0.062 C 
ATOM     55  H   UNL     1     -10.187   0.431  17.601  0.00  0.00    +0.023 HD
ATOM     56  H   UNL     1     -11.798  -0.231  17.933  0.00  0.00    +0.023 HD
ATOM     57  H   UNL     1     -11.558   0.771  16.517  0.00  0.00    +0.023 HD
ENDBRANCH   1  54
BRANCH  30  58
ATOM     58  C   UNL     1     -10.124  -4.066  20.545  0.00  0.00    -0.057 C 
ATOM     59  H   UNL     1      -9.546  -3.443  21.231  0.00  0.00    +0.023 HD
ATOM     60  H   UNL     1     -10.033  -5.107  20.870  0.00  0.00    +0.023 HD
ATOM     61  H   UNL     1     -11.172  -3.768  20.639  0.00  0.00    +0.023 HD
ENDBRANCH  30  58
BRANCH   9  62
ATOM     62  C   UNL     1      -9.484   1.568  10.086  0.00  0.00    -0.057 C 
ATOM     63  H   UNL     1      -8.912   0.875   9.455  0.00  0.00    +0.023 HD
ATOM     64  H   UNL     1      -9.629   1.074  11.051  0.00  0.00    +0.023 HD
ATOM     65  H   UNL     1     -10.465   1.703   9.624  0.00  0.00    +0.023 HD
ENDBRANCH   9  62
BRANCH   8  66
ATOM     66  C   UNL     1      -8.272   4.871  11.863  0.00  0.00    +0.011 C 
ATOM     67  H   UNL     1      -7.454   4.932  11.134  0.00  0.00    +0.033 HD
ATOM     68  H   UNL     1      -7.844   4.858  12.873  0.00  0.00    +0.033 HD
BRANCH  66  69
ATOM     69  C   UNL     1      -9.155   6.130  11.763  0.00  0.00    +0.064 C 
ATOM     70  H   UNL     1     -10.162   5.825  11.461  0.00  0.00    +0.060 HD
BRANCH  69  71
ATOM     71  C   UNL     1      -9.237   6.856  13.136  0.00  0.00    -0.017 C 
ATOM     72  H   UNL     1      -8.327   7.449  13.262  0.00  0.00    +0.032 HD
BRANCH  71  73
ATOM     73  C   UNL     1     -10.418   7.836  13.221  0.00  0.00    -0.060 C 
ATOM     74  H   UNL     1     -10.305   8.661  12.516  0.00  0.00    +0.023 HD
ATOM     75  H   UNL     1     -11.374   7.342  13.027  0.00  0.00    +0.023 HD
ATOM     76  H   UNL     1     -10.467   8.276  14.222  0.00  0.00    +0.023 HD
ENDBRANCH  71  73
BRANCH  71  77
ATOM     77  C   UNL     1      -9.335   5.869  14.327  0.00  0.00    -0.041 C 
ATOM     78  H   UNL     1      -8.471   5.193  14.312  0.00  0.00    +0.027 HD
ATOM     79  H   UNL     1     -10.224   5.239  14.186  0.00  0.00    +0.027 HD
BRANCH  77  80
ATOM     80  C   UNL     1      -9.427   6.508  15.713  0.00  0.00    +0.007 C 
ATOM     81  H   UNL     1      -9.999   7.441  15.632  0.00  0.00    +0.034 HD
ATOM     82  H   UNL     1      -9.972   5.891  16.431  0.00  0.00    +0.034 HD
BRANCH  80  83
ATOM     83  C   UNL     1      -8.060   6.824  16.295  0.00  0.00    +0.139 C 
ATOM     84  O   UNL     1      -7.129   6.030  16.166  0.00  0.00    -0.297 OA
BRANCH  83  85
ATOM     85  C   UNL     1      -7.916   8.110  17.098  0.00  0.00    +0.041 C 
ATOM     86  H   UNL     1      -8.430   7.941  18.052  0.00  0.00    +0.040 HD
BRANCH  85  87
ATOM     87  C   UNL     1      -8.681   9.263  16.449  0.00  0.00    -0.053 C 
ATOM     88  H   UNL     1      -9.222   9.879  17.170  0.00  0.00    +0.024 HD
ATOM     89  H   UNL     1      -7.981   9.933  15.938  0.00  0.00    +0.024 HD
ATOM     90  H   UNL     1      -9.393   8.902  15.703  0.00  0.00    +0.024 HD
ENDBRANCH  85  87
BRANCH  85  91
ATOM     91  C   UNL     1      -6.420   8.377  17.405  0.00  0.00    +0.074 C 
ATOM     92  H   UNL     1      -5.838   7.616  16.863  0.00  0.00    +0.061 HD
BRANCH  91  93
ATOM     93  C   UNL     1      -5.851   9.753  16.933  0.00  0.00    +0.003 C 
ATOM     94  H   UNL     1      -6.623  10.250  16.330  0.00  0.00    +0.037 HD
BRANCH  93  95
ATOM     95  C   UNL     1      -4.648   9.547  16.003  0.00  0.00    -0.057 C 
ATOM     96  H   UNL     1      -3.920  10.358  16.118  0.00  0.00    +0.024 HD
ATOM     97  H   UNL     1      -4.132   8.600  16.205  0.00  0.00    +0.024 HD
ATOM     98  H   UNL     1      -4.970   9.539  14.954  0.00  0.00    +0.024 HD
ENDBRANCH  93  95
BRANCH  93  99
ATOM     99  C   UNL     1      -5.425  10.673  18.061  0.00  0.00    -0.065 C 
ATOM    100  C   UNL     1      -4.716  11.792  17.847  0.00  0.00    -0.005 C 
ATOM    101  H   UNL     1      -5.735  10.359  19.052  0.00  0.00    +0.059 HD
ATOM    102  H   UNL     1      -4.443  12.050  16.823  0.00  0.00    +0.078 HD
BRANCH 100 103
ATOM    103  N   UNL     1      -4.280  12.707  18.792  0.00  0.00    -0.284 N 
ATOM    104  C   UNL     1      -3.293  13.662  18.590  0.00  0.00    +0.206 C 
ATOM    105  O   UNL     1      -2.899  14.487  19.407  0.00  0.00    -0.279 OA
ATOM    106  H   UNL     1      -2.852  13.634  17.585  0.00  0.00    +0.126 HD
BRANCH 103 107
ATOM    107  C   UNL     1      -4.900  12.631  20.113  0.00  0.00    +0.007 C 
ATOM    108  H   UNL     1      -5.992  12.707  20.059  0.00  0.00    +0.043 HD
ATOM    109  H   UNL     1      -4.640  11.670  20.571  0.00  0.00    +0.043 HD
ATOM    110  H   UNL     1      -4.526  13.449  20.736  0.00  0.00    +0.043 HD
ENDBRANCH 103 107
ENDBRANCH 100 103
ENDBRANCH  93  99
ENDBRANCH  91  93
BRANCH  91 111
ATOM    111  O   UNL     1      -6.146   8.228  18.810  0.00  0.00    -0.379 OA
BRANCH 111 112
ATOM    112  C   UNL     1      -7.202   7.623  19.542  0.00  0.00    +0.037 C 
ATOM    113  H   UNL     1      -7.086   7.896  20.596  0.00  0.00    +0.052 HD
ATOM    114  H   UNL     1      -7.157   6.533  19.461  0.00  0.00    +0.052 HD
ATOM    115  H   UNL     1      -8.177   7.987  19.204  0.00  0.00    +0.052 HD
ENDBRANCH 111 112
ENDBRANCH  91 111
ENDBRANCH  85  91
ENDBRANCH  83  85
ENDBRANCH  80  83
ENDBRANCH  77  80
ENDBRANCH  71  77
ENDBRANCH  69  71
BRANCH  69 116
ATOM    116  O   UNL     1      -8.584   7.027  10.804  0.00  0.00    -0.379 OA
BRANCH 116 117
ATOM    117  C   UNL     1      -9.039   6.812   9.477  0.00  0.00    +0.037 C 
ATOM    118  H   UNL     1      -8.394   6.100   8.958  0.00  0.00    +0.052 HD
ATOM    119  H   UNL     1     -10.048   6.394   9.526  0.00  0.00    +0.052 HD
ATOM    120  H   UNL     1      -9.080   7.754   8.925  0.00  0.00    +0.052 HD
ENDBRANCH 116 117
ENDBRANCH  69 116
ENDBRANCH  66  69
ENDBRANCH   8  66
BRANCH  31 121
ATOM    121  O   UNL     1      -9.653  -1.449  19.256  0.00  0.00    -0.391 OA
ATOM    122  H   UNL     1      -9.738  -0.654  18.701  0.00  0.00    +0.210 HD
ENDBRANCH  31 121
BRANCH  29 123
ATOM    123  O   UNL     1      -7.496  -4.434  20.205  0.00  0.00    -0.373 OA
BRANCH 123 124
ATOM    124  C   UNL     1      -6.311  -3.713  20.528  0.00  0.00    +0.037 C 
ATOM    125  H   UNL     1      -5.930  -3.250  19.616  0.00  0.00    +0.052 HD
ATOM    126  H   UNL     1      -5.548  -4.397  20.913  0.00  0.00    +0.052 HD
ATOM    127  H   UNL     1      -6.510  -2.925  21.261  0.00  0.00    +0.052 HD
ENDBRANCH 123 124
ENDBRANCH  29 123
BRANCH  10 128
ATOM    128  O   UNL     1      -6.747   4.082   9.556  0.00  0.00    -0.379 OA
BRANCH 128 129
ATOM    129  C   UNL     1      -5.434   4.134   9.017  0.00  0.00    +0.037 C 
ATOM    130  H   UNL     1      -5.134   3.173   8.591  0.00  0.00    +0.052 HD
ATOM    131  H   UNL     1      -4.742   4.369   9.834  0.00  0.00    +0.052 HD
ATOM    132  H   UNL     1      -5.363   4.926   8.263  0.00  0.00    +0.052 HD
ENDBRANCH 128 129
ENDBRANCH  10 128
BRANCH   3 133
ATOM    133  O   UNL     1      -8.101  -0.191  15.890  0.00  0.00    -0.447 OA
BRANCH 133 134
ATOM    134  C   UNL     1      -6.966  -0.879  15.680  0.00  0.00    +0.398 C 
ATOM    135  O   UNL     1      -6.367  -0.994  14.623  0.00  0.00    -0.227 OA
ATOM    136  N   UNL     1      -6.555  -1.419  16.847  0.00  0.00    -0.295 N 
ATOM    137  H   UNL     1      -7.117  -1.277  17.671  0.00  0.00    +0.148 HD
ATOM    138  H   UNL     1      -5.709  -1.964  16.876  0.00  0.00    +0.148 HD
ENDBRANCH 133 134
ENDBRANCH   3 133
TORSDOF 29
ENDMDL
MODEL 4
REMARK VINA RESULT:      -5.8      4.932     13.006
REMARK  Name = Kabiramide C_conf1
REMARK  29 active torsions:
REMARK  status: ('A' for Active; 'I' for Inactive)
REMARK    1  A    between atoms: C_1  and  C_2
REMARK    2  A    between atoms: C_4  and  O_64
REMARK    3  A    between atoms: C_9  and  C_41
REMARK    4  A    between atoms: C_10  and  C_40
REMARK    5  A    between atoms: C_11  and  O_38
REMARK    6  A    between atoms: C_30  and  O_36
REMARK    7  A    between atoms: C_31  and  C_35
REMARK    8  A    between atoms: C_32  and  O_34
REMARK    9  A    between atoms: O_36  and  C_37
REMARK   10  A    between atoms: O_38  and  C_39
REMARK   11  A    between atoms: C_41  and  C_42
REMARK   12  A    between atoms: C_42  and  C_43
REMARK   13  A    between atoms: C_42  and  O_62
REMARK   14  A    between atoms: C_43  and  C_44
REMARK   15  A    between atoms: C_43  and  C_45
REMARK   16  A    between atoms: C_45  and  C_46
REMARK   17  A    between atoms: C_46  and  C_47
REMARK   18  A    between atoms: C_47  and  C_49
REMARK   19  A    between atoms: C_49  and  C_50
REMARK   20  A    between atoms: C_49  and  C_51
REMARK   21  A    between atoms: C_51  and  C_52
REMARK   22  A    between atoms: C_51  and  O_60
REMARK   23  A    between atoms: C_52  and  C_53
REMARK   24  A    between atoms: C_52  and  C_54
REMARK   25  A    between atoms: C_55  and  N_56
REMARK   26  A    between atoms: N_56  and  C_57
REMARK   27  A    between atoms: O_60  and  C_61
REMARK   28  A    between atoms: O_62  and  C_63
REMARK   29  A    between atoms: O_64  and  C_65
REMARK                            x       y       z     vdW  Elec       q    Type
REMARK                         _______ _______ _______ _____ _____    ______ ____
ROOT
ATOM      1  C   UNL     1      -8.590  14.644  18.931  0.00  0.00    -0.038 C 
ATOM      2  C   UNL     1      -9.030  14.599  20.427  0.00  0.00    -0.012 C 
ATOM      3  C   UNL     1      -8.499  13.469  21.352  0.00  0.00    +0.115 C 
ATOM      4  C   UNL     1      -9.330  12.186  21.332  0.00  0.00    +0.082 C 
ATOM      5  C   UNL     1     -10.555  12.246  22.205  0.00  0.00    +0.311 C 
ATOM      6  O   UNL     1     -11.619  12.731  21.843  0.00  0.00    -0.251 OA
ATOM      7  O   UNL     1     -10.332  11.611  23.391  0.00  0.00    -0.461 OA
ATOM      8  C   UNL     1     -11.488  11.215  24.169  0.00  0.00    +0.110 C 
ATOM      9  C   UNL     1     -11.726  12.157  25.389  0.00  0.00    +0.020 C 
ATOM     10  C   UNL     1     -10.750  12.045  26.598  0.00  0.00    +0.068 C 
ATOM     11  C   UNL     1      -9.246  12.163  26.278  0.00  0.00    -0.008 C 
ATOM     12  C   UNL     1      -8.730  13.525  25.926  0.00  0.00    -0.077 C 
ATOM     13  C   UNL     1      -8.874  14.636  26.670  0.00  0.00    -0.003 C 
ATOM     14  C   UNL     1      -8.252  15.853  26.270  0.00  0.00    +0.220 A 
ATOM     15  N   UNL     1      -7.592  16.053  25.141  0.00  0.00    -0.205 NA
ATOM     16  C   UNL     1      -7.091  17.324  25.224  0.00  0.00    +0.164 A 
ATOM     17  C   UNL     1      -7.493  17.902  26.395  0.00  0.00    +0.125 A 
ATOM     18  O   UNL     1      -8.250  16.989  27.072  0.00  0.00    -0.443 OA
ATOM     19  C   UNL     1      -6.196  17.962  24.127  0.00  0.00    +0.250 A 
ATOM     20  N   UNL     1      -5.886  17.313  23.021  0.00  0.00    -0.203 NA
ATOM     21  C   UNL     1      -5.092  18.182  22.324  0.00  0.00    +0.164 A 
ATOM     22  C   UNL     1      -4.933  19.343  23.034  0.00  0.00    +0.125 A 
ATOM     23  O   UNL     1      -5.639  19.220  24.199  0.00  0.00    -0.442 OA
ATOM     24  C   UNL     1      -4.486  17.856  20.928  0.00  0.00    +0.249 A 
ATOM     25  N   UNL     1      -4.705  16.705  20.319  0.00  0.00    -0.210 NA
ATOM     26  C   UNL     1      -4.062  16.814  19.114  0.00  0.00    +0.109 A 
ATOM     27  C   UNL     1      -3.436  18.036  19.049  0.00  0.00    +0.118 A 
ATOM     28  O   UNL     1      -3.700  18.715  20.201  0.00  0.00    -0.442 OA
ATOM     29  C   UNL     1      -4.118  15.705  18.103  0.00  0.00    +0.108 C 
ATOM     30  C   UNL     1      -5.285  15.957  17.088  0.00  0.00    +0.014 C 
ATOM     31  C   UNL     1      -6.521  15.042  17.354  0.00  0.00    +0.061 C 
ATOM     32  C   UNL     1      -7.150  15.221  18.747  0.00  0.00    -0.024 C 
ATOM     33  H   UNL     1      -9.250  15.392  18.459  0.00  0.00    +0.030 HD
ATOM     34  H   UNL     1     -10.127  14.610  20.477  0.00  0.00    +0.030 HD
ATOM     35  H   UNL     1      -8.713  15.553  20.877  0.00  0.00    +0.030 HD
ATOM     36  H   UNL     1      -8.478  13.869  22.376  0.00  0.00    +0.074 HD
ATOM     37  H   UNL     1      -8.726  11.323  21.652  0.00  0.00    +0.041 HD
ATOM     38  H   UNL     1      -9.651  11.908  20.322  0.00  0.00    +0.041 HD
ATOM     39  H   UNL     1     -12.391  11.258  23.546  0.00  0.00    +0.074 HD
ATOM     40  H   UNL     1     -12.708  11.852  25.787  0.00  0.00    +0.036 HD
ATOM     41  H   UNL     1     -11.031  12.827  27.316  0.00  0.00    +0.060 HD
ATOM     42  H   UNL     1      -8.649  11.810  27.127  0.00  0.00    +0.033 HD
ATOM     43  H   UNL     1      -8.972  11.469  25.478  0.00  0.00    +0.033 HD
ATOM     44  H   UNL     1      -8.133  13.566  25.010  0.00  0.00    +0.057 HD
ATOM     45  H   UNL     1      -9.405  14.631  27.612  0.00  0.00    +0.067 HD
ATOM     46  H   UNL     1      -7.347  18.861  26.869  0.00  0.00    +0.105 HD
ATOM     47  H   UNL     1      -4.408  20.275  22.882  0.00  0.00    +0.105 HD
ATOM     48  H   UNL     1      -2.822  18.540  18.319  0.00  0.00    +0.105 HD
ATOM     49  H   UNL     1      -4.296  14.760  18.631  0.00  0.00    +0.067 HD
ATOM     50  H   UNL     1      -5.641  16.996  17.196  0.00  0.00    +0.035 HD
ATOM     51  H   UNL     1      -7.288  15.268  16.601  0.00  0.00    +0.060 HD
ATOM     52  H   UNL     1      -7.210  16.294  18.980  0.00  0.00    +0.029 HD
ATOM     53  H   UNL     1      -6.481  14.782  19.488  0.00  0.00    +0.029 HD
ENDROOT
BRANCH   1  54
ATOM     54  C   UNL     1      -8.871  13.334  18.198  0.00  0.00    -0.062 C 
ATOM     55  H   UNL     1      -9.759  13.399  17.560  0.00  0.00    +0.023 HD
ATOM     56  H   UNL     1      -9.023  12.508  18.904  0.00  0.00    +0.023 HD
ATOM     57  H   UNL     1      -8.014  13.047  17.578  0.00  0.00    +0.023 HD
ENDBRANCH   1  54
BRANCH  30  58
ATOM     58  C   UNL     1      -4.833  15.816  15.625  0.00  0.00    -0.057 C 
ATOM     59  H   UNL     1      -4.778  16.792  15.139  0.00  0.00    +0.023 HD
ATOM     60  H   UNL     1      -5.518  15.186  15.048  0.00  0.00    +0.023 HD
ATOM     61  H   UNL     1      -3.835  15.371  15.574  0.00  0.00    +0.023 HD
ENDBRANCH  30  58
BRANCH   9  62
ATOM     62  C   UNL     1     -11.898  13.614  24.940  0.00  0.00    -0.057 C 
ATOM     63  H   UNL     1     -11.521  14.300  25.711  0.00  0.00    +0.023 HD
ATOM     64  H   UNL     1     -11.325  13.814  24.030  0.00  0.00    +0.023 HD
ATOM     65  H   UNL     1     -12.942  13.875  24.748  0.00  0.00    +0.023 HD
ENDBRANCH   9  62
BRANCH   8  66
ATOM     66  C   UNL     1     -11.291   9.738  24.570  0.00  0.00    +0.011 C 
ATOM     67  H   UNL     1     -11.971   9.510  25.400  0.00  0.00    +0.033 HD
ATOM     68  H   UNL     1     -10.257   9.607  24.915  0.00  0.00    +0.033 HD
BRANCH  66  69
ATOM     69  C   UNL     1     -11.514   8.734  23.423  0.00  0.00    +0.064 C 
ATOM     70  H   UNL     1     -11.691   9.294  22.500  0.00  0.00    +0.060 HD
BRANCH  69  71
ATOM     71  C   UNL     1     -10.265   7.827  23.233  0.00  0.00    -0.017 C 
ATOM     72  H   UNL     1     -10.605   6.849  22.880  0.00  0.00    +0.032 HD
BRANCH  71  73
ATOM     73  C   UNL     1      -9.295   8.365  22.169  0.00  0.00    -0.060 C 
ATOM     74  H   UNL     1      -8.735   7.559  21.693  0.00  0.00    +0.023 HD
ATOM     75  H   UNL     1      -9.814   8.933  21.393  0.00  0.00    +0.023 HD
ATOM     76  H   UNL     1      -8.562   9.032  22.635  0.00  0.00    +0.023 HD
ENDBRANCH  71  73
BRANCH  71  77
ATOM     77  C   UNL     1      -9.477   7.615  24.550  0.00  0.00    -0.041 C 
ATOM     78  H   UNL     1      -9.738   8.407  25.263  0.00  0.00    +0.027 HD
ATOM     79  H   UNL     1      -8.405   7.731  24.337  0.00  0.00    +0.027 HD
BRANCH  77  80
ATOM     80  C   UNL     1      -9.677   6.262  25.234  0.00  0.00    +0.007 C 
ATOM     81  H   UNL     1     -10.711   6.203  25.597  0.00  0.00    +0.034 HD
ATOM     82  H   UNL     1      -9.558   5.418  24.550  0.00  0.00    +0.034 HD
BRANCH  80  83
ATOM     83  C   UNL     1      -8.735   6.063  26.408  0.00  0.00    +0.139 C 
ATOM     84  O   UNL     1      -7.802   6.843  26.599  0.00  0.00    -0.297 OA
BRANCH  83  85
ATOM     85  C   UNL     1      -8.947   4.833  27.281  0.00  0.00    +0.041 C 
ATOM     86  H   UNL     1      -7.950   4.423  27.489  0.00  0.00    +0.040 HD
BRANCH  85  87
ATOM     87  C   UNL     1      -9.666   3.722  26.518  0.00  0.00    -0.053 C 
ATOM     88  H   UNL     1      -9.671   2.768  27.049  0.00  0.00    +0.024 HD
ATOM     89  H   UNL     1     -10.716   3.994  26.367  0.00  0.00    +0.024 HD
ATOM     90  H   UNL     1      -9.223   3.562  25.531  0.00  0.00    +0.024 HD
ENDBRANCH  85  87
BRANCH  85  91
ATOM     91  C   UNL     1      -9.581   5.246  28.634  0.00  0.00    +0.074 C 
ATOM     92  H   UNL     1      -9.850   6.311  28.553  0.00  0.00    +0.061 HD
BRANCH  91  93
ATOM     93  C   UNL     1     -10.900   4.511  29.034  0.00  0.00    +0.003 C 
ATOM     94  H   UNL     1     -11.426   4.234  28.110  0.00  0.00    +0.037 HD
BRANCH  93  95
ATOM     95  C   UNL     1     -11.836   5.462  29.792  0.00  0.00    -0.057 C 
ATOM     96  H   UNL     1     -11.386   5.784  30.737  0.00  0.00    +0.024 HD
ATOM     97  H   UNL     1     -12.070   6.359  29.206  0.00  0.00    +0.024 HD
ATOM     98  H   UNL     1     -12.782   4.959  30.031  0.00  0.00    +0.024 HD
ENDBRANCH  93  95
BRANCH  93  99
ATOM     99  C   UNL     1     -10.691   3.273  29.885  0.00  0.00    -0.065 C 
ATOM    100  C   UNL     1     -11.003   2.043  29.453  0.00  0.00    -0.005 C 
ATOM    101  H   UNL     1     -10.272   3.458  30.869  0.00  0.00    +0.059 HD
ATOM    102  H   UNL     1     -11.416   1.930  28.450  0.00  0.00    +0.078 HD
BRANCH 100 103
ATOM    103  N   UNL     1     -10.851   0.845  30.135  0.00  0.00    -0.284 N 
ATOM    104  C   UNL     1     -11.030  -0.419  29.590  0.00  0.00    +0.206 C 
ATOM    105  O   UNL     1     -10.890  -1.489  30.171  0.00  0.00    -0.279 OA
ATOM    106  H   UNL     1     -11.327  -0.404  28.533  0.00  0.00    +0.126 HD
BRANCH 103 107
ATOM    107  C   UNL     1     -10.498   0.939  31.550  0.00  0.00    +0.007 C 
ATOM    108  H   UNL     1      -9.444   0.697  31.727  0.00  0.00    +0.043 HD
ATOM    109  H   UNL     1     -10.684   1.962  31.894  0.00  0.00    +0.043 HD
ATOM    110  H   UNL     1     -11.115   0.239  32.123  0.00  0.00    +0.043 HD
ENDBRANCH 103 107
ENDBRANCH 100 103
ENDBRANCH  93  99
ENDBRANCH  91  93
BRANCH  91 111
ATOM    111  O   UNL     1      -8.636   5.109  29.711  0.00  0.00    -0.379 OA
BRANCH 111 112
ATOM    112  C   UNL     1      -8.235   6.343  30.287  0.00  0.00    +0.037 C 
ATOM    113  H   UNL     1      -7.525   6.822  29.607  0.00  0.00    +0.052 HD
ATOM    114  H   UNL     1      -7.735   6.179  31.247  0.00  0.00    +0.052 HD
ATOM    115  H   UNL     1      -9.088   7.016  30.416  0.00  0.00    +0.052 HD
ENDBRANCH 111 112
ENDBRANCH  91 111
ENDBRANCH  85  91
ENDBRANCH  83  85
ENDBRANCH  80  83
ENDBRANCH  77  80
ENDBRANCH  71  77
ENDBRANCH  69  71
BRANCH  69 116
ATOM    116  O   UNL     1     -12.638   7.905  23.738  0.00  0.00    -0.379 OA
BRANCH 116 117
ATOM    117  C   UNL     1     -12.755   6.758  22.910  0.00  0.00    +0.037 C 
ATOM    118  H   UNL     1     -13.805   6.535  22.706  0.00  0.00    +0.052 HD
ATOM    119  H   UNL     1     -12.255   6.970  21.961  0.00  0.00    +0.052 HD
ATOM    120  H   UNL     1     -12.270   5.895  23.372  0.00  0.00    +0.052 HD
ENDBRANCH 116 117
ENDBRANCH  69 116
ENDBRANCH  66  69
ENDBRANCH   8  66
BRANCH  31 121
ATOM    121  O   UNL     1      -6.127  13.677  17.199  0.00  0.00    -0.391 OA
ATOM    122  H   UNL     1      -5.401  13.514  17.826  0.00  0.00    +0.210 HD
ENDBRANCH  31 121
BRANCH  29 123
ATOM    123  O   UNL     1      -2.855  15.602  17.413  0.00  0.00    -0.373 OA
BRANCH 123 124
ATOM    124  C   UNL     1      -1.917  14.806  18.133  0.00  0.00    +0.037 C 
ATOM    125  H   UNL     1      -2.459  14.237  18.890  0.00  0.00    +0.052 HD
ATOM    126  H   UNL     1      -1.189  15.449  18.637  0.00  0.00    +0.052 HD
ATOM    127  H   UNL     1      -1.402  14.103  17.472  0.00  0.00    +0.052 HD
ENDBRANCH 123 124
ENDBRANCH  29 123
BRANCH  10 128
ATOM    128  O   UNL     1     -11.022  10.778  27.237  0.00  0.00    -0.379 OA
BRANCH 128 129
ATOM    129  C   UNL     1      -9.939  10.254  27.992  0.00  0.00    +0.037 C 
ATOM    130  H   UNL     1     -10.282   9.561  28.764  0.00  0.00    +0.052 HD
ATOM    131  H   UNL     1      -9.438  11.091  28.493  0.00  0.00    +0.052 HD
ATOM    132  H   UNL     1      -9.215   9.763  27.331  0.00  0.00    +0.052 HD
ENDBRANCH 128 129
ENDBRANCH  10 128
BRANCH   3 133
ATOM    133  O   UNL     1      -7.159  13.144  20.937  0.00  0.00    -0.447 OA
BRANCH 133 134
ATOM    134  C   UNL     1      -6.137  13.605  21.677  0.00  0.00    +0.398 C 
ATOM    135  O   UNL     1      -4.952  13.573  21.387  0.00  0.00    -0.227 OA
ATOM    136  N   UNL     1      -6.625  14.153  22.811  0.00  0.00    -0.295 N 
ATOM    137  H   UNL     1      -7.620  14.131  22.971  0.00  0.00    +0.148 HD
ATOM    138  H   UNL     1      -5.995  14.560  23.482  0.00  0.00    +0.148 HD
ENDBRANCH 133 134
ENDBRANCH   3 133
TORSDOF 29
ENDMDL
MODEL 5
REMARK VINA RESULT:      -5.8      5.584     12.335
REMARK  Name = Kabiramide C_conf1
REMARK  29 active torsions:
REMARK  status: ('A' for Active; 'I' for Inactive)
REMARK    1  A    between atoms: C_1  and  C_2
REMARK    2  A    between atoms: C_4  and  O_64
REMARK    3  A    between atoms: C_9  and  C_41
REMARK    4  A    between atoms: C_10  and  C_40
REMARK    5  A    between atoms: C_11  and  O_38
REMARK    6  A    between atoms: C_30  and  O_36
REMARK    7  A    between atoms: C_31  and  C_35
REMARK    8  A    between atoms: C_32  and  O_34
REMARK    9  A    between atoms: O_36  and  C_37
REMARK   10  A    between atoms: O_38  and  C_39
REMARK   11  A    between atoms: C_41  and  C_42
REMARK   12  A    between atoms: C_42  and  C_43
REMARK   13  A    between atoms: C_42  and  O_62
REMARK   14  A    between atoms: C_43  and  C_44
REMARK   15  A    between atoms: C_43  and  C_45
REMARK   16  A    between atoms: C_45  and  C_46
REMARK   17  A    between atoms: C_46  and  C_47
REMARK   18  A    between atoms: C_47  and  C_49
REMARK   19  A    between atoms: C_49  and  C_50
REMARK   20  A    between atoms: C_49  and  C_51
REMARK   21  A    between atoms: C_51  and  C_52
REMARK   22  A    between atoms: C_51  and  O_60
REMARK   23  A    between atoms: C_52  and  C_53
REMARK   24  A    between atoms: C_52  and  C_54
REMARK   25  A    between atoms: C_55  and  N_56
REMARK   26  A    between atoms: N_56  and  C_57
REMARK   27  A    between atoms: O_60  and  C_61
REMARK   28  A    between atoms: O_62  and  C_63
REMARK   29  A    between atoms: O_64  and  C_65
REMARK                            x       y       z     vdW  Elec       q    Type
REMARK                         _______ _______ _______ _____ _____    ______ ____
ROOT
ATOM      1  C   UNL     1     -12.002   0.917  13.399  0.00  0.00    -0.038 C 
ATOM      2  C   UNL     1     -11.415   1.969  12.407  0.00  0.00    -0.012 C 
ATOM      3  C   UNL     1     -10.855   3.312  12.951  0.00  0.00    +0.115 C 
ATOM      4  C   UNL     1     -11.897   4.419  13.111  0.00  0.00    +0.082 C 
ATOM      5  C   UNL     1     -12.216   5.139  11.828  0.00  0.00    +0.311 C 
ATOM      6  O   UNL     1     -13.032   4.731  11.011  0.00  0.00    -0.251 OA
ATOM      7  O   UNL     1     -11.547   6.324  11.762  0.00  0.00    -0.461 OA
ATOM      8  C   UNL     1     -12.030   7.318  10.825  0.00  0.00    +0.110 C 
ATOM      9  C   UNL     1     -11.132   7.412   9.553  0.00  0.00    +0.020 C 
ATOM     10  C   UNL     1      -9.734   8.084   9.696  0.00  0.00    +0.068 C 
ATOM     11  C   UNL     1      -8.817   7.527  10.803  0.00  0.00    -0.008 C 
ATOM     12  C   UNL     1      -8.200   6.183  10.564  0.00  0.00    -0.077 C 
ATOM     13  C   UNL     1      -7.469   5.832   9.491  0.00  0.00    -0.003 C 
ATOM     14  C   UNL     1      -6.856   4.549   9.428  0.00  0.00    +0.220 A 
ATOM     15  N   UNL     1      -7.008   3.572  10.307  0.00  0.00    -0.205 NA
ATOM     16  C   UNL     1      -6.167   2.572   9.899  0.00  0.00    +0.164 A 
ATOM     17  C   UNL     1      -5.540   2.940   8.743  0.00  0.00    +0.125 A 
ATOM     18  O   UNL     1      -5.976   4.191   8.412  0.00  0.00    -0.443 OA
ATOM     19  C   UNL     1      -5.983   1.241  10.679  0.00  0.00    +0.250 A 
ATOM     20  N   UNL     1      -6.659   0.984  11.781  0.00  0.00    -0.203 NA
ATOM     21  C   UNL     1      -6.224  -0.253  12.171  0.00  0.00    +0.164 A 
ATOM     22  C   UNL     1      -5.280  -0.715  11.292  0.00  0.00    +0.125 A 
ATOM     23  O   UNL     1      -5.113   0.234  10.322  0.00  0.00    -0.442 OA
ATOM     24  C   UNL     1      -6.757  -0.989  13.434  0.00  0.00    +0.249 A 
ATOM     25  N   UNL     1      -7.678  -0.461  14.219  0.00  0.00    -0.210 NA
ATOM     26  C   UNL     1      -7.920  -1.413  15.173  0.00  0.00    +0.109 A 
ATOM     27  C   UNL     1      -7.097  -2.492  14.949  0.00  0.00    +0.118 A 
ATOM     28  O   UNL     1      -6.349  -2.236  13.839  0.00  0.00    -0.442 OA
ATOM     29  C   UNL     1      -8.956  -1.197  16.238  0.00  0.00    +0.108 C 
ATOM     30  C   UNL     1     -10.324  -1.819  15.795  0.00  0.00    +0.014 C 
ATOM     31  C   UNL     1     -11.355  -0.740  15.337  0.00  0.00    +0.061 C 
ATOM     32  C   UNL     1     -10.890   0.110  14.142  0.00  0.00    -0.024 C 
ATOM     33  H   UNL     1     -12.507   0.171  12.762  0.00  0.00    +0.030 HD
ATOM     34  H   UNL     1     -12.164   2.186  11.633  0.00  0.00    +0.030 HD
ATOM     35  H   UNL     1     -10.589   1.472  11.874  0.00  0.00    +0.030 HD
ATOM     36  H   UNL     1     -10.077   3.648  12.250  0.00  0.00    +0.074 HD
ATOM     37  H   UNL     1     -11.564   5.167  13.847  0.00  0.00    +0.041 HD
ATOM     38  H   UNL     1     -12.839   4.053  13.534  0.00  0.00    +0.041 HD
ATOM     39  H   UNL     1     -13.042   7.054  10.488  0.00  0.00    +0.074 HD
ATOM     40  H   UNL     1     -11.694   8.067   8.865  0.00  0.00    +0.036 HD
ATOM     41  H   UNL     1      -9.228   7.990   8.725  0.00  0.00    +0.060 HD
ATOM     42  H   UNL     1      -7.991   8.222  10.996  0.00  0.00    +0.033 HD
ATOM     43  H   UNL     1      -9.347   7.502  11.760  0.00  0.00    +0.033 HD
ATOM     44  H   UNL     1      -8.320   5.471  11.387  0.00  0.00    +0.057 HD
ATOM     45  H   UNL     1      -7.273   6.522   8.681  0.00  0.00    +0.067 HD
ATOM     46  H   UNL     1      -4.819   2.484   8.080  0.00  0.00    +0.105 HD
ATOM     47  H   UNL     1      -4.681  -1.609  11.202  0.00  0.00    +0.105 HD
ATOM     48  H   UNL     1      -6.934  -3.440  15.436  0.00  0.00    +0.105 HD
ATOM     49  H   UNL     1      -9.082  -0.118  16.390  0.00  0.00    +0.067 HD
ATOM     50  H   UNL     1     -10.159  -2.476  14.924  0.00  0.00    +0.035 HD
ATOM     51  H   UNL     1     -12.287  -1.249  15.054  0.00  0.00    +0.060 HD
ATOM     52  H   UNL     1     -10.425  -0.547  13.393  0.00  0.00    +0.029 HD
ATOM     53  H   UNL     1     -10.109   0.790  14.484  0.00  0.00    +0.029 HD
ENDROOT
BRANCH   1  54
ATOM     54  C   UNL     1     -13.097   1.500  14.290  0.00  0.00    -0.062 C 
ATOM     55  H   UNL     1     -13.225   2.578  14.137  0.00  0.00    +0.023 HD
ATOM     56  H   UNL     1     -12.877   1.333  15.352  0.00  0.00    +0.023 HD
ATOM     57  H   UNL     1     -14.055   1.003  14.099  0.00  0.00    +0.023 HD
ENDBRANCH   1  54
BRANCH  30  58
ATOM     58  C   UNL     1     -10.946  -2.711  16.883  0.00  0.00    -0.057 C 
ATOM     59  H   UNL     1     -10.722  -3.764  16.697  0.00  0.00    +0.023 HD
ATOM     60  H   UNL     1     -12.034  -2.596  16.929  0.00  0.00    +0.023 HD
ATOM     61  H   UNL     1     -10.534  -2.459  17.864  0.00  0.00    +0.023 HD
ENDBRANCH  30  58
BRANCH   9  62
ATOM     62  C   UNL     1     -11.034   6.056   8.841  0.00  0.00    -0.057 C 
ATOM     63  H   UNL     1     -11.323   6.155   7.787  0.00  0.00    +0.023 HD
ATOM     64  H   UNL     1     -10.006   5.680   8.854  0.00  0.00    +0.023 HD
ATOM     65  H   UNL     1     -11.677   5.296   9.291  0.00  0.00    +0.023 HD
ENDBRANCH   9  62
BRANCH   8  66
ATOM     66  C   UNL     1     -12.147   8.655  11.588  0.00  0.00    +0.011 C 
ATOM     67  H   UNL     1     -13.097   9.129  11.311  0.00  0.00    +0.033 HD
ATOM     68  H   UNL     1     -11.323   9.307  11.274  0.00  0.00    +0.033 HD
BRANCH  66  69
ATOM     69  C   UNL     1     -12.059   8.521  13.120  0.00  0.00    +0.064 C 
ATOM     70  H   UNL     1     -12.065   7.457  13.377  0.00  0.00    +0.060 HD
BRANCH  69  71
ATOM     71  C   UNL     1     -10.747   9.162  13.654  0.00  0.00    -0.017 C 
ATOM     72  H   UNL     1     -10.220   9.614  12.808  0.00  0.00    +0.032 HD
BRANCH  71  73
ATOM     73  C   UNL     1     -11.004  10.289  14.666  0.00  0.00    -0.060 C 
ATOM     74  H   UNL     1     -10.071  10.682  15.074  0.00  0.00    +0.023 HD
ATOM     75  H   UNL     1     -11.565  11.116  14.222  0.00  0.00    +0.023 HD
ATOM     76  H   UNL     1     -11.586   9.908  15.511  0.00  0.00    +0.023 HD
ENDBRANCH  71  73
BRANCH  71  77
ATOM     77  C   UNL     1      -9.800   8.124  14.310  0.00  0.00    -0.041 C 
ATOM     78  H   UNL     1      -9.451   7.417  13.548  0.00  0.00    +0.027 HD
ATOM     79  H   UNL     1     -10.377   7.536  15.037  0.00  0.00    +0.027 HD
BRANCH  77  80
ATOM     80  C   UNL     1      -8.582   8.700  15.032  0.00  0.00    +0.007 C 
ATOM     81  H   UNL     1      -7.733   8.708  14.336  0.00  0.00    +0.034 HD
ATOM     82  H   UNL     1      -8.720   9.740  15.337  0.00  0.00    +0.034 HD
BRANCH  80  83
ATOM     83  C   UNL     1      -8.200   7.889  16.258  0.00  0.00    +0.139 C 
ATOM     84  O   UNL     1      -8.161   6.660  16.205  0.00  0.00    -0.297 OA
BRANCH  83  85
ATOM     85  C   UNL     1      -7.943   8.647  17.553  0.00  0.00    +0.041 C 
ATOM     86  H   UNL     1      -8.323   8.014  18.365  0.00  0.00    +0.040 HD
BRANCH  85  87
ATOM     87  C   UNL     1      -8.787   9.919  17.634  0.00  0.00    -0.053 C 
ATOM     88  H   UNL     1      -8.776  10.380  18.623  0.00  0.00    +0.024 HD
ATOM     89  H   UNL     1      -8.393  10.671  16.941  0.00  0.00    +0.024 HD
ATOM     90  H   UNL     1      -9.827   9.728  17.355  0.00  0.00    +0.024 HD
ENDBRANCH  85  87
BRANCH  85  91
ATOM     91  C   UNL     1      -6.419   8.831  17.767  0.00  0.00    +0.074 C 
ATOM     92  H   UNL     1      -5.914   8.038  17.193  0.00  0.00    +0.061 HD
BRANCH  91  93
ATOM     93  C   UNL     1      -5.804  10.173  17.256  0.00  0.00    +0.003 C 
ATOM     94  H   UNL     1      -6.609  10.756  16.787  0.00  0.00    +0.037 HD
BRANCH  93  95
ATOM     95  C   UNL     1      -4.770   9.905  16.153  0.00  0.00    -0.057 C 
ATOM     96  H   UNL     1      -3.836  10.442  16.354  0.00  0.00    +0.024 HD
ATOM     97  H   UNL     1      -4.534   8.838  16.065  0.00  0.00    +0.024 HD
ATOM     98  H   UNL     1      -5.146  10.249  15.182  0.00  0.00    +0.024 HD
ENDBRANCH  93  95
BRANCH  93  99
ATOM     99  C   UNL     1      -5.141  11.007  18.334  0.00  0.00    -0.065 C 
ATOM    100  C   UNL     1      -4.741  12.270  18.122  0.00  0.00    -0.005 C 
ATOM    101  H   UNL     1      -5.014  10.507  19.289  0.00  0.00    +0.059 HD
ATOM    102  H   UNL     1      -4.905  12.712  17.139  0.00  0.00    +0.078 HD
BRANCH 100 103
ATOM    103  N   UNL     1      -4.134  13.125  19.028  0.00  0.00    -0.284 N 
ATOM    104  C   UNL     1      -4.340  13.121  20.401  0.00  0.00    +0.206 C 
ATOM    105  O   UNL     1      -3.806  13.860  21.220  0.00  0.00    -0.279 OA
ATOM    106  H   UNL     1      -5.062  12.364  20.735  0.00  0.00    +0.126 HD
BRANCH 103 107
ATOM    107  C   UNL     1      -3.224  14.127  18.475  0.00  0.00    +0.007 C 
ATOM    108  H   UNL     1      -2.178  13.909  18.715  0.00  0.00    +0.043 HD
ATOM    109  H   UNL     1      -3.335  14.141  17.385  0.00  0.00    +0.043 HD
ATOM    110  H   UNL     1      -3.477  15.110  18.884  0.00  0.00    +0.043 HD
ENDBRANCH 103 107
ENDBRANCH 100 103
ENDBRANCH  93  99
ENDBRANCH  91  93
BRANCH  91 111
ATOM    111  O   UNL     1      -6.068   8.667  19.153  0.00  0.00    -0.379 OA
BRANCH 111 112
ATOM    112  C   UNL     1      -6.847   7.694  19.834  0.00  0.00    +0.037 C 
ATOM    113  H   UNL     1      -7.093   6.897  19.125  0.00  0.00    +0.052 HD
ATOM    114  H   UNL     1      -7.781   8.131  20.199  0.00  0.00    +0.052 HD
ATOM    115  H   UNL     1      -6.289   7.250  20.663  0.00  0.00    +0.052 HD
ENDBRANCH 111 112
ENDBRANCH  91 111
ENDBRANCH  85  91
ENDBRANCH  83  85
ENDBRANCH  80  83
ENDBRANCH  77  80
ENDBRANCH  71  77
ENDBRANCH  69  71
BRANCH  69 116
ATOM    116  O   UNL     1     -13.173   9.196  13.714  0.00  0.00    -0.379 OA
BRANCH 116 117
ATOM    117  C   UNL     1     -14.160   9.606  12.779  0.00  0.00    +0.037 C 
ATOM    118  H   UNL     1     -13.716   9.763  11.794  0.00  0.00    +0.052 HD
ATOM    119  H   UNL     1     -14.905   8.810  12.700  0.00  0.00    +0.052 HD
ATOM    120  H   UNL     1     -14.658  10.517  13.118  0.00  0.00    +0.052 HD
ENDBRANCH 116 117
ENDBRANCH  69 116
ENDBRANCH  66  69
ENDBRANCH   8  66
BRANCH  31 121
ATOM    121  O   UNL     1     -11.634   0.128  16.439  0.00  0.00    -0.391 OA
ATOM    122  H   UNL     1     -11.519  -0.394  17.253  0.00  0.00    +0.210 HD
ENDBRANCH  31 121
BRANCH  29 123
ATOM    123  O   UNL     1      -8.513  -1.776  17.483  0.00  0.00    -0.373 OA
BRANCH 123 124
ATOM    124  C   UNL     1      -7.821  -0.831  18.294  0.00  0.00    +0.037 C 
ATOM    125  H   UNL     1      -6.780  -1.148  18.380  0.00  0.00    +0.052 HD
ATOM    126  H   UNL     1      -8.259  -0.805  19.297  0.00  0.00    +0.052 HD
ATOM    127  H   UNL     1      -7.845   0.168  17.851  0.00  0.00    +0.052 HD
ENDBRANCH 123 124
ENDBRANCH  29 123
BRANCH  10 128
ATOM    128  O   UNL     1      -9.968   9.493   9.909  0.00  0.00    -0.379 OA
BRANCH 128 129
ATOM    129  C   UNL     1     -10.075  10.260   8.718  0.00  0.00    +0.037 C 
ATOM    130  H   UNL     1      -9.835  11.311   8.891  0.00  0.00    +0.052 HD
ATOM    131  H   UNL     1     -11.115  10.206   8.373  0.00  0.00    +0.052 HD
ATOM    132  H   UNL     1      -9.429   9.843   7.937  0.00  0.00    +0.052 HD
ENDBRANCH 128 129
ENDBRANCH  10 128
BRANCH   3 133
ATOM    133  O   UNL     1     -10.263   3.061  14.239  0.00  0.00    -0.447 OA
BRANCH 133 134
ATOM    134  C   UNL     1      -8.935   3.214  14.367  0.00  0.00    +0.398 C 
ATOM    135  O   UNL     1      -8.303   3.266  15.410  0.00  0.00    -0.227 OA
ATOM    136  N   UNL     1      -8.377   3.273  13.139  0.00  0.00    -0.295 N 
ATOM    137  H   UNL     1      -8.978   3.227  12.331  0.00  0.00    +0.148 HD
ATOM    138  H   UNL     1      -7.380   3.377  13.046  0.00  0.00    +0.148 HD
ENDBRANCH 133 134
ENDBRANCH   3 133
TORSDOF 29
ENDMDL
MODEL 6
REMARK VINA RESULT:      -5.8      5.555      8.267
REMARK  Name = Kabiramide C_conf1
REMARK  29 active torsions:
REMARK  status: ('A' for Active; 'I' for Inactive)
REMARK    1  A    between atoms: C_1  and  C_2
REMARK    2  A    between atoms: C_4  and  O_64
REMARK    3  A    between atoms: C_9  and  C_41
REMARK    4  A    between atoms: C_10  and  C_40
REMARK    5  A    between atoms: C_11  and  O_38
REMARK    6  A    between atoms: C_30  and  O_36
REMARK    7  A    between atoms: C_31  and  C_35
REMARK    8  A    between atoms: C_32  and  O_34
REMARK    9  A    between atoms: O_36  and  C_37
REMARK   10  A    between atoms: O_38  and  C_39
REMARK   11  A    between atoms: C_41  and  C_42
REMARK   12  A    between atoms: C_42  and  C_43
REMARK   13  A    between atoms: C_42  and  O_62
REMARK   14  A    between atoms: C_43  and  C_44
REMARK   15  A    between atoms: C_43  and  C_45
REMARK   16  A    between atoms: C_45  and  C_46
REMARK   17  A    between atoms: C_46  and  C_47
REMARK   18  A    between atoms: C_47  and  C_49
REMARK   19  A    between atoms: C_49  and  C_50
REMARK   20  A    between atoms: C_49  and  C_51
REMARK   21  A    between atoms: C_51  and  C_52
REMARK   22  A    between atoms: C_51  and  O_60
REMARK   23  A    between atoms: C_52  and  C_53
REMARK   24  A    between atoms: C_52  and  C_54
REMARK   25  A    between atoms: C_55  and  N_56
REMARK   26  A    between atoms: N_56  and  C_57
REMARK   27  A    between atoms: O_60  and  C_61
REMARK   28  A    between atoms: O_62  and  C_63
REMARK   29  A    between atoms: O_64  and  C_65
REMARK                            x       y       z     vdW  Elec       q    Type
REMARK                         _______ _______ _______ _____ _____    ______ ____
ROOT
ATOM      1  C   UNL     1     -13.064  11.179  13.235  0.00  0.00    -0.038 C 
ATOM      2  C   UNL     1     -12.621  11.922  14.533  0.00  0.00    -0.012 C 
ATOM      3  C   UNL     1     -11.135  12.340  14.712  0.00  0.00    +0.115 C 
ATOM      4  C   UNL     1     -10.240  11.264  15.325  0.00  0.00    +0.082 C 
ATOM      5  C   UNL     1     -10.337  11.181  16.826  0.00  0.00    +0.311 C 
ATOM      6  O   UNL     1     -11.203  10.545  17.412  0.00  0.00    -0.251 OA
ATOM      7  O   UNL     1      -9.288  11.826  17.412  0.00  0.00    -0.461 OA
ATOM      8  C   UNL     1      -8.993  11.510  18.795  0.00  0.00    +0.110 C 
ATOM      9  C   UNL     1      -9.468  12.632  19.768  0.00  0.00    +0.020 C 
ATOM     10  C   UNL     1      -8.659  13.963  19.796  0.00  0.00    +0.068 C 
ATOM     11  C   UNL     1      -8.445  14.663  18.439  0.00  0.00    -0.008 C 
ATOM     12  C   UNL     1      -9.632  15.342  17.828  0.00  0.00    -0.077 C 
ATOM     13  C   UNL     1     -10.400  16.271  18.425  0.00  0.00    -0.003 C 
ATOM     14  C   UNL     1     -11.445  16.912  17.701  0.00  0.00    +0.220 A 
ATOM     15  N   UNL     1     -11.833  16.615  16.471  0.00  0.00    -0.205 NA
ATOM     16  C   UNL     1     -12.790  17.539  16.151  0.00  0.00    +0.164 A 
ATOM     17  C   UNL     1     -13.006  18.367  17.215  0.00  0.00    +0.125 A 
ATOM     18  O   UNL     1     -12.172  17.976  18.223  0.00  0.00    -0.443 OA
ATOM     19  C   UNL     1     -13.488  17.598  14.764  0.00  0.00    +0.250 A 
ATOM     20  N   UNL     1     -13.213  16.729  13.811  0.00  0.00    -0.203 NA
ATOM     21  C   UNL     1     -14.005  17.107  12.762  0.00  0.00    +0.164 A 
ATOM     22  C   UNL     1     -14.740  18.211  13.105  0.00  0.00    +0.125 A 
ATOM     23  O   UNL     1     -14.422  18.541  14.393  0.00  0.00    -0.442 OA
ATOM     24  C   UNL     1     -14.034  16.358  11.398  0.00  0.00    +0.249 A 
ATOM     25  N   UNL     1     -13.288  15.294  11.166  0.00  0.00    -0.210 NA
ATOM     26  C   UNL     1     -13.626  14.894   9.900  0.00  0.00    +0.109 A 
ATOM     27  C   UNL     1     -14.557  15.766   9.387  0.00  0.00    +0.118 A 
ATOM     28  O   UNL     1     -14.829  16.707  10.334  0.00  0.00    -0.442 OA
ATOM     29  C   UNL     1     -13.013  13.668   9.285  0.00  0.00    +0.108 C 
ATOM     30  C   UNL     1     -13.933  12.424   9.528  0.00  0.00    +0.014 C 
ATOM     31  C   UNL     1     -13.381  11.477  10.640  0.00  0.00    +0.061 C 
ATOM     32  C   UNL     1     -13.228  12.144  12.018  0.00  0.00    -0.024 C 
ATOM     33  H   UNL     1     -14.087  10.819  13.443  0.00  0.00    +0.030 HD
ATOM     34  H   UNL     1     -12.929  11.330  15.405  0.00  0.00    +0.030 HD
ATOM     35  H   UNL     1     -13.220  12.845  14.587  0.00  0.00    +0.030 HD
ATOM     36  H   UNL     1     -11.123  13.230  15.356  0.00  0.00    +0.074 HD
ATOM     37  H   UNL     1      -9.185  11.435  15.062  0.00  0.00    +0.041 HD
ATOM     38  H   UNL     1     -10.442  10.266  14.920  0.00  0.00    +0.041 HD
ATOM     39  H   UNL     1      -9.512  10.587  19.086  0.00  0.00    +0.074 HD
ATOM     40  H   UNL     1      -9.338  12.198  20.774  0.00  0.00    +0.036 HD
ATOM     41  H   UNL     1      -9.183  14.646  20.478  0.00  0.00    +0.060 HD
ATOM     42  H   UNL     1      -7.658  15.422  18.525  0.00  0.00    +0.033 HD
ATOM     43  H   UNL     1      -8.032  13.960  17.709  0.00  0.00    +0.033 HD
ATOM     44  H   UNL     1      -9.821  15.081  16.782  0.00  0.00    +0.057 HD
ATOM     45  H   UNL     1     -10.215  16.604  19.437  0.00  0.00    +0.067 HD
ATOM     46  H   UNL     1     -13.650  19.211  17.415  0.00  0.00    +0.105 HD
ATOM     47  H   UNL     1     -15.472  18.835  12.613  0.00  0.00    +0.105 HD
ATOM     48  H   UNL     1     -15.087  15.853   8.452  0.00  0.00    +0.105 HD
ATOM     49  H   UNL     1     -12.037  13.494   9.753  0.00  0.00    +0.067 HD
ATOM     50  H   UNL     1     -14.921  12.766   9.878  0.00  0.00    +0.035 HD
ATOM     51  H   UNL     1     -14.069  10.628  10.745  0.00  0.00    +0.060 HD
ATOM     52  H   UNL     1     -14.118  12.757  12.222  0.00  0.00    +0.029 HD
ATOM     53  H   UNL     1     -12.382  12.832  11.978  0.00  0.00    +0.029 HD
ENDROOT
BRANCH   1  54
ATOM     54  C   UNL     1     -12.238   9.921  12.969  0.00  0.00    -0.062 C 
ATOM     55  H   UNL     1     -11.589   9.667  13.814  0.00  0.00    +0.023 HD
ATOM     56  H   UNL     1     -11.605  10.041  12.081  0.00  0.00    +0.023 HD
ATOM     57  H   UNL     1     -12.892   9.067  12.760  0.00  0.00    +0.023 HD
ENDBRANCH   1  54
BRANCH  30  58
ATOM     58  C   UNL     1     -14.195  11.624   8.240  0.00  0.00    -0.057 C 
ATOM     59  H   UNL     1     -13.940  12.215   7.358  0.00  0.00    +0.023 HD
ATOM     60  H   UNL     1     -15.244  11.322   8.157  0.00  0.00    +0.023 HD
ATOM     61  H   UNL     1     -13.576  10.723   8.218  0.00  0.00    +0.023 HD
ENDBRANCH  30  58
BRANCH   9  62
ATOM     62  C   UNL     1     -10.973  12.893  19.623  0.00  0.00    -0.057 C 
ATOM     63  H   UNL     1     -11.517  12.492  20.488  0.00  0.00    +0.023 HD
ATOM     64  H   UNL     1     -11.183  13.966  19.586  0.00  0.00    +0.023 HD
ATOM     65  H   UNL     1     -11.395  12.434  18.725  0.00  0.00    +0.023 HD
ENDBRANCH   9  62
BRANCH   8  66
ATOM     66  C   UNL     1      -7.480  11.221  18.890  0.00  0.00    +0.011 C 
ATOM     67  H   UNL     1      -7.289  10.676  19.822  0.00  0.00    +0.033 HD
ATOM     68  H   UNL     1      -6.946  12.179  18.926  0.00  0.00    +0.033 HD
BRANCH  66  69
ATOM     69  C   UNL     1      -6.908  10.430  17.697  0.00  0.00    +0.064 C 
ATOM     70  H   UNL     1      -7.498  10.668  16.807  0.00  0.00    +0.060 HD
BRANCH  69  71
ATOM     71  C   UNL     1      -5.425  10.819  17.439  0.00  0.00    -0.017 C 
ATOM     72  H   UNL     1      -4.841  10.541  18.322  0.00  0.00    +0.032 HD
BRANCH  71  73
ATOM     73  C   UNL     1      -4.810  10.064  16.249  0.00  0.00    -0.060 C 
ATOM     74  H   UNL     1      -3.747  10.285  16.141  0.00  0.00    +0.023 HD
ATOM     75  H   UNL     1      -4.931   8.982  16.345  0.00  0.00    +0.023 HD
ATOM     76  H   UNL     1      -5.297  10.372  15.319  0.00  0.00    +0.023 HD
ENDBRANCH  71  73
BRANCH  71  77
ATOM     77  C   UNL     1      -5.239  12.339  17.201  0.00  0.00    -0.041 C 
ATOM     78  H   UNL     1      -6.219  12.803  17.031  0.00  0.00    +0.027 HD
ATOM     79  H   UNL     1      -4.665  12.479  16.274  0.00  0.00    +0.027 HD
BRANCH  77  80
ATOM     80  C   UNL     1      -4.527  13.104  18.316  0.00  0.00    +0.007 C 
ATOM     81  H   UNL     1      -5.027  12.884  19.267  0.00  0.00    +0.034 HD
ATOM     82  H   UNL     1      -3.489  12.791  18.451  0.00  0.00    +0.034 HD
BRANCH  80  83
ATOM     83  C   UNL     1      -4.547  14.606  18.091  0.00  0.00    +0.139 C 
ATOM     84  O   UNL     1      -5.058  15.077  17.075  0.00  0.00    -0.297 OA
BRANCH  83  85
ATOM     85  C   UNL     1      -3.854  15.483  19.125  0.00  0.00    +0.041 C 
ATOM     86  H   UNL     1      -4.524  15.530  19.993  0.00  0.00    +0.040 HD
BRANCH  85  87
ATOM     87  C   UNL     1      -3.745  16.931  18.647  0.00  0.00    -0.053 C 
ATOM     88  H   UNL     1      -3.912  17.044  17.575  0.00  0.00    +0.024 HD
ATOM     89  H   UNL     1      -4.507  17.544  19.142  0.00  0.00    +0.024 HD
ATOM     90  H   UNL     1      -2.770  17.360  18.891  0.00  0.00    +0.024 HD
ENDBRANCH  85  87
BRANCH  85  91
ATOM     91  C   UNL     1      -2.530  14.819  19.582  0.00  0.00    +0.074 C 
ATOM     92  H   UNL     1      -2.554  13.776  19.231  0.00  0.00    +0.061 HD
BRANCH  91  93
ATOM     93  C   UNL     1      -1.214  15.426  19.000  0.00  0.00    +0.003 C 
ATOM     94  H   UNL     1      -1.336  16.517  18.953  0.00  0.00    +0.037 HD
BRANCH  93  95
ATOM     95  C   UNL     1      -0.999  14.957  17.554  0.00  0.00    -0.057 C 
ATOM     96  H   UNL     1      -0.145  14.274  17.487  0.00  0.00    +0.024 HD
ATOM     97  H   UNL     1      -1.880  14.437  17.158  0.00  0.00    +0.024 HD
ATOM     98  H   UNL     1      -0.789  15.812  16.900  0.00  0.00    +0.024 HD
ENDBRANCH  93  95
BRANCH  93  99
ATOM     99  C   UNL     1       0.033  15.093  19.796  0.00  0.00    -0.065 C 
ATOM    100  C   UNL     1       0.993  14.285  19.323  0.00  0.00    -0.005 C 
ATOM    101  H   UNL     1       0.091  15.557  20.775  0.00  0.00    +0.059 HD
ATOM    102  H   UNL     1       0.872  13.856  18.327  0.00  0.00    +0.078 HD
BRANCH 100 103
ATOM    103  N   UNL     1       2.172  13.917  19.953  0.00  0.00    -0.284 N 
ATOM    104  C   UNL     1       3.282  13.370  19.324  0.00  0.00    +0.206 C 
ATOM    105  O   UNL     1       4.337  13.048  19.859  0.00  0.00    -0.279 OA
ATOM    106  H   UNL     1       3.151  13.230  18.243  0.00  0.00    +0.126 HD
BRANCH 103 107
ATOM    107  C   UNL     1       2.225  14.102  21.401  0.00  0.00    +0.007 C 
ATOM    108  H   UNL     1       1.249  14.374  21.817  0.00  0.00    +0.043 HD
ATOM    109  H   UNL     1       2.553  13.165  21.866  0.00  0.00    +0.043 HD
ATOM    110  H   UNL     1       2.938  14.899  21.638  0.00  0.00    +0.043 HD
ENDBRANCH 103 107
ENDBRANCH 100 103
ENDBRANCH  93  99
ENDBRANCH  91  93
BRANCH  91 111
ATOM    111  O   UNL     1      -2.429  14.802  21.018  0.00  0.00    -0.379 OA
BRANCH 111 112
ATOM    112  C   UNL     1      -3.670  14.982  21.685  0.00  0.00    +0.037 C 
ATOM    113  H   UNL     1      -4.406  14.318  21.221  0.00  0.00    +0.052 HD
ATOM    114  H   UNL     1      -4.021  16.013  21.581  0.00  0.00    +0.052 HD
ATOM    115  H   UNL     1      -3.592  14.715  22.743  0.00  0.00    +0.052 HD
ENDBRANCH 111 112
ENDBRANCH  91 111
ENDBRANCH  85  91
ENDBRANCH  83  85
ENDBRANCH  80  83
ENDBRANCH  77  80
ENDBRANCH  71  77
ENDBRANCH  69  71
BRANCH  69 116
ATOM    116  O   UNL     1      -6.970   9.031  17.991  0.00  0.00    -0.379 OA
BRANCH 116 117
ATOM    117  C   UNL     1      -6.334   8.672  19.208  0.00  0.00    +0.037 C 
ATOM    118  H   UNL     1      -5.253   8.809  19.135  0.00  0.00    +0.052 HD
ATOM    119  H   UNL     1      -6.713   9.327  19.997  0.00  0.00    +0.052 HD
ATOM    120  H   UNL     1      -6.564   7.638  19.475  0.00  0.00    +0.052 HD
ENDBRANCH 116 117
ENDBRANCH  69 116
ENDBRANCH  66  69
ENDBRANCH   8  66
BRANCH  31 121
ATOM    121  O   UNL     1     -12.107  10.975  10.228  0.00  0.00    -0.391 OA
ATOM    122  H   UNL     1     -12.206  10.016  10.091  0.00  0.00    +0.210 HD
ENDBRANCH  31 121
BRANCH  29 123
ATOM    123  O   UNL     1     -12.803  13.878   7.873  0.00  0.00    -0.373 OA
BRANCH 123 124
ATOM    124  C   UNL     1     -11.448  13.651   7.496  0.00  0.00    +0.037 C 
ATOM    125  H   UNL     1     -11.433  13.296   6.464  0.00  0.00    +0.052 HD
ATOM    126  H   UNL     1     -11.005  12.879   8.134  0.00  0.00    +0.052 HD
ATOM    127  H   UNL     1     -10.857  14.569   7.557  0.00  0.00    +0.052 HD
ENDBRANCH 123 124
ENDBRANCH  29 123
BRANCH  10 128
ATOM    128  O   UNL     1      -7.384  13.663  20.405  0.00  0.00    -0.379 OA
BRANCH 128 129
ATOM    129  C   UNL     1      -7.325  13.914  21.802  0.00  0.00    +0.037 C 
ATOM    130  H   UNL     1      -7.149  14.971  22.016  0.00  0.00    +0.052 HD
ATOM    131  H   UNL     1      -6.482  13.345  22.213  0.00  0.00    +0.052 HD
ATOM    132  H   UNL     1      -8.244  13.572  22.290  0.00  0.00    +0.052 HD
ENDBRANCH 128 129
ENDBRANCH  10 128
BRANCH   3 133
ATOM    133  O   UNL     1     -10.607  12.680  13.416  0.00  0.00    -0.447 OA
BRANCH 133 134
ATOM    134  C   UNL     1     -10.449  13.980  13.117  0.00  0.00    +0.398 C 
ATOM    135  O   UNL     1     -10.079  14.444  12.051  0.00  0.00    -0.227 OA
ATOM    136  N   UNL     1     -10.798  14.725  14.188  0.00  0.00    -0.295 N 
ATOM    137  H   UNL     1     -11.088  14.255  15.031  0.00  0.00    +0.148 HD
ATOM    138  H   UNL     1     -10.750  15.728  14.137  0.00  0.00    +0.148 HD
ENDBRANCH 133 134
ENDBRANCH   3 133
TORSDOF 29
ENDMDL
MODEL 7
REMARK VINA RESULT:      -5.7      4.494      8.016
REMARK  Name = Kabiramide C_conf1
REMARK  29 active torsions:
REMARK  status: ('A' for Active; 'I' for Inactive)
REMARK    1  A    between atoms: C_1  and  C_2
REMARK    2  A    between atoms: C_4  and  O_64
REMARK    3  A    between atoms: C_9  and  C_41
REMARK    4  A    between atoms: C_10  and  C_40
REMARK    5  A    between atoms: C_11  and  O_38
REMARK    6  A    between atoms: C_30  and  O_36
REMARK    7  A    between atoms: C_31  and  C_35
REMARK    8  A    between atoms: C_32  and  O_34
REMARK    9  A    between atoms: O_36  and  C_37
REMARK   10  A    between atoms: O_38  and  C_39
REMARK   11  A    between atoms: C_41  and  C_42
REMARK   12  A    between atoms: C_42  and  C_43
REMARK   13  A    between atoms: C_42  and  O_62
REMARK   14  A    between atoms: C_43  and  C_44
REMARK   15  A    between atoms: C_43  and  C_45
REMARK   16  A    between atoms: C_45  and  C_46
REMARK   17  A    between atoms: C_46  and  C_47
REMARK   18  A    between atoms: C_47  and  C_49
REMARK   19  A    between atoms: C_49  and  C_50
REMARK   20  A    between atoms: C_49  and  C_51
REMARK   21  A    between atoms: C_51  and  C_52
REMARK   22  A    between atoms: C_51  and  O_60
REMARK   23  A    between atoms: C_52  and  C_53
REMARK   24  A    between atoms: C_52  and  C_54
REMARK   25  A    between atoms: C_55  and  N_56
REMARK   26  A    between atoms: N_56  and  C_57
REMARK   27  A    between atoms: O_60  and  C_61
REMARK   28  A    between atoms: O_62  and  C_63
REMARK   29  A    between atoms: O_64  and  C_65
REMARK                            x       y       z     vdW  Elec       q    Type
REMARK                         _______ _______ _______ _____ _____    ______ ____
ROOT
ATOM      1  C   UNL     1      -5.582   9.853  18.130  0.00  0.00    -0.038 C 
ATOM      2  C   UNL     1      -5.650  11.093  19.075  0.00  0.00    -0.012 C 
ATOM      3  C   UNL     1      -6.362  12.388  18.596  0.00  0.00    +0.115 C 
ATOM      4  C   UNL     1      -5.473  13.351  17.811  0.00  0.00    +0.082 C 
ATOM      5  C   UNL     1      -4.606  14.220  18.683  0.00  0.00    +0.311 C 
ATOM      6  O   UNL     1      -3.523  13.862  19.128  0.00  0.00    -0.251 OA
ATOM      7  O   UNL     1      -5.151  15.462  18.819  0.00  0.00    -0.461 OA
ATOM      8  C   UNL     1      -4.283  16.533  19.266  0.00  0.00    +0.110 C 
ATOM      9  C   UNL     1      -4.528  16.902  20.761  0.00  0.00    +0.020 C 
ATOM     10  C   UNL     1      -5.831  17.678  21.116  0.00  0.00    +0.068 C 
ATOM     11  C   UNL     1      -7.154  17.054  20.629  0.00  0.00    -0.008 C 
ATOM     12  C   UNL     1      -7.632  15.827  21.342  0.00  0.00    -0.077 C 
ATOM     13  C   UNL     1      -7.824  15.713  22.669  0.00  0.00    -0.003 C 
ATOM     14  C   UNL     1      -8.375  14.520  23.215  0.00  0.00    +0.220 A 
ATOM     15  N   UNL     1      -8.647  13.412  22.544  0.00  0.00    -0.205 NA
ATOM     16  C   UNL     1      -9.245  12.571  23.443  0.00  0.00    +0.164 A 
ATOM     17  C   UNL     1      -9.290  13.166  24.672  0.00  0.00    +0.125 A 
ATOM     18  O   UNL     1      -8.726  14.404  24.556  0.00  0.00    -0.443 OA
ATOM     19  C   UNL     1      -9.782  11.163  23.067  0.00  0.00    +0.250 A 
ATOM     20  N   UNL     1      -9.666  10.679  21.846  0.00  0.00    -0.203 NA
ATOM     21  C   UNL     1     -10.255   9.446  21.906  0.00  0.00    +0.164 A 
ATOM     22  C   UNL     1     -10.726   9.215  23.172  0.00  0.00    +0.125 A 
ATOM     23  O   UNL     1     -10.429  10.310  23.935  0.00  0.00    -0.442 OA
ATOM     24  C   UNL     1     -10.349   8.482  20.689  0.00  0.00    +0.249 A 
ATOM     25  N   UNL     1      -9.856   8.795  19.505  0.00  0.00    -0.210 NA
ATOM     26  C   UNL     1     -10.079   7.692  18.725  0.00  0.00    +0.109 A 
ATOM     27  C   UNL     1     -10.743   6.744  19.467  0.00  0.00    +0.118 A 
ATOM     28  O   UNL     1     -10.921   7.234  20.726  0.00  0.00    -0.442 OA
ATOM     29  C   UNL     1      -9.612   7.645  17.298  0.00  0.00    +0.108 C 
ATOM     30  C   UNL     1      -8.203   6.965  17.213  0.00  0.00    +0.014 C 
ATOM     31  C   UNL     1      -7.052   7.995  16.984  0.00  0.00    +0.061 C 
ATOM     32  C   UNL     1      -6.926   9.055  18.092  0.00  0.00    -0.024 C 
ATOM     33  H   UNL     1      -4.865   9.164  18.608  0.00  0.00    +0.030 HD
ATOM     34  H   UNL     1      -4.632  11.348  19.400  0.00  0.00    +0.030 HD
ATOM     35  H   UNL     1      -6.168  10.763  19.989  0.00  0.00    +0.030 HD
ATOM     36  H   UNL     1      -6.745  12.898  19.491  0.00  0.00    +0.074 HD
ATOM     37  H   UNL     1      -6.079  14.011  17.170  0.00  0.00    +0.041 HD
ATOM     38  H   UNL     1      -4.821  12.836  17.097  0.00  0.00    +0.041 HD
ATOM     39  H   UNL     1      -3.233  16.224  19.176  0.00  0.00    +0.074 HD
ATOM     40  H   UNL     1      -3.707  17.594  21.013  0.00  0.00    +0.036 HD
ATOM     41  H   UNL     1      -5.860  17.780  22.210  0.00  0.00    +0.060 HD
ATOM     42  H   UNL     1      -7.965  17.789  20.689  0.00  0.00    +0.033 HD
ATOM     43  H   UNL     1      -7.099  16.835  19.558  0.00  0.00    +0.033 HD
ATOM     44  H   UNL     1      -7.902  14.992  20.688  0.00  0.00    +0.057 HD
ATOM     45  H   UNL     1      -7.629  16.532  23.349  0.00  0.00    +0.067 HD
ATOM     46  H   UNL     1      -9.656  12.887  25.649  0.00  0.00    +0.105 HD
ATOM     47  H   UNL     1     -11.244   8.407  23.667  0.00  0.00    +0.105 HD
ATOM     48  H   UNL     1     -11.124   5.754  19.274  0.00  0.00    +0.105 HD
ATOM     49  H   UNL     1      -9.543   8.672  16.919  0.00  0.00    +0.067 HD
ATOM     50  H   UNL     1      -7.983   6.466  18.171  0.00  0.00    +0.035 HD
ATOM     51  H   UNL     1      -6.103   7.446  16.925  0.00  0.00    +0.060 HD
ATOM     52  H   UNL     1      -7.027   8.567  19.072  0.00  0.00    +0.029 HD
ATOM     53  H   UNL     1      -7.762   9.749  18.005  0.00  0.00    +0.029 HD
ENDROOT
BRANCH   1  54
ATOM     54  C   UNL     1      -4.978  10.187  16.767  0.00  0.00    -0.062 C 
ATOM     55  H   UNL     1      -5.601  10.886  16.199  0.00  0.00    +0.023 HD
ATOM     56  H   UNL     1      -4.845   9.283  16.159  0.00  0.00    +0.023 HD
ATOM     57  H   UNL     1      -3.979  10.621  16.885  0.00  0.00    +0.023 HD
ENDBRANCH   1  54
BRANCH  30  58
ATOM     58  C   UNL     1      -8.143   5.865  16.139  0.00  0.00    -0.057 C 
ATOM     59  H   UNL     1      -7.529   6.181  15.293  0.00  0.00    +0.023 HD
ATOM     60  H   UNL     1      -9.140   5.613  15.762  0.00  0.00    +0.023 HD
ATOM     61  H   UNL     1      -7.692   4.957  16.548  0.00  0.00    +0.023 HD
ENDBRANCH  30  58
BRANCH   9  62
ATOM     62  C   UNL     1      -4.333  15.684  21.674  0.00  0.00    -0.057 C 
ATOM     63  H   UNL     1      -4.373  15.985  22.729  0.00  0.00    +0.023 HD
ATOM     64  H   UNL     1      -5.131  14.950  21.523  0.00  0.00    +0.023 HD
ATOM     65  H   UNL     1      -3.376  15.182  21.508  0.00  0.00    +0.023 HD
ENDBRANCH   9  62
BRANCH   8  66
ATOM     66  C   UNL     1      -4.484  17.722  18.304  0.00  0.00    +0.011 C 
ATOM     67  H   UNL     1      -3.557  17.868  17.734  0.00  0.00    +0.033 HD
ATOM     68  H   UNL     1      -4.676  18.623  18.901  0.00  0.00    +0.033 HD
BRANCH  66  69
ATOM     69  C   UNL     1      -5.671  17.562  17.334  0.00  0.00    +0.064 C 
ATOM     70  H   UNL     1      -6.246  16.680  17.632  0.00  0.00    +0.060 HD
BRANCH  69  71
ATOM     71  C   UNL     1      -6.597  18.810  17.386  0.00  0.00    -0.017 C 
ATOM     72  H   UNL     1      -6.374  19.361  18.305  0.00  0.00    +0.032 HD
BRANCH  71  73
ATOM     73  C   UNL     1      -6.354  19.780  16.220  0.00  0.00    -0.060 C 
ATOM     74  H   UNL     1      -6.822  20.750  16.401  0.00  0.00    +0.023 HD
ATOM     75  H   UNL     1      -5.288  19.939  16.036  0.00  0.00    +0.023 HD
ATOM     76  H   UNL     1      -6.795  19.380  15.301  0.00  0.00    +0.023 HD
ENDBRANCH  71  73
BRANCH  71  77
ATOM     77  C   UNL     1      -8.101  18.436  17.404  0.00  0.00    -0.041 C 
ATOM     78  H   UNL     1      -8.223  17.436  17.839  0.00  0.00    +0.027 HD
ATOM     79  H   UNL     1      -8.456  18.367  16.366  0.00  0.00    +0.027 HD
BRANCH  77  80
ATOM     80  C   UNL     1      -9.018  19.405  18.151  0.00  0.00    +0.007 C 
ATOM     81  H   UNL     1      -8.944  19.199  19.226  0.00  0.00    +0.034 HD
ATOM     82  H   UNL     1      -8.721  20.450  18.032  0.00  0.00    +0.034 HD
BRANCH  80  83
ATOM     83  C   UNL     1     -10.470  19.270  17.728  0.00  0.00    +0.139 C 
ATOM     84  O   UNL     1     -10.914  19.945  16.798  0.00  0.00    -0.297 OA
BRANCH  83  85
ATOM     85  C   UNL     1     -11.357  18.335  18.539  0.00  0.00    +0.041 C 
ATOM     86  H   UNL     1     -12.327  18.839  18.642  0.00  0.00    +0.040 HD
BRANCH  85  87
ATOM     87  C   UNL     1     -10.849  18.184  19.972  0.00  0.00    -0.053 C 
ATOM     88  H   UNL     1     -11.092  17.217  20.415  0.00  0.00    +0.024 HD
ATOM     89  H   UNL     1      -9.757  18.263  19.989  0.00  0.00    +0.024 HD
ATOM     90  H   UNL     1     -11.245  18.969  20.622  0.00  0.00    +0.024 HD
ENDBRANCH  85  87
BRANCH  85  91
ATOM     91  C   UNL     1     -11.589  17.015  17.759  0.00  0.00    +0.074 C 
ATOM     92  H   UNL     1     -11.351  17.218  16.703  0.00  0.00    +0.061 HD
BRANCH  91  93
ATOM     93  C   UNL     1     -10.690  15.805  18.165  0.00  0.00    +0.003 C 
ATOM     94  H   UNL     1      -9.923  16.171  18.861  0.00  0.00    +0.037 HD
BRANCH  93  95
ATOM     95  C   UNL     1      -9.936  15.261  16.944  0.00  0.00    -0.057 C 
ATOM     96  H   UNL     1     -10.079  15.912  16.074  0.00  0.00    +0.024 HD
ATOM     97  H   UNL     1      -8.859  15.179  17.131  0.00  0.00    +0.024 HD
ATOM     98  H   UNL     1     -10.309  14.265  16.674  0.00  0.00    +0.024 HD
ENDBRANCH  93  95
BRANCH  93  99
ATOM     99  C   UNL     1     -11.443  14.655  18.807  0.00  0.00    -0.065 C 
ATOM    100  C   UNL     1     -11.436  14.441  20.131  0.00  0.00    -0.005 C 
ATOM    101  H   UNL     1     -11.986  14.019  18.116  0.00  0.00    +0.059 HD
ATOM    102  H   UNL     1     -10.871  15.123  20.768  0.00  0.00    +0.078 HD
BRANCH 100 103
ATOM    103  N   UNL     1     -12.088  13.434  20.826  0.00  0.00    -0.284 N 
ATOM    104  C   UNL     1     -12.480  13.500  22.156  0.00  0.00    +0.206 C 
ATOM    105  O   UNL     1     -13.066  12.627  22.786  0.00  0.00    -0.279 OA
ATOM    106  H   UNL     1     -12.214  14.445  22.647  0.00  0.00    +0.126 HD
BRANCH 103 107
ATOM    107  C   UNL     1     -12.354  12.199  20.092  0.00  0.00    +0.007 C 
ATOM    108  H   UNL     1     -12.195  12.318  19.015  0.00  0.00    +0.043 HD
ATOM    109  H   UNL     1     -11.680  11.417  20.459  0.00  0.00    +0.043 HD
ATOM    110  H   UNL     1     -13.394  11.897  20.258  0.00  0.00    +0.043 HD
ENDBRANCH 103 107
ENDBRANCH 100 103
ENDBRANCH  93  99
ENDBRANCH  91  93
BRANCH  91 111
ATOM    111  O   UNL     1     -12.967  16.607  17.833  0.00  0.00    -0.379 OA
BRANCH 111 112
ATOM    112  C   UNL     1     -13.889  17.616  17.449  0.00  0.00    +0.037 C 
ATOM    113  H   UNL     1     -14.559  17.196  16.693  0.00  0.00    +0.052 HD
ATOM    114  H   UNL     1     -13.368  18.472  17.011  0.00  0.00    +0.052 HD
ATOM    115  H   UNL     1     -14.498  17.939  18.299  0.00  0.00    +0.052 HD
ENDBRANCH 111 112
ENDBRANCH  91 111
ENDBRANCH  85  91
ENDBRANCH  83  85
ENDBRANCH  80  83
ENDBRANCH  77  80
ENDBRANCH  71  77
ENDBRANCH  69  71
BRANCH  69 116
ATOM    116  O   UNL     1      -5.171  17.418  16.001  0.00  0.00    -0.379 OA
BRANCH 116 117
ATOM    117  C   UNL     1      -5.287  16.101  15.484  0.00  0.00    +0.037 C 
ATOM    118  H   UNL     1      -4.377  15.813  14.953  0.00  0.00    +0.052 HD
ATOM    119  H   UNL     1      -5.430  15.416  16.324  0.00  0.00    +0.052 HD
ATOM    120  H   UNL     1      -6.151  16.021  14.820  0.00  0.00    +0.052 HD
ENDBRANCH 116 117
ENDBRANCH  69 116
ENDBRANCH  66  69
ENDBRANCH   8  66
BRANCH  31 121
ATOM    121  O   UNL     1      -7.267   8.658  15.736  0.00  0.00    -0.391 OA
ATOM    122  H   UNL     1      -6.423   9.070  15.479  0.00  0.00    +0.210 HD
ENDBRANCH  31 121
BRANCH  29 123
ATOM    123  O   UNL     1     -10.571   6.932  16.489  0.00  0.00    -0.373 OA
BRANCH 123 124
ATOM    124  C   UNL     1     -11.377   7.816  15.715  0.00  0.00    +0.037 C 
ATOM    125  H   UNL     1     -12.049   7.217  15.097  0.00  0.00    +0.052 HD
ATOM    126  H   UNL     1     -10.746   8.420  15.055  0.00  0.00    +0.052 HD
ATOM    127  H   UNL     1     -11.981   8.467  16.354  0.00  0.00    +0.052 HD
ENDBRANCH 123 124
ENDBRANCH  29 123
BRANCH  10 128
ATOM    128  O   UNL     1      -5.684  19.010  20.578  0.00  0.00    -0.379 OA
BRANCH 128 129
ATOM    129  C   UNL     1      -6.661  19.938  21.026  0.00  0.00    +0.037 C 
ATOM    130  H   UNL     1      -7.647  19.720  20.610  0.00  0.00    +0.052 HD
ATOM    131  H   UNL     1      -6.364  20.936  20.679  0.00  0.00    +0.052 HD
ATOM    132  H   UNL     1      -6.701  19.951  22.121  0.00  0.00    +0.052 HD
ENDBRANCH 128 129
ENDBRANCH  10 128
BRANCH   3 133
ATOM    133  O   UNL     1      -7.465  12.006  17.754  0.00  0.00    -0.447 OA
BRANCH 133 134
ATOM    134  C   UNL     1      -8.705  12.058  18.270  0.00  0.00    +0.398 C 
ATOM    135  O   UNL     1      -9.743  11.749  17.709  0.00  0.00    -0.227 OA
ATOM    136  N   UNL     1      -8.633  12.488  19.548  0.00  0.00    -0.295 N 
ATOM    137  H   UNL     1      -7.730  12.726  19.929  0.00  0.00    +0.148 HD
ATOM    138  H   UNL     1      -9.473  12.578  20.094  0.00  0.00    +0.148 HD
ENDBRANCH 133 134
ENDBRANCH   3 133
TORSDOF 29
ENDMDL
MODEL 8
REMARK VINA RESULT:      -5.7      5.615     10.741
REMARK  Name = Kabiramide C_conf1
REMARK  29 active torsions:
REMARK  status: ('A' for Active; 'I' for Inactive)
REMARK    1  A    between atoms: C_1  and  C_2
REMARK    2  A    between atoms: C_4  and  O_64
REMARK    3  A    between atoms: C_9  and  C_41
REMARK    4  A    between atoms: C_10  and  C_40
REMARK    5  A    between atoms: C_11  and  O_38
REMARK    6  A    between atoms: C_30  and  O_36
REMARK    7  A    between atoms: C_31  and  C_35
REMARK    8  A    between atoms: C_32  and  O_34
REMARK    9  A    between atoms: O_36  and  C_37
REMARK   10  A    between atoms: O_38  and  C_39
REMARK   11  A    between atoms: C_41  and  C_42
REMARK   12  A    between atoms: C_42  and  C_43
REMARK   13  A    between atoms: C_42  and  O_62
REMARK   14  A    between atoms: C_43  and  C_44
REMARK   15  A    between atoms: C_43  and  C_45
REMARK   16  A    between atoms: C_45  and  C_46
REMARK   17  A    between atoms: C_46  and  C_47
REMARK   18  A    between atoms: C_47  and  C_49
REMARK   19  A    between atoms: C_49  and  C_50
REMARK   20  A    between atoms: C_49  and  C_51
REMARK   21  A    between atoms: C_51  and  C_52
REMARK   22  A    between atoms: C_51  and  O_60
REMARK   23  A    between atoms: C_52  and  C_53
REMARK   24  A    between atoms: C_52  and  C_54
REMARK   25  A    between atoms: C_55  and  N_56
REMARK   26  A    between atoms: N_56  and  C_57
REMARK   27  A    between atoms: O_60  and  C_61
REMARK   28  A    between atoms: O_62  and  C_63
REMARK   29  A    between atoms: O_64  and  C_65
REMARK                            x       y       z     vdW  Elec       q    Type
REMARK                         _______ _______ _______ _____ _____    ______ ____
ROOT
ATOM      1  C   UNL     1     -10.843   1.104  15.605  0.00  0.00    -0.038 C 
ATOM      2  C   UNL     1     -11.088   2.625  15.355  0.00  0.00    -0.012 C 
ATOM      3  C   UNL     1     -10.260   3.678  16.141  0.00  0.00    +0.115 C 
ATOM      4  C   UNL     1     -10.845   4.065  17.499  0.00  0.00    +0.082 C 
ATOM      5  C   UNL     1     -11.949   5.085  17.412  0.00  0.00    +0.311 C 
ATOM      6  O   UNL     1     -13.118   4.795  17.189  0.00  0.00    -0.251 OA
ATOM      7  O   UNL     1     -11.479   6.330  17.705  0.00  0.00    -0.461 OA
ATOM      8  C   UNL     1     -12.446   7.346  18.069  0.00  0.00    +0.110 C 
ATOM      9  C   UNL     1     -12.703   8.355  16.907  0.00  0.00    +0.020 C 
ATOM     10  C   UNL     1     -11.587   9.392  16.583  0.00  0.00    +0.068 C 
ATOM     11  C   UNL     1     -10.178   8.825  16.326  0.00  0.00    -0.008 C 
ATOM     12  C   UNL     1      -9.958   8.111  15.027  0.00  0.00    -0.077 C 
ATOM     13  C   UNL     1     -10.209   8.609  13.804  0.00  0.00    -0.003 C 
ATOM     14  C   UNL     1      -9.866   7.864  12.640  0.00  0.00    +0.220 A 
ATOM     15  N   UNL     1      -9.389   6.629  12.621  0.00  0.00    -0.205 NA
ATOM     16  C   UNL     1      -9.117   6.357  11.308  0.00  0.00    +0.164 A 
ATOM     17  C   UNL     1      -9.475   7.423  10.532  0.00  0.00    +0.125 A 
ATOM     18  O   UNL     1      -9.972   8.391  11.357  0.00  0.00    -0.443 OA
ATOM     19  C   UNL     1      -8.485   5.022  10.827  0.00  0.00    +0.250 A 
ATOM     20  N   UNL     1      -8.196   4.048  11.668  0.00  0.00    -0.203 NA
ATOM     21  C   UNL     1      -7.658   3.065  10.885  0.00  0.00    +0.164 A 
ATOM     22  C   UNL     1      -7.626   3.473   9.578  0.00  0.00    +0.125 A 
ATOM     23  O   UNL     1      -8.157   4.732   9.520  0.00  0.00    -0.442 OA
ATOM     24  C   UNL     1      -7.172   1.696  11.443  0.00  0.00    +0.249 A 
ATOM     25  N   UNL     1      -7.252   1.392  12.725  0.00  0.00    -0.210 NA
ATOM     26  C   UNL     1      -6.785   0.107  12.815  0.00  0.00    +0.109 A 
ATOM     27  C   UNL     1      -6.399  -0.318  11.565  0.00  0.00    +0.118 A 
ATOM     28  O   UNL     1      -6.642   0.687  10.677  0.00  0.00    -0.442 OA
ATOM     29  C   UNL     1      -6.761  -0.618  14.129  0.00  0.00    +0.108 C 
ATOM     30  C   UNL     1      -8.065  -1.470  14.301  0.00  0.00    +0.014 C 
ATOM     31  C   UNL     1      -9.078  -0.824  15.296  0.00  0.00    +0.061 C 
ATOM     32  C   UNL     1      -9.560   0.578  14.884  0.00  0.00    -0.024 C 
ATOM     33  H   UNL     1     -11.677   0.590  15.097  0.00  0.00    +0.030 HD
ATOM     34  H   UNL     1     -12.156   2.840  15.493  0.00  0.00    +0.030 HD
ATOM     35  H   UNL     1     -10.897   2.802  14.285  0.00  0.00    +0.030 HD
ATOM     36  H   UNL     1     -10.190   4.575  15.509  0.00  0.00    +0.074 HD
ATOM     37  H   UNL     1     -10.063   4.467  18.162  0.00  0.00    +0.041 HD
ATOM     38  H   UNL     1     -11.227   3.202  18.054  0.00  0.00    +0.041 HD
ATOM     39  H   UNL     1     -13.409   6.876  18.309  0.00  0.00    +0.074 HD
ATOM     40  H   UNL     1     -13.562   8.957  17.249  0.00  0.00    +0.036 HD
ATOM     41  H   UNL     1     -11.917   9.958  15.701  0.00  0.00    +0.060 HD
ATOM     42  H   UNL     1      -9.431   9.626  16.374  0.00  0.00    +0.033 HD
ATOM     43  H   UNL     1      -9.880   8.160  17.143  0.00  0.00    +0.033 HD
ATOM     44  H   UNL     1      -9.489   7.126  15.119  0.00  0.00    +0.057 HD
ATOM     45  H   UNL     1     -10.616   9.601  13.661  0.00  0.00    +0.067 HD
ATOM     46  H   UNL     1      -9.448   7.649   9.477  0.00  0.00    +0.105 HD
ATOM     47  H   UNL     1      -7.298   3.044   8.643  0.00  0.00    +0.105 HD
ATOM     48  H   UNL     1      -5.975  -1.225  11.166  0.00  0.00    +0.105 HD
ATOM     49  H   UNL     1      -6.704   0.123  14.936  0.00  0.00    +0.067 HD
ATOM     50  H   UNL     1      -8.585  -1.535  13.330  0.00  0.00    +0.035 HD
ATOM     51  H   UNL     1      -9.956  -1.479  15.372  0.00  0.00    +0.060 HD
ATOM     52  H   UNL     1      -9.783   0.580  13.807  0.00  0.00    +0.029 HD
ATOM     53  H   UNL     1      -8.741   1.283  15.030  0.00  0.00    +0.029 HD
ENDROOT
BRANCH   1  54
ATOM     54  C   UNL     1     -10.970   0.725  17.079  0.00  0.00    -0.062 C 
ATOM     55  H   UNL     1     -10.000   0.481  17.528  0.00  0.00    +0.023 HD
ATOM     56  H   UNL     1     -11.631  -0.141  17.211  0.00  0.00    +0.023 HD
ATOM     57  H   UNL     1     -11.425   1.542  17.650  0.00  0.00    +0.023 HD
ENDBRANCH   1  54
BRANCH  30  58
ATOM     58  C   UNL     1      -7.770  -2.920  14.720  0.00  0.00    -0.057 C 
ATOM     59  H   UNL     1      -7.986  -3.069  15.781  0.00  0.00    +0.023 HD
ATOM     60  H   UNL     1      -6.723  -3.188  14.545  0.00  0.00    +0.023 HD
ATOM     61  H   UNL     1      -8.400  -3.616  14.159  0.00  0.00    +0.023 HD
ENDBRANCH  30  58
BRANCH   9  62
ATOM     62  C   UNL     1     -13.184   7.634  15.641  0.00  0.00    -0.057 C 
ATOM     63  H   UNL     1     -12.836   8.162  14.744  0.00  0.00    +0.023 HD
ATOM     64  H   UNL     1     -12.777   6.619  15.589  0.00  0.00    +0.023 HD
ATOM     65  H   UNL     1     -14.273   7.565  15.583  0.00  0.00    +0.023 HD
ENDBRANCH   9  62
BRANCH   8  66
ATOM     66  C   UNL     1     -11.943   8.021  19.362  0.00  0.00    +0.011 C 
ATOM     67  H   UNL     1     -12.799   8.167  20.032  0.00  0.00    +0.033 HD
ATOM     68  H   UNL     1     -11.527   9.003  19.102  0.00  0.00    +0.033 HD
BRANCH  66  69
ATOM     69  C   UNL     1     -10.834   7.241  20.095  0.00  0.00    +0.064 C 
ATOM     70  H   UNL     1     -10.722   6.264  19.616  0.00  0.00    +0.060 HD
BRANCH  69  71
ATOM     71  C   UNL     1      -9.480   8.002  20.013  0.00  0.00    -0.017 C 
ATOM     72  H   UNL     1      -9.671   8.991  19.587  0.00  0.00    +0.032 HD
BRANCH  71  73
ATOM     73  C   UNL     1      -8.843   8.233  21.393  0.00  0.00    -0.060 C 
ATOM     74  H   UNL     1      -7.754   8.264  21.330  0.00  0.00    +0.023 HD
ATOM     75  H   UNL     1      -9.191   9.161  21.854  0.00  0.00    +0.023 HD
ATOM     76  H   UNL     1      -9.101   7.409  22.066  0.00  0.00    +0.023 HD
ENDBRANCH  71  73
BRANCH  71  77
ATOM     77  C   UNL     1      -8.445   7.282  19.112  0.00  0.00    -0.041 C 
ATOM     78  H   UNL     1      -8.903   7.055  18.141  0.00  0.00    +0.027 HD
ATOM     79  H   UNL     1      -8.195   6.316  19.571  0.00  0.00    +0.027 HD
BRANCH  77  80
ATOM     80  C   UNL     1      -7.139   8.038  18.867  0.00  0.00    +0.007 C 
ATOM     81  H   UNL     1      -7.248   9.061  19.248  0.00  0.00    +0.034 HD
ATOM     82  H   UNL     1      -6.292   7.612  19.410  0.00  0.00    +0.034 HD
BRANCH  80  83
ATOM     83  C   UNL     1      -6.777   8.104  17.393  0.00  0.00    +0.139 C 
ATOM     84  O   UNL     1      -6.799   7.086  16.700  0.00  0.00    -0.297 OA
BRANCH  83  85
ATOM     85  C   UNL     1      -6.321   9.446  16.838  0.00  0.00    +0.041 C 
ATOM     86  H   UNL     1      -7.020   9.704  16.032  0.00  0.00    +0.040 HD
BRANCH  85  87
ATOM     87  C   UNL     1      -4.963   9.333  16.146  0.00  0.00    -0.053 C 
ATOM     88  H   UNL     1      -5.038   9.271  15.059  0.00  0.00    +0.024 HD
ATOM     89  H   UNL     1      -4.361  10.223  16.360  0.00  0.00    +0.024 HD
ATOM     90  H   UNL     1      -4.403   8.464  16.502  0.00  0.00    +0.024 HD
ENDBRANCH  85  87
BRANCH  85  91
ATOM     91  C   UNL     1      -6.434  10.539  17.932  0.00  0.00    +0.074 C 
ATOM     92  H   UNL     1      -6.497  10.020  18.901  0.00  0.00    +0.061 HD
BRANCH  91  93
ATOM     93  C   UNL     1      -5.226  11.519  18.060  0.00  0.00    +0.003 C 
ATOM     94  H   UNL     1      -4.320  10.982  17.746  0.00  0.00    +0.037 HD
BRANCH  93  95
ATOM     95  C   UNL     1      -5.005  11.911  19.528  0.00  0.00    -0.057 C 
ATOM     96  H   UNL     1      -5.690  11.365  20.186  0.00  0.00    +0.024 HD
ATOM     97  H   UNL     1      -3.980  11.701  19.857  0.00  0.00    +0.024 HD
ATOM     98  H   UNL     1      -5.193  12.982  19.671  0.00  0.00    +0.024 HD
ENDBRANCH  93  95
BRANCH  93  99
ATOM     99  C   UNL     1      -5.364  12.791  17.246  0.00  0.00    -0.065 C 
ATOM    100  C   UNL     1      -4.929  13.979  17.690  0.00  0.00    -0.005 C 
ATOM    101  H   UNL     1      -5.842  12.668  16.280  0.00  0.00    +0.059 HD
ATOM    102  H   UNL     1      -4.453  14.029  18.670  0.00  0.00    +0.078 HD
BRANCH 100 103
ATOM    103  N   UNL     1      -4.994  15.200  17.036  0.00  0.00    -0.284 N 
ATOM    104  C   UNL     1      -5.237  15.373  15.680  0.00  0.00    +0.206 C 
ATOM    105  O   UNL     1      -5.309  16.442  15.084  0.00  0.00    -0.279 OA
ATOM    106  H   UNL     1      -5.366  14.430  15.132  0.00  0.00    +0.126 HD
BRANCH 103 107
ATOM    107  C   UNL     1      -4.762  16.392  17.849  0.00  0.00    +0.007 C 
ATOM    108  H   UNL     1      -4.830  16.177  18.921  0.00  0.00    +0.043 HD
ATOM    109  H   UNL     1      -3.759  16.777  17.634  0.00  0.00    +0.043 HD
ATOM    110  H   UNL     1      -5.510  17.152  17.599  0.00  0.00    +0.043 HD
ENDBRANCH 103 107
ENDBRANCH 100 103
ENDBRANCH  93  99
ENDBRANCH  91  93
BRANCH  91 111
ATOM    111  O   UNL     1      -7.636  11.314  17.765  0.00  0.00    -0.379 OA
BRANCH 111 112
ATOM    112  C   UNL     1      -8.453  11.368  18.925  0.00  0.00    +0.037 C 
ATOM    113  H   UNL     1      -8.990  12.321  18.920  0.00  0.00    +0.052 HD
ATOM    114  H   UNL     1      -7.843  11.321  19.832  0.00  0.00    +0.052 HD
ATOM    115  H   UNL     1      -9.193  10.562  18.926  0.00  0.00    +0.052 HD
ENDBRANCH 111 112
ENDBRANCH  91 111
ENDBRANCH  85  91
ENDBRANCH  83  85
ENDBRANCH  80  83
ENDBRANCH  77  80
ENDBRANCH  71  77
ENDBRANCH  69  71
BRANCH  69 116
ATOM    116  O   UNL     1     -11.195   7.097  21.472  0.00  0.00    -0.379 OA
BRANCH 116 117
ATOM    117  C   UNL     1     -12.520   7.517  21.765  0.00  0.00    +0.037 C 
ATOM    118  H   UNL     1     -12.884   8.207  21.000  0.00  0.00    +0.052 HD
ATOM    119  H   UNL     1     -13.164   6.633  21.769  0.00  0.00    +0.052 HD
ATOM    120  H   UNL     1     -12.568   7.986  22.749  0.00  0.00    +0.052 HD
ENDBRANCH 116 117
ENDBRANCH  69 116
ENDBRANCH  66  69
ENDBRANCH   8  66
BRANCH  31 121
ATOM    121  O   UNL     1      -8.468  -0.739  16.586  0.00  0.00    -0.391 OA
ATOM    122  H   UNL     1      -7.899   0.051  16.585  0.00  0.00    +0.210 HD
ENDBRANCH  31 121
BRANCH  29 123
ATOM    123  O   UNL     1      -5.590  -1.458  14.208  0.00  0.00    -0.373 OA
BRANCH 123 124
ATOM    124  C   UNL     1      -4.432  -0.723  14.595  0.00  0.00    +0.037 C 
ATOM    125  H   UNL     1      -3.676  -1.430  14.940  0.00  0.00    +0.052 HD
ATOM    126  H   UNL     1      -4.675  -0.046  15.420  0.00  0.00    +0.052 HD
ATOM    127  H   UNL     1      -4.020  -0.157  13.755  0.00  0.00    +0.052 HD
ENDBRANCH 123 124
ENDBRANCH  29 123
BRANCH  10 128
ATOM    128  O   UNL     1     -11.552  10.325  17.686  0.00  0.00    -0.379 OA
BRANCH 128 129
ATOM    129  C   UNL     1     -12.156  11.581  17.415  0.00  0.00    +0.037 C 
ATOM    130  H   UNL     1     -11.939  11.924  16.400  0.00  0.00    +0.052 HD
ATOM    131  H   UNL     1     -11.737  12.316  18.113  0.00  0.00    +0.052 HD
ATOM    132  H   UNL     1     -13.239  11.527  17.578  0.00  0.00    +0.052 HD
ENDBRANCH 128 129
ENDBRANCH  10 128
BRANCH   3 133
ATOM    133  O   UNL     1      -8.942   3.140  16.355  0.00  0.00    -0.447 OA
BRANCH 133 134
ATOM    134  C   UNL     1      -7.886   3.869  15.956  0.00  0.00    +0.398 C 
ATOM    135  O   UNL     1      -6.739   3.778  16.362  0.00  0.00    -0.227 OA
ATOM    136  N   UNL     1      -8.282   4.726  14.990  0.00  0.00    -0.295 N 
ATOM    137  H   UNL     1      -9.254   4.736  14.720  0.00  0.00    +0.148 HD
ATOM    138  H   UNL     1      -7.614   5.347  14.566  0.00  0.00    +0.148 HD
ENDBRANCH 133 134
ENDBRANCH   3 133
TORSDOF 29
ENDMDL
MODEL 9
REMARK VINA RESULT:      -5.7      4.163     10.774
REMARK  Name = Kabiramide C_conf1
REMARK  29 active torsions:
REMARK  status: ('A' for Active; 'I' for Inactive)
REMARK    1  A    between atoms: C_1  and  C_2
REMARK    2  A    between atoms: C_4  and  O_64
REMARK    3  A    between atoms: C_9  and  C_41
REMARK    4  A    between atoms: C_10  and  C_40
REMARK    5  A    between atoms: C_11  and  O_38
REMARK    6  A    between atoms: C_30  and  O_36
REMARK    7  A    between atoms: C_31  and  C_35
REMARK    8  A    between atoms: C_32  and  O_34
REMARK    9  A    between atoms: O_36  and  C_37
REMARK   10  A    between atoms: O_38  and  C_39
REMARK   11  A    between atoms: C_41  and  C_42
REMARK   12  A    between atoms: C_42  and  C_43
REMARK   13  A    between atoms: C_42  and  O_62
REMARK   14  A    between atoms: C_43  and  C_44
REMARK   15  A    between atoms: C_43  and  C_45
REMARK   16  A    between atoms: C_45  and  C_46
REMARK   17  A    between atoms: C_46  and  C_47
REMARK   18  A    between atoms: C_47  and  C_49
REMARK   19  A    between atoms: C_49  and  C_50
REMARK   20  A    between atoms: C_49  and  C_51
REMARK   21  A    between atoms: C_51  and  C_52
REMARK   22  A    between atoms: C_51  and  O_60
REMARK   23  A    between atoms: C_52  and  C_53
REMARK   24  A    between atoms: C_52  and  C_54
REMARK   25  A    between atoms: C_55  and  N_56
REMARK   26  A    between atoms: N_56  and  C_57
REMARK   27  A    between atoms: O_60  and  C_61
REMARK   28  A    between atoms: O_62  and  C_63
REMARK   29  A    between atoms: O_64  and  C_65
REMARK                            x       y       z     vdW  Elec       q    Type
REMARK                         _______ _______ _______ _____ _____    ______ ____
ROOT
ATOM      1  C   UNL     1      -8.745  14.933  19.075  0.00  0.00    -0.038 C 
ATOM      2  C   UNL     1      -9.126  14.924  20.588  0.00  0.00    -0.012 C 
ATOM      3  C   UNL     1      -8.562  13.815  21.518  0.00  0.00    +0.115 C 
ATOM      4  C   UNL     1      -9.394  12.534  21.560  0.00  0.00    +0.082 C 
ATOM      5  C   UNL     1     -10.585  12.617  22.479  0.00  0.00    +0.311 C 
ATOM      6  O   UNL     1     -11.661  13.096  22.147  0.00  0.00    -0.251 OA
ATOM      7  O   UNL     1     -10.316  12.011  23.670  0.00  0.00    -0.461 OA
ATOM      8  C   UNL     1     -11.442  11.636  24.502  0.00  0.00    +0.110 C 
ATOM      9  C   UNL     1     -11.631  12.607  25.708  0.00  0.00    +0.020 C 
ATOM     10  C   UNL     1     -10.609  12.521  26.880  0.00  0.00    +0.068 C 
ATOM     11  C   UNL     1      -9.119  12.628  26.499  0.00  0.00    -0.008 C 
ATOM     12  C   UNL     1      -8.615  13.980  26.095  0.00  0.00    -0.077 C 
ATOM     13  C   UNL     1      -8.728  15.109  26.817  0.00  0.00    -0.003 C 
ATOM     14  C   UNL     1      -8.120  16.315  26.364  0.00  0.00    +0.220 A 
ATOM     15  N   UNL     1      -7.504  16.486  25.206  0.00  0.00    -0.205 NA
ATOM     16  C   UNL     1      -6.999  17.758  25.239  0.00  0.00    +0.164 A 
ATOM     17  C   UNL     1      -7.354  18.365  26.410  0.00  0.00    +0.125 A 
ATOM     18  O   UNL     1      -8.085  17.470  27.138  0.00  0.00    -0.443 OA
ATOM     19  C   UNL     1      -6.146  18.367  24.092  0.00  0.00    +0.250 A 
ATOM     20  N   UNL     1      -5.880  17.692  22.992  0.00  0.00    -0.203 NA
ATOM     21  C   UNL     1      -5.113  18.542  22.243  0.00  0.00    +0.164 A 
ATOM     22  C   UNL     1      -4.924  19.719  22.919  0.00  0.00    +0.125 A 
ATOM     23  O   UNL     1      -5.585  19.626  24.113  0.00  0.00    -0.442 OA
ATOM     24  C   UNL     1      -4.562  18.181  20.834  0.00  0.00    +0.249 A 
ATOM     25  N   UNL     1      -4.806  17.017  20.261  0.00  0.00    -0.210 NA
ATOM     26  C   UNL     1      -4.210  17.095  19.030  0.00  0.00    +0.109 A 
ATOM     27  C   UNL     1      -3.586  18.314  18.911  0.00  0.00    +0.118 A 
ATOM     28  O   UNL     1      -3.803  19.020  20.056  0.00  0.00    -0.442 OA
ATOM     29  C   UNL     1      -4.307  15.962  18.049  0.00  0.00    +0.108 C 
ATOM     30  C   UNL     1      -5.512  16.193  17.074  0.00  0.00    +0.014 C 
ATOM     31  C   UNL     1      -6.739  15.288  17.410  0.00  0.00    +0.061 C 
ATOM     32  C   UNL     1      -7.312  15.501  18.821  0.00  0.00    -0.024 C 
ATOM     33  H   UNL     1      -9.422  15.670  18.611  0.00  0.00    +0.030 HD
ATOM     34  H   UNL     1     -10.221  14.939  20.679  0.00  0.00    +0.030 HD
ATOM     35  H   UNL     1      -8.791  15.888  21.001  0.00  0.00    +0.030 HD
ATOM     36  H   UNL     1      -8.500  14.239  22.530  0.00  0.00    +0.074 HD
ATOM     37  H   UNL     1      -8.780  11.677  21.878  0.00  0.00    +0.041 HD
ATOM     38  H   UNL     1      -9.755  12.232  20.571  0.00  0.00    +0.041 HD
ATOM     39  H   UNL     1     -12.368  11.666  23.913  0.00  0.00    +0.074 HD
ATOM     40  H   UNL     1     -12.598  12.314  26.150  0.00  0.00    +0.036 HD
ATOM     41  H   UNL     1     -10.860  13.322  27.589  0.00  0.00    +0.060 HD
ATOM     42  H   UNL     1      -8.490  12.294  27.332  0.00  0.00    +0.033 HD
ATOM     43  H   UNL     1      -8.877  11.915  25.705  0.00  0.00    +0.033 HD
ATOM     44  H   UNL     1      -8.053  13.998  25.156  0.00  0.00    +0.057 HD
ATOM     45  H   UNL     1      -9.222  15.128  27.779  0.00  0.00    +0.067 HD
ATOM     46  H   UNL     1      -7.188  19.335  26.855  0.00  0.00    +0.105 HD
ATOM     47  H   UNL     1      -4.405  20.645  22.725  0.00  0.00    +0.105 HD
ATOM     48  H   UNL     1      -3.000  18.799  18.146  0.00  0.00    +0.105 HD
ATOM     49  H   UNL     1      -4.466  15.030  18.606  0.00  0.00    +0.067 HD
ATOM     50  H   UNL     1      -5.862  17.235  17.171  0.00  0.00    +0.035 HD
ATOM     51  H   UNL     1      -7.533  15.498  16.682  0.00  0.00    +0.060 HD
ATOM     52  H   UNL     1      -7.362  16.580  19.031  0.00  0.00    +0.029 HD
ATOM     53  H   UNL     1      -6.616  15.079  19.546  0.00  0.00    +0.029 HD
ENDROOT
BRANCH   1  54
ATOM     54  C   UNL     1      -9.056  13.606  18.385  0.00  0.00    -0.062 C 
ATOM     55  H   UNL     1      -9.244  13.731  17.312  0.00  0.00    +0.023 HD
ATOM     56  H   UNL     1      -9.937  13.124  18.828  0.00  0.00    +0.023 HD
ATOM     57  H   UNL     1      -8.229  12.899  18.516  0.00  0.00    +0.023 HD
ENDBRANCH   1  54
BRANCH  30  58
ATOM     58  C   UNL     1      -5.117  16.016  15.598  0.00  0.00    -0.057 C 
ATOM     59  H   UNL     1      -4.157  15.503  15.512  0.00  0.00    +0.023 HD
ATOM     60  H   UNL     1      -5.038  16.978  15.081  0.00  0.00    +0.023 HD
ATOM     61  H   UNL     1      -5.859  15.406  15.075  0.00  0.00    +0.023 HD
ENDBRANCH  30  58
BRANCH   9  62
ATOM     62  C   UNL     1     -11.818  14.054  25.231  0.00  0.00    -0.057 C 
ATOM     63  H   UNL     1     -12.341  14.644  25.995  0.00  0.00    +0.023 HD
ATOM     64  H   UNL     1     -10.852  14.539  25.061  0.00  0.00    +0.023 HD
ATOM     65  H   UNL     1     -12.398  14.121  24.307  0.00  0.00    +0.023 HD
ENDBRANCH   9  62
BRANCH   8  66
ATOM     66  C   UNL     1     -11.232  10.168  24.930  0.00  0.00    +0.011 C 
ATOM     67  H   UNL     1     -11.994   9.912  25.676  0.00  0.00    +0.033 HD
ATOM     68  H   UNL     1     -10.241  10.080  25.393  0.00  0.00    +0.033 HD
BRANCH  66  69
ATOM     69  C   UNL     1     -11.278   9.156  23.769  0.00  0.00    +0.064 C 
ATOM     70  H   UNL     1     -11.510   9.696  22.846  0.00  0.00    +0.060 HD
BRANCH  69  71
ATOM     71  C   UNL     1      -9.907   8.441  23.607  0.00  0.00    -0.017 C 
ATOM     72  H   UNL     1      -9.125   9.122  23.955  0.00  0.00    +0.032 HD
BRANCH  71  73
ATOM     73  C   UNL     1      -9.794   7.167  24.460  0.00  0.00    -0.060 C 
ATOM     74  H   UNL     1      -9.212   7.343  25.366  0.00  0.00    +0.023 HD
ATOM     75  H   UNL     1     -10.775   6.780  24.747  0.00  0.00    +0.023 HD
ATOM     76  H   UNL     1      -9.280   6.383  23.895  0.00  0.00    +0.023 HD
ENDBRANCH  71  73
BRANCH  71  77
ATOM     77  C   UNL     1      -9.599   8.070  22.134  0.00  0.00    -0.041 C 
ATOM     78  H   UNL     1     -10.360   7.369  21.768  0.00  0.00    +0.027 HD
ATOM     79  H   UNL     1      -8.641   7.531  22.102  0.00  0.00    +0.027 HD
BRANCH  77  80
ATOM     80  C   UNL     1      -9.511   9.243  21.158  0.00  0.00    +0.007 C 
ATOM     81  H   UNL     1      -9.788  10.162  21.689  0.00  0.00    +0.034 HD
ATOM     82  H   UNL     1      -8.497   9.413  20.786  0.00  0.00    +0.034 HD
BRANCH  80  83
ATOM     83  C   UNL     1     -10.434   9.073  19.964  0.00  0.00    +0.139 C 
ATOM     84  O   UNL     1     -11.625   8.804  20.130  0.00  0.00    -0.297 OA
BRANCH  83  85
ATOM     85  C   UNL     1      -9.818   9.173  18.575  0.00  0.00    +0.041 C 
ATOM     86  H   UNL     1      -8.946   9.833  18.669  0.00  0.00    +0.040 HD
BRANCH  85  87
ATOM     87  C   UNL     1     -10.746   9.900  17.603  0.00  0.00    -0.053 C 
ATOM     88  H   UNL     1     -11.299  10.719  18.066  0.00  0.00    +0.024 HD
ATOM     89  H   UNL     1     -10.159  10.348  16.793  0.00  0.00    +0.024 HD
ATOM     90  H   UNL     1     -11.465   9.215  17.147  0.00  0.00    +0.024 HD
ENDBRANCH  85  87
BRANCH  85  91
ATOM     91  C   UNL     1      -9.314   7.780  18.117  0.00  0.00    +0.074 C 
ATOM     92  H   UNL     1      -9.662   7.635  17.083  0.00  0.00    +0.061 HD
BRANCH  91  93
ATOM     93  C   UNL     1      -7.765   7.586  18.069  0.00  0.00    +0.003 C 
ATOM     94  H   UNL     1      -7.551   6.732  17.413  0.00  0.00    +0.037 HD
BRANCH  93  95
ATOM     95  C   UNL     1      -7.227   7.207  19.456  0.00  0.00    -0.057 C 
ATOM     96  H   UNL     1      -6.411   6.481  19.374  0.00  0.00    +0.024 HD
ATOM     97  H   UNL     1      -6.850   8.081  20.001  0.00  0.00    +0.024 HD
ATOM     98  H   UNL     1      -8.018   6.747  20.061  0.00  0.00    +0.024 HD
ENDBRANCH  93  95
BRANCH  93  99
ATOM     99  C   UNL     1      -6.998   8.800  17.580  0.00  0.00    -0.065 C 
ATOM    100  C   UNL     1      -6.023   9.372  18.300  0.00  0.00    -0.005 C 
ATOM    101  H   UNL     1      -7.298   9.171  16.605  0.00  0.00    +0.059 HD
ATOM    102  H   UNL     1      -5.769   8.944  19.271  0.00  0.00    +0.078 HD
BRANCH 100 103
ATOM    103  N   UNL     1      -5.253  10.473  17.955  0.00  0.00    -0.284 N 
ATOM    104  C   UNL     1      -4.909  11.512  18.807  0.00  0.00    +0.206 C 
ATOM    105  O   UNL     1      -4.222  12.488  18.526  0.00  0.00    -0.279 OA
ATOM    106  H   UNL     1      -5.319  11.405  19.821  0.00  0.00    +0.126 HD
BRANCH 103 107
ATOM    107  C   UNL     1      -4.796  10.542  16.568  0.00  0.00    +0.007 C 
ATOM    108  H   UNL     1      -4.974   9.605  16.030  0.00  0.00    +0.043 HD
ATOM    109  H   UNL     1      -5.336  11.346  16.058  0.00  0.00    +0.043 HD
ATOM    110  H   UNL     1      -3.721  10.753  16.553  0.00  0.00    +0.043 HD
ENDBRANCH 103 107
ENDBRANCH 100 103
ENDBRANCH  93  99
ENDBRANCH  91  93
BRANCH  91 111
ATOM    111  O   UNL     1      -9.880   6.734  18.927  0.00  0.00    -0.379 OA
BRANCH 111 112
ATOM    112  C   UNL     1     -10.596   5.756  18.187  0.00  0.00    +0.037 C 
ATOM    113  H   UNL     1     -10.741   6.135  17.171  0.00  0.00    +0.052 HD
ATOM    114  H   UNL     1     -11.579   5.576  18.631  0.00  0.00    +0.052 HD
ATOM    115  H   UNL     1     -10.034   4.819  18.122  0.00  0.00    +0.052 HD
ENDBRANCH 111 112
ENDBRANCH  91 111
ENDBRANCH  85  91
ENDBRANCH  83  85
ENDBRANCH  80  83
ENDBRANCH  77  80
ENDBRANCH  71  77
ENDBRANCH  69  71
BRANCH  69 116
ATOM    116  O   UNL     1     -12.278   8.170  24.048  0.00  0.00    -0.379 OA
BRANCH 116 117
ATOM    117  C   UNL     1     -13.378   8.199  23.151  0.00  0.00    +0.037 C 
ATOM    118  H   UNL     1     -13.067   8.569  22.171  0.00  0.00    +0.052 HD
ATOM    119  H   UNL     1     -13.748   7.177  23.033  0.00  0.00    +0.052 HD
ATOM    120  H   UNL     1     -14.185   8.817  23.548  0.00  0.00    +0.052 HD
ENDBRANCH 116 117
ENDBRANCH  69 116
ENDBRANCH  66  69
ENDBRANCH   8  66
BRANCH  31 121
ATOM    121  O   UNL     1      -6.353  13.918  17.272  0.00  0.00    -0.391 OA
ATOM    122  H   UNL     1      -6.373  13.523  18.161  0.00  0.00    +0.210 HD
ENDBRANCH  31 121
BRANCH  29 123
ATOM    123  O   UNL     1      -3.072  15.840  17.313  0.00  0.00    -0.373 OA
BRANCH 123 124
ATOM    124  C   UNL     1      -2.069  15.160  18.063  0.00  0.00    +0.037 C 
ATOM    125  H   UNL     1      -2.539  14.325  18.586  0.00  0.00    +0.052 HD
ATOM    126  H   UNL     1      -1.635  15.835  18.807  0.00  0.00    +0.052 HD
ATOM    127  H   UNL     1      -1.284  14.766  17.412  0.00  0.00    +0.052 HD
ENDBRANCH 123 124
ENDBRANCH  29 123
BRANCH  10 128
ATOM    128  O   UNL     1     -10.858  11.271  27.559  0.00  0.00    -0.379 OA
BRANCH 128 129
ATOM    129  C   UNL     1      -9.767  10.793  28.333  0.00  0.00    +0.037 C 
ATOM    130  H   UNL     1      -9.889   9.740  28.596  0.00  0.00    +0.052 HD
ATOM    131  H   UNL     1      -9.734  11.370  29.265  0.00  0.00    +0.052 HD
ATOM    132  H   UNL     1      -8.823  10.947  27.798  0.00  0.00    +0.052 HD
ENDBRANCH 128 129
ENDBRANCH  10 128
BRANCH   3 133
ATOM    133  O   UNL     1      -7.240  13.477  21.059  0.00  0.00    -0.447 OA
BRANCH 133 134
ATOM    134  C   UNL     1      -6.190  13.897  21.785  0.00  0.00    +0.398 C 
ATOM    135  O   UNL     1      -5.011  13.806  21.485  0.00  0.00    -0.227 OA
ATOM    136  N   UNL     1      -6.641  14.478  22.918  0.00  0.00    -0.295 N 
ATOM    137  H   UNL     1      -7.635  14.504  23.086  0.00  0.00    +0.148 HD
ATOM    138  H   UNL     1      -5.987  14.861  23.579  0.00  0.00    +0.148 HD
ENDBRANCH 133 134
ENDBRANCH   3 133
TORSDOF 29
ENDMDL
MODEL 10
REMARK VINA RESULT:      -5.6      4.809      7.609
REMARK  Name = Kabiramide C_conf1
REMARK  29 active torsions:
REMARK  status: ('A' for Active; 'I' for Inactive)
REMARK    1  A    between atoms: C_1  and  C_2
REMARK    2  A    between atoms: C_4  and  O_64
REMARK    3  A    between atoms: C_9  and  C_41
REMARK    4  A    between atoms: C_10  and  C_40
REMARK    5  A    between atoms: C_11  and  O_38
REMARK    6  A    between atoms: C_30  and  O_36
REMARK    7  A    between atoms: C_31  and  C_35
REMARK    8  A    between atoms: C_32  and  O_34
REMARK    9  A    between atoms: O_36  and  C_37
REMARK   10  A    between atoms: O_38  and  C_39
REMARK   11  A    between atoms: C_41  and  C_42
REMARK   12  A    between atoms: C_42  and  C_43
REMARK   13  A    between atoms: C_42  and  O_62
REMARK   14  A    between atoms: C_43  and  C_44
REMARK   15  A    between atoms: C_43  and  C_45
REMARK   16  A    between atoms: C_45  and  C_46
REMARK   17  A    between atoms: C_46  and  C_47
REMARK   18  A    between atoms: C_47  and  C_49
REMARK   19  A    between atoms: C_49  and  C_50
REMARK   20  A    between atoms: C_49  and  C_51
REMARK   21  A    between atoms: C_51  and  C_52
REMARK   22  A    between atoms: C_51  and  O_60
REMARK   23  A    between atoms: C_52  and  C_53
REMARK   24  A    between atoms: C_52  and  C_54
REMARK   25  A    between atoms: C_55  and  N_56
REMARK   26  A    between atoms: N_56  and  C_57
REMARK   27  A    between atoms: O_60  and  C_61
REMARK   28  A    between atoms: O_62  and  C_63
REMARK   29  A    between atoms: O_64  and  C_65
REMARK                            x       y       z     vdW  Elec       q    Type
REMARK                         _______ _______ _______ _____ _____    ______ ____
ROOT
ATOM      1  C   UNL     1      -4.846  12.633  20.015  0.00  0.00    -0.038 C 
ATOM      2  C   UNL     1      -5.675  13.252  21.182  0.00  0.00    -0.012 C 
ATOM      3  C   UNL     1      -6.770  14.309  20.872  0.00  0.00    +0.115 C 
ATOM      4  C   UNL     1      -6.264  15.750  20.804  0.00  0.00    +0.082 C 
ATOM      5  C   UNL     1      -6.103  16.398  22.153  0.00  0.00    +0.311 C 
ATOM      6  O   UNL     1      -5.105  16.266  22.850  0.00  0.00    -0.251 OA
ATOM      7  O   UNL     1      -7.167  17.204  22.430  0.00  0.00    -0.461 OA
ATOM      8  C   UNL     1      -7.002  18.203  23.466  0.00  0.00    +0.110 C 
ATOM      9  C   UNL     1      -7.713  17.797  24.794  0.00  0.00    +0.020 C 
ATOM     10  C   UNL     1      -9.269  17.866  24.838  0.00  0.00    +0.068 C 
ATOM     11  C   UNL     1     -10.019  17.109  23.724  0.00  0.00    -0.008 C 
ATOM     12  C   UNL     1     -10.035  15.614  23.808  0.00  0.00    -0.077 C 
ATOM     13  C   UNL     1     -10.445  14.890  24.865  0.00  0.00    -0.003 C 
ATOM     14  C   UNL     1     -10.501  13.469  24.784  0.00  0.00    +0.220 A 
ATOM     15  N   UNL     1     -10.085  12.732  23.767  0.00  0.00    -0.205 NA
ATOM     16  C   UNL     1     -10.420  11.444  24.082  0.00  0.00    +0.164 A 
ATOM     17  C   UNL     1     -11.002  11.406  25.317  0.00  0.00    +0.125 A 
ATOM     18  O   UNL     1     -11.050  12.685  25.793  0.00  0.00    -0.443 OA
ATOM     19  C   UNL     1     -10.163  10.240  23.134  0.00  0.00    +0.250 A 
ATOM     20  N   UNL     1      -9.572  10.391  21.965  0.00  0.00    -0.203 NA
ATOM     21  C   UNL     1      -9.536   9.132  21.432  0.00  0.00    +0.164 A 
ATOM     22  C   UNL     1     -10.119   8.242  22.295  0.00  0.00    +0.125 A 
ATOM     23  O   UNL     1     -10.527   8.937  23.399  0.00  0.00    -0.442 OA
ATOM     24  C   UNL     1      -8.909   8.807  20.045  0.00  0.00    +0.249 A 
ATOM     25  N   UNL     1      -8.362   9.739  19.287  0.00  0.00    -0.210 NA
ATOM     26  C   UNL     1      -7.881   9.068  18.193  0.00  0.00    +0.109 A 
ATOM     27  C   UNL     1      -8.190   7.734  18.313  0.00  0.00    +0.118 A 
ATOM     28  O   UNL     1      -8.846   7.551  19.494  0.00  0.00    -0.442 OA
ATOM     29  C   UNL     1      -7.139   9.790  17.105  0.00  0.00    +0.108 C 
ATOM     30  C   UNL     1      -5.596   9.723  17.366  0.00  0.00    +0.014 C 
ATOM     31  C   UNL     1      -5.018  11.069  17.905  0.00  0.00    +0.061 C 
ATOM     32  C   UNL     1      -5.635  11.532  19.237  0.00  0.00    -0.024 C 
ATOM     33  H   UNL     1      -4.021  12.088  20.504  0.00  0.00    +0.030 HD
ATOM     34  H   UNL     1      -4.985  13.667  21.929  0.00  0.00    +0.030 HD
ATOM     35  H   UNL     1      -6.177  12.413  21.690  0.00  0.00    +0.030 HD
ATOM     36  H   UNL     1      -7.531  14.231  21.661  0.00  0.00    +0.074 HD
ATOM     37  H   UNL     1      -6.944  16.376  20.205  0.00  0.00    +0.041 HD
ATOM     38  H   UNL     1      -5.309  15.837  20.274  0.00  0.00    +0.041 HD
ATOM     39  H   UNL     1      -5.935  18.331  23.696  0.00  0.00    +0.074 HD
ATOM     40  H   UNL     1      -7.373  18.545  25.530  0.00  0.00    +0.036 HD
ATOM     41  H   UNL     1      -9.583  17.477  25.816  0.00  0.00    +0.060 HD
ATOM     42  H   UNL     1     -11.066  17.433  23.685  0.00  0.00    +0.033 HD
ATOM     43  H   UNL     1      -9.635  17.399  22.741  0.00  0.00    +0.033 HD
ATOM     44  H   UNL     1      -9.744  15.100  22.886  0.00  0.00    +0.057 HD
ATOM     45  H   UNL     1     -10.798  15.354  25.776  0.00  0.00    +0.067 HD
ATOM     46  H   UNL     1     -11.409  10.634  25.953  0.00  0.00    +0.105 HD
ATOM     47  H   UNL     1     -10.310   7.179  22.295  0.00  0.00    +0.105 HD
ATOM     48  H   UNL     1      -8.028   6.856  17.708  0.00  0.00    +0.105 HD
ATOM     49  H   UNL     1      -7.460  10.840  17.101  0.00  0.00    +0.067 HD
ATOM     50  H   UNL     1      -5.393   8.967  18.144  0.00  0.00    +0.035 HD
ATOM     51  H   UNL     1      -3.937  10.947  18.053  0.00  0.00    +0.060 HD
ATOM     52  H   UNL     1      -5.720  10.670  19.913  0.00  0.00    +0.029 HD
ATOM     53  H   UNL     1      -6.653  11.875  19.046  0.00  0.00    +0.029 HD
ENDROOT
BRANCH   1  54
ATOM     54  C   UNL     1      -4.172  13.694  19.147  0.00  0.00    -0.062 C 
ATOM     55  H   UNL     1      -4.360  14.709  19.515  0.00  0.00    +0.023 HD
ATOM     56  H   UNL     1      -4.523  13.641  18.108  0.00  0.00    +0.023 HD
ATOM     57  H   UNL     1      -3.089  13.531  19.108  0.00  0.00    +0.023 HD
ENDBRANCH   1  54
BRANCH  30  58
ATOM     58  C   UNL     1      -4.808   9.273  16.124  0.00  0.00    -0.057 C 
ATOM     59  H   UNL     1      -4.249  10.108  15.696  0.00  0.00    +0.023 HD
ATOM     60  H   UNL     1      -5.468   8.872  15.349  0.00  0.00    +0.023 HD
ATOM     61  H   UNL     1      -4.083   8.499  16.391  0.00  0.00    +0.023 HD
ENDBRANCH  30  58
BRANCH   9  62
ATOM     62  C   UNL     1      -7.196  16.447  25.310  0.00  0.00    -0.057 C 
ATOM     63  H   UNL     1      -6.578  15.956  24.547  0.00  0.00    +0.023 HD
ATOM     64  H   UNL     1      -6.563  16.582  26.192  0.00  0.00    +0.023 HD
ATOM     65  H   UNL     1      -8.003  15.760  25.574  0.00  0.00    +0.023 HD
ENDBRANCH   9  62
BRANCH   8  66
ATOM     66  C   UNL     1      -7.500  19.548  22.895  0.00  0.00    +0.011 C 
ATOM     67  H   UNL     1      -7.937  20.132  23.715  0.00  0.00    +0.033 HD
ATOM     68  H   UNL     1      -8.282  19.341  22.154  0.00  0.00    +0.033 HD
BRANCH  66  69
ATOM     69  C   UNL     1      -6.413  20.378  22.186  0.00  0.00    +0.064 C 
ATOM     70  H   UNL     1      -5.443  20.130  22.626  0.00  0.00    +0.060 HD
BRANCH  69  71
ATOM     71  C   UNL     1      -6.376  20.052  20.665  0.00  0.00    -0.017 C 
ATOM     72  H   UNL     1      -7.176  19.336  20.451  0.00  0.00    +0.032 HD
BRANCH  71  73
ATOM     73  C   UNL     1      -6.641  21.284  19.786  0.00  0.00    -0.060 C 
ATOM     74  H   UNL     1      -6.861  22.166  20.388  0.00  0.00    +0.023 HD
ATOM     75  H   UNL     1      -5.792  21.511  19.135  0.00  0.00    +0.023 HD
ATOM     76  H   UNL     1      -7.512  21.107  19.146  0.00  0.00    +0.023 HD
ENDBRANCH  71  73
BRANCH  71  77
ATOM     77  C   UNL     1      -5.033  19.417  20.224  0.00  0.00    -0.041 C 
ATOM     78  H   UNL     1      -4.993  18.375  20.566  0.00  0.00    +0.027 HD
ATOM     79  H   UNL     1      -4.214  19.941  20.736  0.00  0.00    +0.027 HD
BRANCH  77  80
ATOM     80  C   UNL     1      -4.745  19.447  18.723  0.00  0.00    +0.007 C 
ATOM     81  H   UNL     1      -5.495  20.082  18.235  0.00  0.00    +0.034 HD
ATOM     82  H   UNL     1      -3.779  19.897  18.484  0.00  0.00    +0.034 HD
BRANCH  80  83
ATOM     83  C   UNL     1      -4.796  18.064  18.097  0.00  0.00    +0.139 C 
ATOM     84  O   UNL     1      -4.031  17.178  18.480  0.00  0.00    -0.297 OA
BRANCH  83  85
ATOM     85  C   UNL     1      -5.765  17.847  16.943  0.00  0.00    +0.041 C 
ATOM     86  H   UNL     1      -5.168  17.477  16.100  0.00  0.00    +0.040 HD
BRANCH  85  87
ATOM     87  C   UNL     1      -6.350  19.169  16.447  0.00  0.00    -0.053 C 
ATOM     88  H   UNL     1      -5.612  19.811  15.962  0.00  0.00    +0.024 HD
ATOM     89  H   UNL     1      -7.126  18.975  15.699  0.00  0.00    +0.024 HD
ATOM     90  H   UNL     1      -6.813  19.733  17.262  0.00  0.00    +0.024 HD
ENDBRANCH  85  87
BRANCH  85  91
ATOM     91  C   UNL     1      -6.794  16.749  17.315  0.00  0.00    +0.074 C 
ATOM     92  H   UNL     1      -6.507  16.358  18.304  0.00  0.00    +0.061 HD
BRANCH  91  93
ATOM     93  C   UNL     1      -8.278  17.212  17.464  0.00  0.00    +0.003 C 
ATOM     94  H   UNL     1      -8.426  18.087  16.817  0.00  0.00    +0.037 HD
BRANCH  93  95
ATOM     95  C   UNL     1      -8.551  17.688  18.897  0.00  0.00    -0.057 C 
ATOM     96  H   UNL     1      -8.786  18.758  18.916  0.00  0.00    +0.024 HD
ATOM     97  H   UNL     1      -9.391  17.150  19.354  0.00  0.00    +0.024 HD
ATOM     98  H   UNL     1      -7.667  17.533  19.529  0.00  0.00    +0.024 HD
ENDBRANCH  93  95
BRANCH  93  99
ATOM     99  C   UNL     1      -9.302  16.149  17.115  0.00  0.00    -0.065 C 
ATOM    100  C   UNL     1     -10.477  16.046  17.754  0.00  0.00    -0.005 C 
ATOM    101  H   UNL     1      -9.014  15.479  16.312  0.00  0.00    +0.059 HD
ATOM    102  H   UNL     1     -10.704  16.757  18.549  0.00  0.00    +0.078 HD
BRANCH 100 103
ATOM    103  N   UNL     1     -11.487  15.126  17.518  0.00  0.00    -0.284 N 
ATOM    104  C   UNL     1     -11.828  14.606  16.277  0.00  0.00    +0.206 C 
ATOM    105  O   UNL     1     -12.709  13.785  16.048  0.00  0.00    -0.279 OA
ATOM    106  H   UNL     1     -11.221  15.003  15.452  0.00  0.00    +0.126 HD
BRANCH 103 107
ATOM    107  C   UNL     1     -12.265  14.697  18.679  0.00  0.00    +0.007 C 
ATOM    108  H   UNL     1     -12.592  13.655  18.592  0.00  0.00    +0.043 HD
ATOM    109  H   UNL     1     -11.644  14.794  19.576  0.00  0.00    +0.043 HD
ATOM    110  H   UNL     1     -13.152  15.332  18.774  0.00  0.00    +0.043 HD
ENDBRANCH 103 107
ENDBRANCH 100 103
ENDBRANCH  93  99
ENDBRANCH  91  93
BRANCH  91 111
ATOM    111  O   UNL     1      -6.748  15.658  16.377  0.00  0.00    -0.379 OA
BRANCH 111 112
ATOM    112  C   UNL     1      -5.505  15.531  15.702  0.00  0.00    +0.037 C 
ATOM    113  H   UNL     1      -5.625  15.926  14.689  0.00  0.00    +0.052 HD
ATOM    114  H   UNL     1      -5.209  14.480  15.629  0.00  0.00    +0.052 HD
ATOM    115  H   UNL     1      -4.722  16.110  16.201  0.00  0.00    +0.052 HD
ENDBRANCH 111 112
ENDBRANCH  91 111
ENDBRANCH  85  91
ENDBRANCH  83  85
ENDBRANCH  80  83
ENDBRANCH  77  80
ENDBRANCH  71  77
ENDBRANCH  69  71
BRANCH  69 116
ATOM    116  O   UNL     1      -6.707  21.770  22.348  0.00  0.00    -0.379 OA
BRANCH 116 117
ATOM    117  C   UNL     1      -7.675  22.038  23.351  0.00  0.00    +0.037 C 
ATOM    118  H   UNL     1      -7.238  22.625  24.162  0.00  0.00    +0.052 HD
ATOM    119  H   UNL     1      -8.481  22.622  22.898  0.00  0.00    +0.052 HD
ATOM    120  H   UNL     1      -8.096  21.110  23.741  0.00  0.00    +0.052 HD
ENDBRANCH 116 117
ENDBRANCH  69 116
ENDBRANCH  66  69
ENDBRANCH   8  66
BRANCH  31 121
ATOM    121  O   UNL     1      -5.226  12.087  16.923  0.00  0.00    -0.391 OA
ATOM    122  H   UNL     1      -5.388  12.919  17.401  0.00  0.00    +0.210 HD
ENDBRANCH  31 121
BRANCH  29 123
ATOM    123  O   UNL     1      -7.465   9.217  15.822  0.00  0.00    -0.373 OA
BRANCH 123 124
ATOM    124  C   UNL     1      -8.804   9.508  15.431  0.00  0.00    +0.037 C 
ATOM    125  H   UNL     1      -9.433   8.656  15.698  0.00  0.00    +0.052 HD
ATOM    126  H   UNL     1      -8.857   9.651  14.347  0.00  0.00    +0.052 HD
ATOM    127  H   UNL     1      -9.185  10.395  15.944  0.00  0.00    +0.052 HD
ENDBRANCH 123 124
ENDBRANCH  29 123
BRANCH  10 128
ATOM    128  O   UNL     1      -9.625  19.265  24.813  0.00  0.00    -0.379 OA
BRANCH 128 129
ATOM    129  C   UNL     1      -9.481  19.932  26.058  0.00  0.00    +0.037 C 
ATOM    130  H   UNL     1     -10.450  20.198  26.489  0.00  0.00    +0.052 HD
ATOM    131  H   UNL     1      -8.927  20.862  25.882  0.00  0.00    +0.052 HD
ATOM    132  H   UNL     1      -8.907  19.314  26.758  0.00  0.00    +0.052 HD
ENDBRANCH 128 129
ENDBRANCH  10 128
BRANCH   3 133
ATOM    133  O   UNL     1      -7.363  13.980  19.601  0.00  0.00    -0.447 OA
BRANCH 133 134
ATOM    134  C   UNL     1      -8.580  13.412  19.598  0.00  0.00    +0.398 C 
ATOM    135  O   UNL     1      -9.154  12.920  18.640  0.00  0.00    -0.227 OA
ATOM    136  N   UNL     1      -9.083  13.437  20.851  0.00  0.00    -0.295 N 
ATOM    137  H   UNL     1      -8.539  13.869  21.582  0.00  0.00    +0.148 HD
ATOM    138  H   UNL     1      -9.989  13.041  21.035  0.00  0.00    +0.148 HD
ENDBRANCH 133 134
ENDBRANCH   3 133
TORSDOF 29
ENDMDL
