MODEL 1
REMARK VINA RESULT:      -5.7      0.000      0.000
REMARK  Name = Kabiramide C_conf3
REMARK  29 active torsions:
REMARK  status: ('A' for Active; 'I' for Inactive)
REMARK    1  A    between atoms: C_1  and  C_2
REMARK    2  A    between atoms: C_4  and  O_64
REMARK    3  A    between atoms: C_9  and  C_41
REMARK    4  A    between atoms: C_10  and  C_40
REMARK    5  A    between atoms: C_11  and  O_38
REMARK    6  A    between atoms: C_30  and  O_36
REMARK    7  A    between atoms: C_31  and  C_35
REMARK    8  A    between atoms: C_32  and  O_34
REMARK    9  A    between atoms: O_36  and  C_37
REMARK   10  A    between atoms: O_38  and  C_39
REMARK   11  A    between atoms: C_41  and  C_42
REMARK   12  A    between atoms: C_42  and  C_43
REMARK   13  A    between atoms: C_42  and  O_62
REMARK   14  A    between atoms: C_43  and  C_44
REMARK   15  A    between atoms: C_43  and  C_45
REMARK   16  A    between atoms: C_45  and  C_46
REMARK   17  A    between atoms: C_46  and  C_47
REMARK   18  A    between atoms: C_47  and  C_49
REMARK   19  A    between atoms: C_49  and  C_50
REMARK   20  A    between atoms: C_49  and  C_51
REMARK   21  A    between atoms: C_51  and  C_52
REMARK   22  A    between atoms: C_51  and  O_60
REMARK   23  A    between atoms: C_52  and  C_53
REMARK   24  A    between atoms: C_52  and  C_54
REMARK   25  A    between atoms: C_55  and  N_56
REMARK   26  A    between atoms: N_56  and  C_57
REMARK   27  A    between atoms: O_60  and  C_61
REMARK   28  A    between atoms: O_62  and  C_63
REMARK   29  A    between atoms: O_64  and  C_65
REMARK                            x       y       z     vdW  Elec       q    Type
REMARK                         _______ _______ _______ _____ _____    ______ ____
ROOT
ATOM      1  C   UNL     1     -10.216  13.890  19.223  0.00  0.00    -0.038 C 
ATOM      2  C   UNL     1      -9.681  13.235  17.919  0.00  0.00    -0.012 C 
ATOM      3  C   UNL     1     -10.708  12.492  17.038  0.00  0.00    +0.115 C 
ATOM      4  C   UNL     1     -10.054  11.775  15.842  0.00  0.00    +0.082 C 
ATOM      5  C   UNL     1      -9.383  10.446  16.109  0.00  0.00    +0.311 C 
ATOM      6  O   UNL     1      -9.316   9.550  15.273  0.00  0.00    -0.251 OA
ATOM      7  O   UNL     1      -8.854  10.380  17.349  0.00  0.00    -0.461 OA
ATOM      8  C   UNL     1      -8.087   9.219  17.754  0.00  0.00    +0.110 C 
ATOM      9  C   UNL     1      -8.976   8.468  18.807  0.00  0.00    +0.020 C 
ATOM     10  C   UNL     1     -10.108   7.673  18.088  0.00  0.00    +0.068 C 
ATOM     11  C   UNL     1     -11.396   7.362  18.912  0.00  0.00    -0.008 C 
ATOM     12  C   UNL     1     -11.436   7.799  20.343  0.00  0.00    -0.077 C 
ATOM     13  C   UNL     1     -11.721   7.006  21.390  0.00  0.00    -0.003 C 
ATOM     14  C   UNL     1     -11.650   7.542  22.706  0.00  0.00    +0.220 A 
ATOM     15  N   UNL     1     -11.083   8.691  23.028  0.00  0.00    -0.205 NA
ATOM     16  C   UNL     1     -11.224   8.806  24.386  0.00  0.00    +0.164 A 
ATOM     17  C   UNL     1     -11.890   7.719  24.871  0.00  0.00    +0.125 A 
ATOM     18  O   UNL     1     -12.171   6.902  23.815  0.00  0.00    -0.443 OA
ATOM     19  C   UNL     1     -10.708  10.025  25.200  0.00  0.00    +0.250 A 
ATOM     20  N   UNL     1     -10.147  11.071  24.616  0.00  0.00    -0.203 NA
ATOM     21  C   UNL     1      -9.873  11.931  25.644  0.00  0.00    +0.164 A 
ATOM     22  C   UNL     1     -10.250  11.367  26.835  0.00  0.00    +0.125 A 
ATOM     23  O   UNL     1     -10.794  10.143  26.566  0.00  0.00    -0.442 OA
ATOM     24  C   UNL     1      -9.239  13.342  25.463  0.00  0.00    +0.249 A 
ATOM     25  N   UNL     1      -8.945  13.861  24.287  0.00  0.00    -0.210 NA
ATOM     26  C   UNL     1      -8.443  15.109  24.551  0.00  0.00    +0.109 A 
ATOM     27  C   UNL     1      -8.442  15.301  25.914  0.00  0.00    +0.118 A 
ATOM     28  O   UNL     1      -8.949  14.184  26.510  0.00  0.00    -0.442 OA
ATOM     29  C   UNL     1      -7.975  16.060  23.484  0.00  0.00    +0.108 C 
ATOM     30  C   UNL     1      -7.853  15.474  22.046  0.00  0.00    +0.014 C 
ATOM     31  C   UNL     1      -9.195  14.977  21.412  0.00  0.00    +0.061 C 
ATOM     32  C   UNL     1      -9.005  14.561  19.933  0.00  0.00    -0.024 C 
ATOM     33  H   UNL     1     -10.603  13.094  19.875  0.00  0.00    +0.030 HD
ATOM     34  H   UNL     1      -8.904  12.534  18.232  0.00  0.00    +0.030 HD
ATOM     35  H   UNL     1      -9.187  13.997  17.306  0.00  0.00    +0.030 HD
ATOM     36  H   UNL     1     -11.370  13.263  16.619  0.00  0.00    +0.074 HD
ATOM     37  H   UNL     1      -9.325  12.429  15.352  0.00  0.00    +0.041 HD
ATOM     38  H   UNL     1     -10.842  11.557  15.110  0.00  0.00    +0.041 HD
ATOM     39  H   UNL     1      -7.880   8.547  16.919  0.00  0.00    +0.074 HD
ATOM     40  H   UNL     1      -9.438   9.253  19.415  0.00  0.00    +0.036 HD
ATOM     41  H   UNL     1     -10.439   8.247  17.215  0.00  0.00    +0.060 HD
ATOM     42  H   UNL     1     -11.647   6.293  18.844  0.00  0.00    +0.033 HD
ATOM     43  H   UNL     1     -12.223   7.886  18.413  0.00  0.00    +0.033 HD
ATOM     44  H   UNL     1     -11.220   8.854  20.532  0.00  0.00    +0.057 HD
ATOM     45  H   UNL     1     -11.968   5.962  21.270  0.00  0.00    +0.067 HD
ATOM     46  H   UNL     1     -12.223   7.392  25.843  0.00  0.00    +0.105 HD
ATOM     47  H   UNL     1     -10.224  11.676  27.868  0.00  0.00    +0.105 HD
ATOM     48  H   UNL     1      -8.141  16.101  26.571  0.00  0.00    +0.105 HD
ATOM     49  H   UNL     1      -6.969  16.375  23.801  0.00  0.00    +0.067 HD
ATOM     50  H   UNL     1      -7.523  16.313  21.417  0.00  0.00    +0.035 HD
ATOM     51  H   UNL     1      -9.589  14.120  21.963  0.00  0.00    +0.060 HD
ATOM     52  H   UNL     1      -8.175  13.850  19.876  0.00  0.00    +0.029 HD
ATOM     53  H   UNL     1      -8.710  15.449  19.357  0.00  0.00    +0.029 HD
ENDROOT
BRANCH   1  54
ATOM     54  C   UNL     1     -11.350  14.876  18.940  0.00  0.00    -0.062 C 
ATOM     55  H   UNL     1     -10.965  15.886  18.766  0.00  0.00    +0.023 HD
ATOM     56  H   UNL     1     -12.056  14.913  19.772  0.00  0.00    +0.023 HD
ATOM     57  H   UNL     1     -11.937  14.578  18.064  0.00  0.00    +0.023 HD
ENDBRANCH   1  54
BRANCH  30  58
ATOM     58  C   UNL     1      -6.739  14.420  22.002  0.00  0.00    -0.057 C 
ATOM     59  H   UNL     1      -5.789  14.814  22.388  0.00  0.00    +0.023 HD
ATOM     60  H   UNL     1      -6.990  13.558  22.635  0.00  0.00    +0.023 HD
ATOM     61  H   UNL     1      -6.561  14.055  20.983  0.00  0.00    +0.023 HD
ENDBRANCH  30  58
BRANCH   9  62
ATOM     62  C   UNL     1      -8.155   7.557  19.730  0.00  0.00    -0.057 C 
ATOM     63  H   UNL     1      -7.114   7.499  19.394  0.00  0.00    +0.023 HD
ATOM     64  H   UNL     1      -8.564   6.540  19.760  0.00  0.00    +0.023 HD
ATOM     65  H   UNL     1      -8.132   7.932  20.759  0.00  0.00    +0.023 HD
ENDBRANCH   9  62
BRANCH   8  66
ATOM     66  C   UNL     1      -6.764   9.757  18.340  0.00  0.00    +0.011 C 
ATOM     67  H   UNL     1      -6.012   8.962  18.381  0.00  0.00    +0.033 HD
ATOM     68  H   UNL     1      -6.975  10.050  19.379  0.00  0.00    +0.033 HD
BRANCH  66  69
ATOM     69  C   UNL     1      -6.087  10.984  17.674  0.00  0.00    +0.064 C 
ATOM     70  H   UNL     1      -6.751  11.221  16.829  0.00  0.00    +0.060 HD
BRANCH  69  71
ATOM     71  C   UNL     1      -6.025  12.265  18.558  0.00  0.00    -0.017 C 
ATOM     72  H   UNL     1      -6.983  12.357  19.087  0.00  0.00    +0.032 HD
BRANCH  71  73
ATOM     73  C   UNL     1      -4.894  12.250  19.593  0.00  0.00    -0.060 C 
ATOM     74  H   UNL     1      -5.119  12.915  20.429  0.00  0.00    +0.023 HD
ATOM     75  H   UNL     1      -3.939  12.552  19.171  0.00  0.00    +0.023 HD
ATOM     76  H   UNL     1      -4.754  11.241  19.992  0.00  0.00    +0.023 HD
ENDBRANCH  71  73
BRANCH  71  77
ATOM     77  C   UNL     1      -5.866  13.504  17.626  0.00  0.00    -0.041 C 
ATOM     78  H   UNL     1      -6.712  13.545  16.926  0.00  0.00    +0.027 HD
ATOM     79  H   UNL     1      -4.967  13.373  17.014  0.00  0.00    +0.027 HD
BRANCH  77  80
ATOM     80  C   UNL     1      -5.760  14.858  18.336  0.00  0.00    +0.007 C 
ATOM     81  H   UNL     1      -6.623  15.480  18.097  0.00  0.00    +0.034 HD
ATOM     82  H   UNL     1      -5.770  14.676  19.414  0.00  0.00    +0.034 HD
BRANCH  80  83
ATOM     83  C   UNL     1      -4.468  15.601  18.027  0.00  0.00    +0.139 C 
ATOM     84  O   UNL     1      -4.151  15.891  16.867  0.00  0.00    -0.297 OA
BRANCH  83  85
ATOM     85  C   UNL     1      -3.529  15.974  19.178  0.00  0.00    +0.041 C 
ATOM     86  H   UNL     1      -4.127  15.908  20.094  0.00  0.00    +0.040 HD
BRANCH  85  87
ATOM     87  C   UNL     1      -3.084  17.436  19.077  0.00  0.00    -0.053 C 
ATOM     88  H   UNL     1      -2.007  17.498  18.890  0.00  0.00    +0.024 HD
ATOM     89  H   UNL     1      -3.600  17.936  18.252  0.00  0.00    +0.024 HD
ATOM     90  H   UNL     1      -3.290  17.999  19.994  0.00  0.00    +0.024 HD
ENDBRANCH  85  87
BRANCH  85  91
ATOM     91  C   UNL     1      -2.337  14.996  19.301  0.00  0.00    +0.074 C 
ATOM     92  H   UNL     1      -2.603  14.084  18.744  0.00  0.00    +0.061 HD
BRANCH  91  93
ATOM     93  C   UNL     1      -1.001  15.554  18.727  0.00  0.00    +0.003 C 
ATOM     94  H   UNL     1      -1.048  16.650  18.730  0.00  0.00    +0.037 HD
BRANCH  93  95
ATOM     95  C   UNL     1      -0.728  15.085  17.293  0.00  0.00    -0.057 C 
ATOM     96  H   UNL     1      -1.155  14.093  17.112  0.00  0.00    +0.024 HD
ATOM     97  H   UNL     1      -1.148  15.772  16.556  0.00  0.00    +0.024 HD
ATOM     98  H   UNL     1       0.349  15.028  17.099  0.00  0.00    +0.024 HD
ENDBRANCH  93  95
BRANCH  93  99
ATOM     99  C   UNL     1       0.183  15.132  19.585  0.00  0.00    -0.065 C 
ATOM    100  C   UNL     1       1.072  14.206  19.192  0.00  0.00    -0.005 C 
ATOM    101  H   UNL     1       0.255  15.619  20.552  0.00  0.00    +0.059 HD
ATOM    102  H   UNL     1       0.939  13.742  18.213  0.00  0.00    +0.078 HD
BRANCH 100 103
ATOM    103  N   UNL     1       2.165  13.736  19.900  0.00  0.00    -0.284 N 
ATOM    104  C   UNL     1       3.227  13.015  19.369  0.00  0.00    +0.206 C 
ATOM    105  O   UNL     1       4.247  12.702  19.964  0.00  0.00    -0.279 OA
ATOM    106  H   UNL     1       3.085  12.734  18.316  0.00  0.00    +0.126 HD
BRANCH 103 107
ATOM    107  C   UNL     1       2.260  14.119  21.303  0.00  0.00    +0.007 C 
ATOM    108  H   UNL     1       1.562  14.925  21.553  0.00  0.00    +0.043 HD
ATOM    109  H   UNL     1       3.275  14.461  21.537  0.00  0.00    +0.043 HD
ATOM    110  H   UNL     1       2.015  13.242  21.909  0.00  0.00    +0.043 HD
ENDBRANCH 103 107
ENDBRANCH 100 103
ENDBRANCH  93  99
ENDBRANCH  91  93
BRANCH  91 111
ATOM    111  O   UNL     1      -2.160  14.682  20.695  0.00  0.00    -0.379 OA
BRANCH 111 112
ATOM    112  C   UNL     1      -3.297  14.996  21.491  0.00  0.00    +0.037 C 
ATOM    113  H   UNL     1      -4.030  14.199  21.367  0.00  0.00    +0.052 HD
ATOM    114  H   UNL     1      -3.016  15.052  22.547  0.00  0.00    +0.052 HD
ATOM    115  H   UNL     1      -3.749  15.940  21.174  0.00  0.00    +0.052 HD
ENDBRANCH 111 112
ENDBRANCH  91 111
ENDBRANCH  85  91
ENDBRANCH  83  85
ENDBRANCH  80  83
ENDBRANCH  77  80
ENDBRANCH  71  77
ENDBRANCH  69  71
BRANCH  69 116
ATOM    116  O   UNL     1      -4.786  10.667  17.180  0.00  0.00    -0.379 OA
BRANCH 116 117
ATOM    117  C   UNL     1      -4.820   9.792  16.057  0.00  0.00    +0.037 C 
ATOM    118  H   UNL     1      -5.482   8.955  16.291  0.00  0.00    +0.052 HD
ATOM    119  H   UNL     1      -3.822   9.396  15.851  0.00  0.00    +0.052 HD
ATOM    120  H   UNL     1      -5.209  10.311  15.173  0.00  0.00    +0.052 HD
ENDBRANCH 116 117
ENDBRANCH  69 116
ENDBRANCH  66  69
ENDBRANCH   8  66
BRANCH  31 121
ATOM    121  O   UNL     1     -10.189  16.005  21.454  0.00  0.00    -0.391 OA
ATOM    122  H   UNL     1      -9.784  16.851  21.157  0.00  0.00    +0.210 HD
ENDBRANCH  31 121
BRANCH  29 123
ATOM    123  O   UNL     1      -8.834  17.218  23.471  0.00  0.00    -0.373 OA
BRANCH 123 124
ATOM    124  C   UNL     1      -8.111  18.427  23.240  0.00  0.00    +0.037 C 
ATOM    125  H   UNL     1      -7.218  18.458  23.867  0.00  0.00    +0.052 HD
ATOM    126  H   UNL     1      -8.753  19.268  23.512  0.00  0.00    +0.052 HD
ATOM    127  H   UNL     1      -7.839  18.522  22.187  0.00  0.00    +0.052 HD
ENDBRANCH 123 124
ENDBRANCH  29 123
BRANCH  10 128
ATOM    128  O   UNL     1      -9.540   6.435  17.606  0.00  0.00    -0.379 OA
BRANCH 128 129
ATOM    129  C   UNL     1      -9.818   6.189  16.232  0.00  0.00    +0.037 C 
ATOM    130  H   UNL     1      -9.255   5.322  15.878  0.00  0.00    +0.052 HD
ATOM    131  H   UNL     1      -9.592   7.063  15.618  0.00  0.00    +0.052 HD
ATOM    132  H   UNL     1     -10.882   5.976  16.139  0.00  0.00    +0.052 HD
ENDBRANCH 128 129
ENDBRANCH  10 128
BRANCH   3 133
ATOM    133  O   UNL     1     -11.491  11.593  17.844  0.00  0.00    -0.447 OA
BRANCH 133 134
ATOM    134  C   UNL     1     -12.786  11.453  17.489  0.00  0.00    +0.398 C 
ATOM    135  O   UNL     1     -13.615  12.348  17.416  0.00  0.00    -0.227 OA
ATOM    136  N   UNL     1     -13.067  10.158  17.235  0.00  0.00    -0.295 N 
ATOM    137  H   UNL     1     -14.012   9.893  17.020  0.00  0.00    +0.148 HD
ATOM    138  H   UNL     1     -12.374   9.445  17.431  0.00  0.00    +0.148 HD
ENDBRANCH 133 134
ENDBRANCH   3 133
TORSDOF 29
ENDMDL
MODEL 2
REMARK VINA RESULT:      -5.6      2.645      5.097
REMARK  Name = Kabiramide C_conf3
REMARK  29 active torsions:
REMARK  status: ('A' for Active; 'I' for Inactive)
REMARK    1  A    between atoms: C_1  and  C_2
REMARK    2  A    between atoms: C_4  and  O_64
REMARK    3  A    between atoms: C_9  and  C_41
REMARK    4  A    between atoms: C_10  and  C_40
REMARK    5  A    between atoms: C_11  and  O_38
REMARK    6  A    between atoms: C_30  and  O_36
REMARK    7  A    between atoms: C_31  and  C_35
REMARK    8  A    between atoms: C_32  and  O_34
REMARK    9  A    between atoms: O_36  and  C_37
REMARK   10  A    between atoms: O_38  and  C_39
REMARK   11  A    between atoms: C_41  and  C_42
REMARK   12  A    between atoms: C_42  and  C_43
REMARK   13  A    between atoms: C_42  and  O_62
REMARK   14  A    between atoms: C_43  and  C_44
REMARK   15  A    between atoms: C_43  and  C_45
REMARK   16  A    between atoms: C_45  and  C_46
REMARK   17  A    between atoms: C_46  and  C_47
REMARK   18  A    between atoms: C_47  and  C_49
REMARK   19  A    between atoms: C_49  and  C_50
REMARK   20  A    between atoms: C_49  and  C_51
REMARK   21  A    between atoms: C_51  and  C_52
REMARK   22  A    between atoms: C_51  and  O_60
REMARK   23  A    between atoms: C_52  and  C_53
REMARK   24  A    between atoms: C_52  and  C_54
REMARK   25  A    between atoms: C_55  and  N_56
REMARK   26  A    between atoms: N_56  and  C_57
REMARK   27  A    between atoms: O_60  and  C_61
REMARK   28  A    between atoms: O_62  and  C_63
REMARK   29  A    between atoms: O_64  and  C_65
REMARK                            x       y       z     vdW  Elec       q    Type
REMARK                         _______ _______ _______ _____ _____    ______ ____
ROOT
ATOM      1  C   UNL     1      -8.879  16.345  20.942  0.00  0.00    -0.038 C 
ATOM      2  C   UNL     1      -7.627  16.578  20.051  0.00  0.00    -0.012 C 
ATOM      3  C   UNL     1      -7.805  16.383  18.529  0.00  0.00    +0.115 C 
ATOM      4  C   UNL     1      -6.479  16.513  17.757  0.00  0.00    +0.082 C 
ATOM      5  C   UNL     1      -5.552  15.318  17.759  0.00  0.00    +0.311 C 
ATOM      6  O   UNL     1      -4.796  15.055  16.828  0.00  0.00    -0.251 OA
ATOM      7  O   UNL     1      -5.636  14.608  18.903  0.00  0.00    -0.461 OA
ATOM      8  C   UNL     1      -4.753  13.482  19.130  0.00  0.00    +0.110 C 
ATOM      9  C   UNL     1      -5.660  12.205  19.042  0.00  0.00    +0.020 C 
ATOM     10  C   UNL     1      -5.976  11.868  17.553  0.00  0.00    +0.068 C 
ATOM     11  C   UNL     1      -7.274  11.052  17.265  0.00  0.00    -0.008 C 
ATOM     12  C   UNL     1      -8.096  10.605  18.433  0.00  0.00    -0.077 C 
ATOM     13  C   UNL     1      -8.492   9.342  18.668  0.00  0.00    -0.003 C 
ATOM     14  C   UNL     1      -9.208   9.050  19.861  0.00  0.00    +0.220 A 
ATOM     15  N   UNL     1      -9.314   9.859  20.901  0.00  0.00    -0.205 NA
ATOM     16  C   UNL     1     -10.066   9.180  21.824  0.00  0.00    +0.164 A 
ATOM     17  C   UNL     1     -10.418   7.962  21.321  0.00  0.00    +0.125 A 
ATOM     18  O   UNL     1      -9.881   7.861  20.070  0.00  0.00    -0.443 OA
ATOM     19  C   UNL     1     -10.455   9.767  23.209  0.00  0.00    +0.250 A 
ATOM     20  N   UNL     1     -10.130  10.998  23.565  0.00  0.00    -0.203 NA
ATOM     21  C   UNL     1     -10.676  11.150  24.811  0.00  0.00    +0.164 A 
ATOM     22  C   UNL     1     -11.296   9.988  25.191  0.00  0.00    +0.125 A 
ATOM     23  O   UNL     1     -11.166   9.090  24.170  0.00  0.00    -0.442 OA
ATOM     24  C   UNL     1     -10.605  12.462  25.647  0.00  0.00    +0.249 A 
ATOM     25  N   UNL     1     -10.043  13.572  25.210  0.00  0.00    -0.210 NA
ATOM     26  C   UNL     1     -10.213  14.490  26.213  0.00  0.00    +0.109 A 
ATOM     27  C   UNL     1     -10.880  13.883  27.253  0.00  0.00    +0.118 A 
ATOM     28  O   UNL     1     -11.139  12.590  26.907  0.00  0.00    -0.442 OA
ATOM     29  C   UNL     1      -9.718  15.908  26.136  0.00  0.00    +0.108 C 
ATOM     30  C   UNL     1      -8.771  16.242  24.947  0.00  0.00    +0.014 C 
ATOM     31  C   UNL     1      -9.406  16.088  23.524  0.00  0.00    +0.061 C 
ATOM     32  C   UNL     1      -8.449  16.590  22.416  0.00  0.00    -0.024 C 
ATOM     33  H   UNL     1      -9.184  15.294  20.839  0.00  0.00    +0.030 HD
ATOM     34  H   UNL     1      -6.866  15.883  20.414  0.00  0.00    +0.030 HD
ATOM     35  H   UNL     1      -7.238  17.587  20.227  0.00  0.00    +0.030 HD
ATOM     36  H   UNL     1      -8.451  17.204  18.188  0.00  0.00    +0.074 HD
ATOM     37  H   UNL     1      -5.912  17.382  18.107  0.00  0.00    +0.041 HD
ATOM     38  H   UNL     1      -6.722  16.685  16.701  0.00  0.00    +0.041 HD
ATOM     39  H   UNL     1      -3.968  13.413  18.374  0.00  0.00    +0.074 HD
ATOM     40  H   UNL     1      -6.598  12.475  19.541  0.00  0.00    +0.036 HD
ATOM     41  H   UNL     1      -6.079  12.806  16.996  0.00  0.00    +0.060 HD
ATOM     42  H   UNL     1      -7.051  10.191  16.618  0.00  0.00    +0.033 HD
ATOM     43  H   UNL     1      -7.928  11.702  16.667  0.00  0.00    +0.033 HD
ATOM     44  H   UNL     1      -8.395  11.384  19.140  0.00  0.00    +0.057 HD
ATOM     45  H   UNL     1      -8.252   8.531  17.997  0.00  0.00    +0.067 HD
ATOM     46  H   UNL     1     -10.994   7.121  21.674  0.00  0.00    +0.105 HD
ATOM     47  H   UNL     1     -11.841   9.664  26.064  0.00  0.00    +0.105 HD
ATOM     48  H   UNL     1     -11.219  14.195  28.228  0.00  0.00    +0.105 HD
ATOM     49  H   UNL     1      -9.151  16.065  27.067  0.00  0.00    +0.067 HD
ATOM     50  H   UNL     1      -8.539  17.312  25.051  0.00  0.00    +0.035 HD
ATOM     51  H   UNL     1      -9.650  15.042  23.320  0.00  0.00    +0.060 HD
ATOM     52  H   UNL     1      -7.480  16.099  22.546  0.00  0.00    +0.029 HD
ATOM     53  H   UNL     1      -8.287  17.668  22.558  0.00  0.00    +0.029 HD
ENDROOT
BRANCH   1  54
ATOM     54  C   UNL     1     -10.051  17.231  20.517  0.00  0.00    -0.062 C 
ATOM     55  H   UNL     1     -10.057  18.176  21.071  0.00  0.00    +0.023 HD
ATOM     56  H   UNL     1     -11.005  16.727  20.682  0.00  0.00    +0.023 HD
ATOM     57  H   UNL     1     -10.018  17.462  19.446  0.00  0.00    +0.023 HD
ENDBRANCH   1  54
BRANCH  30  58
ATOM     58  C   UNL     1      -7.447  15.482  25.101  0.00  0.00    -0.057 C 
ATOM     59  H   UNL     1      -7.198  15.306  26.156  0.00  0.00    +0.023 HD
ATOM     60  H   UNL     1      -7.508  14.490  24.634  0.00  0.00    +0.023 HD
ATOM     61  H   UNL     1      -6.609  16.024  24.644  0.00  0.00    +0.023 HD
ENDBRANCH  30  58
BRANCH   9  62
ATOM     62  C   UNL     1      -5.053  10.997  19.769  0.00  0.00    -0.057 C 
ATOM     63  H   UNL     1      -4.607  10.296  19.054  0.00  0.00    +0.023 HD
ATOM     64  H   UNL     1      -5.806  10.457  20.355  0.00  0.00    +0.023 HD
ATOM     65  H   UNL     1      -4.254  11.293  20.457  0.00  0.00    +0.023 HD
ENDBRANCH   9  62
BRANCH   8  66
ATOM     66  C   UNL     1      -4.127  13.696  20.525  0.00  0.00    +0.011 C 
ATOM     67  H   UNL     1      -3.487  12.848  20.791  0.00  0.00    +0.033 HD
ATOM     68  H   UNL     1      -4.958  13.706  21.245  0.00  0.00    +0.033 HD
BRANCH  66  69
ATOM     69  C   UNL     1      -3.306  14.983  20.794  0.00  0.00    +0.064 C 
ATOM     70  H   UNL     1      -2.679  14.717  21.658  0.00  0.00    +0.060 HD
BRANCH  69  71
ATOM     71  C   UNL     1      -2.330  15.395  19.653  0.00  0.00    -0.017 C 
ATOM     72  H   UNL     1      -2.424  14.658  18.845  0.00  0.00    +0.032 HD
BRANCH  71  73
ATOM     73  C   UNL     1      -2.603  16.790  19.077  0.00  0.00    -0.060 C 
ATOM     74  H   UNL     1      -3.674  16.972  18.980  0.00  0.00    +0.023 HD
ATOM     75  H   UNL     1      -2.148  16.934  18.101  0.00  0.00    +0.023 HD
ATOM     76  H   UNL     1      -2.188  17.562  19.732  0.00  0.00    +0.023 HD
ENDBRANCH  71  73
BRANCH  71  77
ATOM     77  C   UNL     1      -0.871  15.332  20.199  0.00  0.00    -0.041 C 
ATOM     78  H   UNL     1      -0.701  14.353  20.669  0.00  0.00    +0.027 HD
ATOM     79  H   UNL     1      -0.758  16.078  20.993  0.00  0.00    +0.027 HD
BRANCH  77  80
ATOM     80  C   UNL     1       0.235  15.570  19.165  0.00  0.00    +0.007 C 
ATOM     81  H   UNL     1      -0.198  15.843  18.203  0.00  0.00    +0.034 HD
ATOM     82  H   UNL     1       0.842  16.414  19.509  0.00  0.00    +0.034 HD
BRANCH  80  83
ATOM     83  C   UNL     1       1.177  14.386  19.007  0.00  0.00    +0.139 C 
ATOM     84  O   UNL     1       0.759  13.263  18.702  0.00  0.00    -0.297 OA
BRANCH  83  85
ATOM     85  C   UNL     1       2.675  14.586  19.257  0.00  0.00    +0.041 C 
ATOM     86  H   UNL     1       3.037  15.227  18.445  0.00  0.00    +0.040 HD
BRANCH  85  87
ATOM     87  C   UNL     1       3.440  13.267  19.119  0.00  0.00    -0.053 C 
ATOM     88  H   UNL     1       3.028  12.668  18.300  0.00  0.00    +0.024 HD
ATOM     89  H   UNL     1       4.495  13.458  18.900  0.00  0.00    +0.024 HD
ATOM     90  H   UNL     1       3.389  12.658  20.027  0.00  0.00    +0.024 HD
ENDBRANCH  85  87
BRANCH  85  91
ATOM     91  C   UNL     1       2.954  15.298  20.602  0.00  0.00    +0.074 C 
ATOM     92  H   UNL     1       1.999  15.715  20.956  0.00  0.00    +0.061 HD
BRANCH  91  93
ATOM     93  C   UNL     1       3.523  14.359  21.707  0.00  0.00    +0.003 C 
ATOM     94  H   UNL     1       4.200  13.634  21.238  0.00  0.00    +0.037 HD
BRANCH  93  95
ATOM     95  C   UNL     1       2.428  13.586  22.452  0.00  0.00    -0.057 C 
ATOM     96  H   UNL     1       1.580  14.236  22.696  0.00  0.00    +0.024 HD
ATOM     97  H   UNL     1       2.051  12.749  21.862  0.00  0.00    +0.024 HD
ATOM     98  H   UNL     1       2.813  13.168  23.389  0.00  0.00    +0.024 HD
ENDBRANCH  93  95
BRANCH  93  99
ATOM     99  C   UNL     1       4.318  15.145  22.738  0.00  0.00    -0.065 C 
ATOM    100  C   UNL     1       4.224  14.915  24.058  0.00  0.00    -0.005 C 
ATOM    101  H   UNL     1       4.960  15.923  22.339  0.00  0.00    +0.059 HD
ATOM    102  H   UNL     1       3.552  14.126  24.400  0.00  0.00    +0.078 HD
BRANCH 100 103
ATOM    103  N   UNL     1       4.882  15.583  25.077  0.00  0.00    -0.284 N 
ATOM    104  C   UNL     1       4.358  16.619  25.839  0.00  0.00    +0.206 C 
ATOM    105  O   UNL     1       4.890  17.129  26.814  0.00  0.00    -0.279 OA
ATOM    106  H   UNL     1       3.375  16.966  25.492  0.00  0.00    +0.126 HD
BRANCH 103 107
ATOM    107  C   UNL     1       6.201  15.086  25.451  0.00  0.00    +0.007 C 
ATOM    108  H   UNL     1       6.205  14.663  26.461  0.00  0.00    +0.043 HD
ATOM    109  H   UNL     1       6.937  15.897  25.416  0.00  0.00    +0.043 HD
ATOM    110  H   UNL     1       6.478  14.301  24.741  0.00  0.00    +0.043 HD
ENDBRANCH 103 107
ENDBRANCH 100 103
ENDBRANCH  93  99
ENDBRANCH  91  93
BRANCH  91 111
ATOM    111  O   UNL     1       3.891  16.363  20.357  0.00  0.00    -0.379 OA
BRANCH 111 112
ATOM    112  C   UNL     1       3.270  17.634  20.203  0.00  0.00    +0.037 C 
ATOM    113  H   UNL     1       2.212  17.528  20.442  0.00  0.00    +0.052 HD
ATOM    114  H   UNL     1       3.714  18.358  20.893  0.00  0.00    +0.052 HD
ATOM    115  H   UNL     1       3.363  17.993  19.174  0.00  0.00    +0.052 HD
ENDBRANCH 111 112
ENDBRANCH  91 111
ENDBRANCH  85  91
ENDBRANCH  83  85
ENDBRANCH  80  83
ENDBRANCH  77  80
ENDBRANCH  71  77
ENDBRANCH  69  71
BRANCH  69 116
ATOM    116  O   UNL     1      -4.146  16.084  21.140  0.00  0.00    -0.379 OA
BRANCH 116 117
ATOM    117  C   UNL     1      -4.820  15.895  22.381  0.00  0.00    +0.037 C 
ATOM    118  H   UNL     1      -5.616  15.161  22.233  0.00  0.00    +0.052 HD
ATOM    119  H   UNL     1      -5.272  16.833  22.716  0.00  0.00    +0.052 HD
ATOM    120  H   UNL     1      -4.131  15.516  23.143  0.00  0.00    +0.052 HD
ENDBRANCH 116 117
ENDBRANCH  69 116
ENDBRANCH  66  69
ENDBRANCH   8  66
BRANCH  31 121
ATOM    121  O   UNL     1     -10.621  16.837  23.426  0.00  0.00    -0.391 OA
ATOM    122  H   UNL     1     -11.147  16.491  22.671  0.00  0.00    +0.210 HD
ENDBRANCH  31 121
BRANCH  29 123
ATOM    123  O   UNL     1     -10.847  16.805  26.132  0.00  0.00    -0.373 OA
BRANCH 123 124
ATOM    124  C   UNL     1     -10.568  18.031  26.807  0.00  0.00    +0.037 C 
ATOM    125  H   UNL     1      -9.586  17.987  27.280  0.00  0.00    +0.052 HD
ATOM    126  H   UNL     1     -11.320  18.173  27.587  0.00  0.00    +0.052 HD
ATOM    127  H   UNL     1     -10.619  18.875  26.116  0.00  0.00    +0.052 HD
ENDBRANCH 123 124
ENDBRANCH  29 123
BRANCH  10 128
ATOM    128  O   UNL     1      -4.839  11.161  17.010  0.00  0.00    -0.379 OA
BRANCH 128 129
ATOM    129  C   UNL     1      -5.197   9.966  16.325  0.00  0.00    +0.037 C 
ATOM    130  H   UNL     1      -6.271   9.946  16.128  0.00  0.00    +0.052 HD
ATOM    131  H   UNL     1      -4.899   9.080  16.889  0.00  0.00    +0.052 HD
ATOM    132  H   UNL     1      -4.667   9.954  15.373  0.00  0.00    +0.052 HD
ENDBRANCH 128 129
ENDBRANCH  10 128
BRANCH   3 133
ATOM    133  O   UNL     1      -8.463  15.130  18.266  0.00  0.00    -0.447 OA
BRANCH 133 134
ATOM    134  C   UNL     1      -9.139  15.050  17.100  0.00  0.00    +0.398 C 
ATOM    135  O   UNL     1      -8.838  14.360  16.137  0.00  0.00    -0.227 OA
ATOM    136  N   UNL     1     -10.212  15.867  17.122  0.00  0.00    -0.295 N 
ATOM    137  H   UNL     1     -10.776  15.960  16.296  0.00  0.00    +0.148 HD
ATOM    138  H   UNL     1     -10.343  16.506  17.898  0.00  0.00    +0.148 HD
ENDBRANCH 133 134
ENDBRANCH   3 133
TORSDOF 29
ENDMDL
MODEL 3
REMARK VINA RESULT:      -5.5      8.194     14.515
REMARK  Name = Kabiramide C_conf3
REMARK  29 active torsions:
REMARK  status: ('A' for Active; 'I' for Inactive)
REMARK    1  A    between atoms: C_1  and  C_2
REMARK    2  A    between atoms: C_4  and  O_64
REMARK    3  A    between atoms: C_9  and  C_41
REMARK    4  A    between atoms: C_10  and  C_40
REMARK    5  A    between atoms: C_11  and  O_38
REMARK    6  A    between atoms: C_30  and  O_36
REMARK    7  A    between atoms: C_31  and  C_35
REMARK    8  A    between atoms: C_32  and  O_34
REMARK    9  A    between atoms: O_36  and  C_37
REMARK   10  A    between atoms: O_38  and  C_39
REMARK   11  A    between atoms: C_41  and  C_42
REMARK   12  A    between atoms: C_42  and  C_43
REMARK   13  A    between atoms: C_42  and  O_62
REMARK   14  A    between atoms: C_43  and  C_44
REMARK   15  A    between atoms: C_43  and  C_45
REMARK   16  A    between atoms: C_45  and  C_46
REMARK   17  A    between atoms: C_46  and  C_47
REMARK   18  A    between atoms: C_47  and  C_49
REMARK   19  A    between atoms: C_49  and  C_50
REMARK   20  A    between atoms: C_49  and  C_51
REMARK   21  A    between atoms: C_51  and  C_52
REMARK   22  A    between atoms: C_51  and  O_60
REMARK   23  A    between atoms: C_52  and  C_53
REMARK   24  A    between atoms: C_52  and  C_54
REMARK   25  A    between atoms: C_55  and  N_56
REMARK   26  A    between atoms: N_56  and  C_57
REMARK   27  A    between atoms: O_60  and  C_61
REMARK   28  A    between atoms: O_62  and  C_63
REMARK   29  A    between atoms: O_64  and  C_65
REMARK                            x       y       z     vdW  Elec       q    Type
REMARK                         _______ _______ _______ _____ _____    ______ ____
ROOT
ATOM      1  C   UNL     1       0.396  22.535  18.415  0.00  0.00    -0.038 C 
ATOM      2  C   UNL     1       1.368  23.390  19.276  0.00  0.00    -0.012 C 
ATOM      3  C   UNL     1       2.832  23.484  18.793  0.00  0.00    +0.115 C 
ATOM      4  C   UNL     1       3.734  24.245  19.782  0.00  0.00    +0.082 C 
ATOM      5  C   UNL     1       4.228  23.491  20.997  0.00  0.00    +0.311 C 
ATOM      6  O   UNL     1       5.303  23.726  21.540  0.00  0.00    -0.251 OA
ATOM      7  O   UNL     1       3.342  22.565  21.417  0.00  0.00    -0.461 OA
ATOM      8  C   UNL     1       3.597  21.807  22.626  0.00  0.00    +0.110 C 
ATOM      9  C   UNL     1       3.907  20.343  22.155  0.00  0.00    +0.020 C 
ATOM     10  C   UNL     1       5.359  20.252  21.595  0.00  0.00    +0.068 C 
ATOM     11  C   UNL     1       5.662  19.111  20.575  0.00  0.00    -0.008 C 
ATOM     12  C   UNL     1       4.558  18.155  20.244  0.00  0.00    -0.077 C 
ATOM     13  C   UNL     1       4.641  16.816  20.319  0.00  0.00    -0.003 C 
ATOM     14  C   UNL     1       3.487  16.033  20.044  0.00  0.00    +0.220 A 
ATOM     15  N   UNL     1       2.253  16.501  19.962  0.00  0.00    -0.205 NA
ATOM     16  C   UNL     1       1.461  15.413  19.704  0.00  0.00    +0.164 A 
ATOM     17  C   UNL     1       2.234  14.292  19.622  0.00  0.00    +0.125 A 
ATOM     18  O   UNL     1       3.528  14.667  19.836  0.00  0.00    -0.443 OA
ATOM     19  C   UNL     1      -0.079  15.502  19.514  0.00  0.00    +0.250 A 
ATOM     20  N   UNL     1      -0.722  16.658  19.530  0.00  0.00    -0.203 NA
ATOM     21  C   UNL     1      -2.028  16.327  19.291  0.00  0.00    +0.164 A 
ATOM     22  C   UNL     1      -2.147  14.968  19.166  0.00  0.00    +0.125 A 
ATOM     23  O   UNL     1      -0.901  14.423  19.302  0.00  0.00    -0.442 OA
ATOM     24  C   UNL     1      -3.187  17.360  19.168  0.00  0.00    +0.249 A 
ATOM     25  N   UNL     1      -3.008  18.664  19.242  0.00  0.00    -0.210 NA
ATOM     26  C   UNL     1      -4.249  19.216  19.058  0.00  0.00    +0.109 A 
ATOM     27  C   UNL     1      -5.160  18.198  18.886  0.00  0.00    +0.118 A 
ATOM     28  O   UNL     1      -4.498  17.008  18.952  0.00  0.00    -0.442 OA
ATOM     29  C   UNL     1      -4.511  20.697  19.067  0.00  0.00    +0.108 C 
ATOM     30  C   UNL     1      -3.335  21.600  19.542  0.00  0.00    +0.014 C 
ATOM     31  C   UNL     1      -2.049  21.546  18.650  0.00  0.00    +0.061 C 
ATOM     32  C   UNL     1      -0.997  22.587  19.104  0.00  0.00    -0.024 C 
ATOM     33  H   UNL     1       0.751  21.495  18.426  0.00  0.00    +0.030 HD
ATOM     34  H   UNL     1       1.349  22.950  20.276  0.00  0.00    +0.030 HD
ATOM     35  H   UNL     1       0.970  24.406  19.373  0.00  0.00    +0.030 HD
ATOM     36  H   UNL     1       2.812  24.073  17.866  0.00  0.00    +0.074 HD
ATOM     37  H   UNL     1       3.241  25.159  20.128  0.00  0.00    +0.041 HD
ATOM     38  H   UNL     1       4.642  24.547  19.244  0.00  0.00    +0.041 HD
ATOM     39  H   UNL     1       4.455  22.191  23.182  0.00  0.00    +0.074 HD
ATOM     40  H   UNL     1       3.208  20.144  21.335  0.00  0.00    +0.036 HD
ATOM     41  H   UNL     1       5.595  21.189  21.079  0.00  0.00    +0.060 HD
ATOM     42  H   UNL     1       6.557  18.551  20.879  0.00  0.00    +0.033 HD
ATOM     43  H   UNL     1       5.932  19.599  19.628  0.00  0.00    +0.033 HD
ATOM     44  H   UNL     1       3.617  18.601  19.910  0.00  0.00    +0.057 HD
ATOM     45  H   UNL     1       5.549  16.313  20.618  0.00  0.00    +0.067 HD
ATOM     46  H   UNL     1       2.053  13.245  19.434  0.00  0.00    +0.105 HD
ATOM     47  H   UNL     1      -2.963  14.287  18.978  0.00  0.00    +0.105 HD
ATOM     48  H   UNL     1      -6.224  18.147  18.722  0.00  0.00    +0.105 HD
ATOM     49  H   UNL     1      -5.343  20.838  19.773  0.00  0.00    +0.067 HD
ATOM     50  H   UNL     1      -3.707  22.631  19.459  0.00  0.00    +0.035 HD
ATOM     51  H   UNL     1      -1.591  20.555  18.690  0.00  0.00    +0.060 HD
ATOM     52  H   UNL     1      -0.822  22.459  20.176  0.00  0.00    +0.029 HD
ATOM     53  H   UNL     1      -1.420  23.592  18.964  0.00  0.00    +0.029 HD
ENDROOT
BRANCH   1  54
ATOM     54  C   UNL     1       0.352  23.015  16.964  0.00  0.00    -0.062 C 
ATOM     55  H   UNL     1       0.852  22.305  16.295  0.00  0.00    +0.023 HD
ATOM     56  H   UNL     1       0.833  23.989  16.857  0.00  0.00    +0.023 HD
ATOM     57  H   UNL     1      -0.677  23.149  16.612  0.00  0.00    +0.023 HD
ENDBRANCH   1  54
BRANCH  30  58
ATOM     58  C   UNL     1      -3.047  21.349  21.028  0.00  0.00    -0.057 C 
ATOM     59  H   UNL     1      -3.223  22.248  21.635  0.00  0.00    +0.023 HD
ATOM     60  H   UNL     1      -3.714  20.576  21.431  0.00  0.00    +0.023 HD
ATOM     61  H   UNL     1      -2.011  21.028  21.196  0.00  0.00    +0.023 HD
ENDBRANCH  30  58
BRANCH   9  62
ATOM     62  C   UNL     1       3.669  19.304  23.259  0.00  0.00    -0.057 C 
ATOM     63  H   UNL     1       2.668  19.417  23.691  0.00  0.00    +0.023 HD
ATOM     64  H   UNL     1       4.405  19.398  24.067  0.00  0.00    +0.023 HD
ATOM     65  H   UNL     1       3.731  18.280  22.877  0.00  0.00    +0.023 HD
ENDBRANCH   9  62
BRANCH   8  66
ATOM     66  C   UNL     1       2.318  21.918  23.485  0.00  0.00    +0.011 C 
ATOM     67  H   UNL     1       1.729  20.998  23.415  0.00  0.00    +0.033 HD
ATOM     68  H   UNL     1       1.710  22.720  23.042  0.00  0.00    +0.033 HD
BRANCH  66  69
ATOM     69  C   UNL     1       2.449  22.257  24.992  0.00  0.00    +0.064 C 
ATOM     70  H   UNL     1       2.000  23.258  25.074  0.00  0.00    +0.060 HD
BRANCH  69  71
ATOM     71  C   UNL     1       1.640  21.333  25.950  0.00  0.00    -0.017 C 
ATOM     72  H   UNL     1       1.159  21.968  26.706  0.00  0.00    +0.032 HD
BRANCH  71  73
ATOM     73  C   UNL     1       0.558  20.506  25.247  0.00  0.00    -0.060 C 
ATOM     74  H   UNL     1       0.978  19.598  24.811  0.00  0.00    +0.023 HD
ATOM     75  H   UNL     1       0.058  21.058  24.456  0.00  0.00    +0.023 HD
ATOM     76  H   UNL     1      -0.219  20.209  25.958  0.00  0.00    +0.023 HD
ENDBRANCH  71  73
BRANCH  71  77
ATOM     77  C   UNL     1       2.635  20.380  26.679  0.00  0.00    -0.041 C 
ATOM     78  H   UNL     1       2.539  20.516  27.765  0.00  0.00    +0.027 HD
ATOM     79  H   UNL     1       3.658  20.672  26.422  0.00  0.00    +0.027 HD
BRANCH  77  80
ATOM     80  C   UNL     1       2.477  18.888  26.363  0.00  0.00    +0.007 C 
ATOM     81  H   UNL     1       1.494  18.693  25.934  0.00  0.00    +0.034 HD
ATOM     82  H   UNL     1       3.227  18.621  25.613  0.00  0.00    +0.034 HD
BRANCH  80  83
ATOM     83  C   UNL     1       2.719  17.989  27.567  0.00  0.00    +0.139 C 
ATOM     84  O   UNL     1       1.863  17.845  28.449  0.00  0.00    -0.297 OA
BRANCH  83  85
ATOM     85  C   UNL     1       4.063  17.266  27.700  0.00  0.00    +0.041 C 
ATOM     86  H   UNL     1       3.825  16.212  27.884  0.00  0.00    +0.040 HD
BRANCH  85  87
ATOM     87  C   UNL     1       4.825  17.743  28.939  0.00  0.00    -0.053 C 
ATOM     88  H   UNL     1       5.579  17.005  29.234  0.00  0.00    +0.024 HD
ATOM     89  H   UNL     1       5.339  18.687  28.733  0.00  0.00    +0.024 HD
ATOM     90  H   UNL     1       4.166  17.899  29.800  0.00  0.00    +0.024 HD
ENDBRANCH  85  87
BRANCH  85  91
ATOM     91  C   UNL     1       4.908  17.359  26.408  0.00  0.00    +0.074 C 
ATOM     92  H   UNL     1       4.324  17.937  25.676  0.00  0.00    +0.061 HD
BRANCH  91  93
ATOM     93  C   UNL     1       6.286  18.059  26.604  0.00  0.00    +0.003 C 
ATOM     94  H   UNL     1       6.548  18.027  27.670  0.00  0.00    +0.037 HD
BRANCH  93  95
ATOM     95  C   UNL     1       6.279  19.523  26.152  0.00  0.00    -0.057 C 
ATOM     96  H   UNL     1       5.585  19.677  25.319  0.00  0.00    +0.024 HD
ATOM     97  H   UNL     1       5.987  20.196  26.961  0.00  0.00    +0.024 HD
ATOM     98  H   UNL     1       7.276  19.835  25.822  0.00  0.00    +0.024 HD
ENDBRANCH  93  95
BRANCH  93  99
ATOM     99  C   UNL     1       7.380  17.340  25.830  0.00  0.00    -0.065 C 
ATOM    100  C   UNL     1       7.868  17.798  24.666  0.00  0.00    -0.005 C 
ATOM    101  H   UNL     1       7.735  16.415  26.272  0.00  0.00    +0.059 HD
ATOM    102  H   UNL     1       7.462  18.729  24.264  0.00  0.00    +0.078 HD
BRANCH 100 103
ATOM    103  N   UNL     1       8.842  17.214  23.873  0.00  0.00    -0.284 N 
ATOM    104  C   UNL     1       8.630  16.221  22.926  0.00  0.00    +0.206 C 
ATOM    105  O   UNL     1       9.463  15.789  22.145  0.00  0.00    -0.279 OA
ATOM    106  H   UNL     1       7.602  15.831  22.921  0.00  0.00    +0.126 HD
BRANCH 103 107
ATOM    107  C   UNL     1      10.189  17.763  23.968  0.00  0.00    +0.007 C 
ATOM    108  H   UNL     1      10.839  17.139  24.591  0.00  0.00    +0.043 HD
ATOM    109  H   UNL     1      10.161  18.769  24.401  0.00  0.00    +0.043 HD
ATOM    110  H   UNL     1      10.607  17.805  22.958  0.00  0.00    +0.043 HD
ENDBRANCH 103 107
ENDBRANCH 100 103
ENDBRANCH  93  99
ENDBRANCH  91  93
BRANCH  91 111
ATOM    111  O   UNL     1       5.121  16.023  25.918  0.00  0.00    -0.379 OA
BRANCH 111 112
ATOM    112  C   UNL     1       4.314  15.702  24.790  0.00  0.00    +0.037 C 
ATOM    113  H   UNL     1       4.971  15.562  23.930  0.00  0.00    +0.052 HD
ATOM    114  H   UNL     1       3.767  14.772  24.967  0.00  0.00    +0.052 HD
ATOM    115  H   UNL     1       3.614  16.511  24.566  0.00  0.00    +0.052 HD
ENDBRANCH 111 112
ENDBRANCH  91 111
ENDBRANCH  85  91
ENDBRANCH  83  85
ENDBRANCH  80  83
ENDBRANCH  77  80
ENDBRANCH  71  77
ENDBRANCH  69  71
BRANCH  69 116
ATOM    116  O   UNL     1       3.814  22.315  25.406  0.00  0.00    -0.379 OA
BRANCH 116 117
ATOM    117  C   UNL     1       4.214  23.622  25.805  0.00  0.00    +0.037 C 
ATOM    118  H   UNL     1       4.331  24.236  24.909  0.00  0.00    +0.052 HD
ATOM    119  H   UNL     1       5.175  23.585  26.326  0.00  0.00    +0.052 HD
ATOM    120  H   UNL     1       3.456  24.081  26.448  0.00  0.00    +0.052 HD
ENDBRANCH 116 117
ENDBRANCH  69 116
ENDBRANCH  66  69
ENDBRANCH   8  66
BRANCH  31 121
ATOM    121  O   UNL     1      -2.368  21.814  17.282  0.00  0.00    -0.391 OA
ATOM    122  H   UNL     1      -1.588  21.595  16.725  0.00  0.00    +0.210 HD
ENDBRANCH  31 121
BRANCH  29 123
ATOM    123  O   UNL     1      -4.948  21.109  17.756  0.00  0.00    -0.373 OA
BRANCH 123 124
ATOM    124  C   UNL     1      -6.150  21.878  17.802  0.00  0.00    +0.037 C 
ATOM    125  H   UNL     1      -6.897  21.373  18.416  0.00  0.00    +0.052 HD
ATOM    126  H   UNL     1      -6.541  21.964  16.785  0.00  0.00    +0.052 HD
ATOM    127  H   UNL     1      -5.956  22.881  18.187  0.00  0.00    +0.052 HD
ENDBRANCH 123 124
ENDBRANCH  29 123
BRANCH  10 128
ATOM    128  O   UNL     1       6.258  20.136  22.720  0.00  0.00    -0.379 OA
BRANCH 128 129
ATOM    129  C   UNL     1       7.397  20.985  22.617  0.00  0.00    +0.037 C 
ATOM    130  H   UNL     1       7.264  21.878  23.232  0.00  0.00    +0.052 HD
ATOM    131  H   UNL     1       7.592  21.264  21.580  0.00  0.00    +0.052 HD
ATOM    132  H   UNL     1       8.260  20.432  22.987  0.00  0.00    +0.052 HD
ENDBRANCH 128 129
ENDBRANCH  10 128
BRANCH   3 133
ATOM    133  O   UNL     1       3.340  22.170  18.500  0.00  0.00    -0.447 OA
BRANCH 133 134
ATOM    134  C   UNL     1       4.148  22.074  17.422  0.00  0.00    +0.398 C 
ATOM    135  O   UNL     1       4.053  22.719  16.389  0.00  0.00    -0.227 OA
ATOM    136  N   UNL     1       5.092  21.131  17.625  0.00  0.00    -0.295 N 
ATOM    137  H   UNL     1       5.727  20.905  16.880  0.00  0.00    +0.148 HD
ATOM    138  H   UNL     1       5.047  20.543  18.448  0.00  0.00    +0.148 HD
ENDBRANCH 133 134
ENDBRANCH   3 133
TORSDOF 29
ENDMDL
MODEL 4
REMARK VINA RESULT:      -5.4      1.348      2.086
REMARK  Name = Kabiramide C_conf3
REMARK  29 active torsions:
REMARK  status: ('A' for Active; 'I' for Inactive)
REMARK    1  A    between atoms: C_1  and  C_2
REMARK    2  A    between atoms: C_4  and  O_64
REMARK    3  A    between atoms: C_9  and  C_41
REMARK    4  A    between atoms: C_10  and  C_40
REMARK    5  A    between atoms: C_11  and  O_38
REMARK    6  A    between atoms: C_30  and  O_36
REMARK    7  A    between atoms: C_31  and  C_35
REMARK    8  A    between atoms: C_32  and  O_34
REMARK    9  A    between atoms: O_36  and  C_37
REMARK   10  A    between atoms: O_38  and  C_39
REMARK   11  A    between atoms: C_41  and  C_42
REMARK   12  A    between atoms: C_42  and  C_43
REMARK   13  A    between atoms: C_42  and  O_62
REMARK   14  A    between atoms: C_43  and  C_44
REMARK   15  A    between atoms: C_43  and  C_45
REMARK   16  A    between atoms: C_45  and  C_46
REMARK   17  A    between atoms: C_46  and  C_47
REMARK   18  A    between atoms: C_47  and  C_49
REMARK   19  A    between atoms: C_49  and  C_50
REMARK   20  A    between atoms: C_49  and  C_51
REMARK   21  A    between atoms: C_51  and  C_52
REMARK   22  A    between atoms: C_51  and  O_60
REMARK   23  A    between atoms: C_52  and  C_53
REMARK   24  A    between atoms: C_52  and  C_54
REMARK   25  A    between atoms: C_55  and  N_56
REMARK   26  A    between atoms: N_56  and  C_57
REMARK   27  A    between atoms: O_60  and  C_61
REMARK   28  A    between atoms: O_62  and  C_63
REMARK   29  A    between atoms: O_64  and  C_65
REMARK                            x       y       z     vdW  Elec       q    Type
REMARK                         _______ _______ _______ _____ _____    ______ ____
ROOT
ATOM      1  C   UNL     1     -10.169  13.942  19.291  0.00  0.00    -0.038 C 
ATOM      2  C   UNL     1      -9.651  13.277  17.985  0.00  0.00    -0.012 C 
ATOM      3  C   UNL     1     -10.691  12.536  17.117  0.00  0.00    +0.115 C 
ATOM      4  C   UNL     1     -10.053  11.808  15.920  0.00  0.00    +0.082 C 
ATOM      5  C   UNL     1      -9.390  10.475  16.188  0.00  0.00    +0.311 C 
ATOM      6  O   UNL     1      -9.336   9.574  15.356  0.00  0.00    -0.251 OA
ATOM      7  O   UNL     1      -8.850  10.413  17.423  0.00  0.00    -0.461 OA
ATOM      8  C   UNL     1      -8.087   9.249  17.827  0.00  0.00    +0.110 C 
ATOM      9  C   UNL     1      -8.971   8.509  18.892  0.00  0.00    +0.020 C 
ATOM     10  C   UNL     1     -10.116   7.718  18.188  0.00  0.00    +0.068 C 
ATOM     11  C   UNL     1     -11.398   7.421  19.026  0.00  0.00    -0.008 C 
ATOM     12  C   UNL     1     -11.422   7.866  20.455  0.00  0.00    -0.077 C 
ATOM     13  C   UNL     1     -11.703   7.081  21.509  0.00  0.00    -0.003 C 
ATOM     14  C   UNL     1     -11.616   7.623  22.820  0.00  0.00    +0.220 A 
ATOM     15  N   UNL     1     -11.038   8.770  23.131  0.00  0.00    -0.205 NA
ATOM     16  C   UNL     1     -11.165   8.893  24.490  0.00  0.00    +0.164 A 
ATOM     17  C   UNL     1     -11.835   7.813  24.987  0.00  0.00    +0.125 A 
ATOM     18  O   UNL     1     -12.131   6.993  23.938  0.00  0.00    -0.443 OA
ATOM     19  C   UNL     1     -10.633  10.113  25.292  0.00  0.00    +0.250 A 
ATOM     20  N   UNL     1     -10.070  11.152  24.698  0.00  0.00    -0.203 NA
ATOM     21  C   UNL     1      -9.780  12.015  25.719  0.00  0.00    +0.164 A 
ATOM     22  C   UNL     1     -10.151  11.461  26.916  0.00  0.00    +0.125 A 
ATOM     23  O   UNL     1     -10.706  10.238  26.658  0.00  0.00    -0.442 OA
ATOM     24  C   UNL     1      -9.139  13.421  25.524  0.00  0.00    +0.249 A 
ATOM     25  N   UNL     1      -8.851  13.931  24.343  0.00  0.00    -0.210 NA
ATOM     26  C   UNL     1      -8.339  15.177  24.595  0.00  0.00    +0.109 A 
ATOM     27  C   UNL     1      -8.323  15.376  25.957  0.00  0.00    +0.118 A 
ATOM     28  O   UNL     1      -8.833  14.266  26.564  0.00  0.00    -0.442 OA
ATOM     29  C   UNL     1      -7.874  16.119  23.519  0.00  0.00    +0.108 C 
ATOM     30  C   UNL     1      -7.769  15.524  22.083  0.00  0.00    +0.014 C 
ATOM     31  C   UNL     1      -9.120  15.034  21.464  0.00  0.00    +0.061 C 
ATOM     32  C   UNL     1      -8.947  14.608  19.985  0.00  0.00    -0.024 C 
ATOM     33  H   UNL     1     -10.556  13.152  19.950  0.00  0.00    +0.030 HD
ATOM     34  H   UNL     1      -8.876  12.571  18.295  0.00  0.00    +0.030 HD
ATOM     35  H   UNL     1      -9.157  14.032  17.363  0.00  0.00    +0.030 HD
ATOM     36  H   UNL     1     -11.351  13.309  16.701  0.00  0.00    +0.074 HD
ATOM     37  H   UNL     1      -9.324  12.454  15.420  0.00  0.00    +0.041 HD
ATOM     38  H   UNL     1     -10.849  11.591  15.196  0.00  0.00    +0.041 HD
ATOM     39  H   UNL     1      -7.893   8.570  16.994  0.00  0.00    +0.074 HD
ATOM     40  H   UNL     1      -9.422   9.301  19.501  0.00  0.00    +0.036 HD
ATOM     41  H   UNL     1     -10.451   8.290  17.316  0.00  0.00    +0.060 HD
ATOM     42  H   UNL     1     -11.657   6.354  18.966  0.00  0.00    +0.033 HD
ATOM     43  H   UNL     1     -12.226   7.948  18.531  0.00  0.00    +0.033 HD
ATOM     44  H   UNL     1     -11.196   8.920  20.636  0.00  0.00    +0.057 HD
ATOM     45  H   UNL     1     -11.959   6.037  21.396  0.00  0.00    +0.067 HD
ATOM     46  H   UNL     1     -12.161   7.494  25.964  0.00  0.00    +0.105 HD
ATOM     47  H   UNL     1     -10.113  11.775  27.947  0.00  0.00    +0.105 HD
ATOM     48  H   UNL     1      -8.011  16.177  26.607  0.00  0.00    +0.105 HD
ATOM     49  H   UNL     1      -6.863  16.428  23.825  0.00  0.00    +0.067 HD
ATOM     50  H   UNL     1      -7.439  16.358  21.447  0.00  0.00    +0.035 HD
ATOM     51  H   UNL     1      -9.516  14.182  22.023  0.00  0.00    +0.060 HD
ATOM     52  H   UNL     1      -8.123  13.891  19.925  0.00  0.00    +0.029 HD
ATOM     53  H   UNL     1      -8.651  15.491  19.402  0.00  0.00    +0.029 HD
ENDROOT
BRANCH   1  54
ATOM     54  C   UNL     1     -11.299  14.934  19.012  0.00  0.00    -0.062 C 
ATOM     55  H   UNL     1     -11.070  15.923  19.424  0.00  0.00    +0.023 HD
ATOM     56  H   UNL     1     -12.240  14.589  19.443  0.00  0.00    +0.023 HD
ATOM     57  H   UNL     1     -11.485  15.047  17.939  0.00  0.00    +0.023 HD
ENDBRANCH   1  54
BRANCH  30  58
ATOM     58  C   UNL     1      -6.663  14.462  22.035  0.00  0.00    -0.057 C 
ATOM     59  H   UNL     1      -5.850  14.750  21.355  0.00  0.00    +0.023 HD
ATOM     60  H   UNL     1      -6.201  14.332  23.022  0.00  0.00    +0.023 HD
ATOM     61  H   UNL     1      -7.046  13.488  21.705  0.00  0.00    +0.023 HD
ENDBRANCH  30  58
BRANCH   9  62
ATOM     62  C   UNL     1      -8.149   7.597  19.813  0.00  0.00    -0.057 C 
ATOM     63  H   UNL     1      -7.466   8.187  20.436  0.00  0.00    +0.023 HD
ATOM     64  H   UNL     1      -7.554   6.875  19.240  0.00  0.00    +0.023 HD
ATOM     65  H   UNL     1      -8.785   7.027  20.498  0.00  0.00    +0.023 HD
ENDBRANCH   9  62
BRANCH   8  66
ATOM     66  C   UNL     1      -6.755   9.780  18.398  0.00  0.00    +0.011 C 
ATOM     67  H   UNL     1      -6.037   8.962  18.520  0.00  0.00    +0.033 HD
ATOM     68  H   UNL     1      -6.974  10.164  19.405  0.00  0.00    +0.033 HD
BRANCH  66  69
ATOM     69  C   UNL     1      -6.016  10.922  17.652  0.00  0.00    +0.064 C 
ATOM     70  H   UNL     1      -6.657  11.121  16.781  0.00  0.00    +0.060 HD
BRANCH  69  71
ATOM     71  C   UNL     1      -5.910  12.263  18.436  0.00  0.00    -0.017 C 
ATOM     72  H   UNL     1      -6.572  12.197  19.310  0.00  0.00    +0.032 HD
BRANCH  71  73
ATOM     73  C   UNL     1      -4.492  12.588  18.920  0.00  0.00    -0.060 C 
ATOM     74  H   UNL     1      -4.233  13.627  18.708  0.00  0.00    +0.023 HD
ATOM     75  H   UNL     1      -3.739  11.954  18.462  0.00  0.00    +0.023 HD
ATOM     76  H   UNL     1      -4.413  12.436  20.001  0.00  0.00    +0.023 HD
ENDBRANCH  71  73
BRANCH  71  77
ATOM     77  C   UNL     1      -6.427  13.415  17.523  0.00  0.00    -0.041 C 
ATOM     78  H   UNL     1      -7.222  13.966  18.047  0.00  0.00    +0.027 HD
ATOM     79  H   UNL     1      -6.892  12.979  16.632  0.00  0.00    +0.027 HD
BRANCH  77  80
ATOM     80  C   UNL     1      -5.368  14.421  17.059  0.00  0.00    +0.007 C 
ATOM     81  H   UNL     1      -4.541  14.455  17.768  0.00  0.00    +0.034 HD
ATOM     82  H   UNL     1      -4.970  14.074  16.100  0.00  0.00    +0.034 HD
BRANCH  80  83
ATOM     83  C   UNL     1      -5.925  15.818  16.824  0.00  0.00    +0.139 C 
ATOM     84  O   UNL     1      -5.813  16.383  15.730  0.00  0.00    -0.297 OA
BRANCH  83  85
ATOM     85  C   UNL     1      -6.615  16.549  17.979  0.00  0.00    +0.041 C 
ATOM     86  H   UNL     1      -6.977  15.770  18.661  0.00  0.00    +0.040 HD
BRANCH  85  87
ATOM     87  C   UNL     1      -7.864  17.291  17.496  0.00  0.00    -0.053 C 
ATOM     88  H   UNL     1      -7.896  17.317  16.402  0.00  0.00    +0.024 HD
ATOM     89  H   UNL     1      -8.769  16.788  17.849  0.00  0.00    +0.024 HD
ATOM     90  H   UNL     1      -7.896  18.328  17.848  0.00  0.00    +0.024 HD
ENDBRANCH  85  87
BRANCH  85  91
ATOM     91  C   UNL     1      -5.642  17.465  18.758  0.00  0.00    +0.074 C 
ATOM     92  H   UNL     1      -6.253  18.152  19.363  0.00  0.00    +0.061 HD
BRANCH  91  93
ATOM     93  C   UNL     1      -4.674  16.697  19.706  0.00  0.00    +0.003 C 
ATOM     94  H   UNL     1      -5.032  15.665  19.812  0.00  0.00    +0.037 HD
BRANCH  93  95
ATOM     95  C   UNL     1      -4.587  17.325  21.102  0.00  0.00    -0.057 C 
ATOM     96  H   UNL     1      -4.262  18.370  21.047  0.00  0.00    +0.024 HD
ATOM     97  H   UNL     1      -5.549  17.299  21.618  0.00  0.00    +0.024 HD
ATOM     98  H   UNL     1      -3.873  16.782  21.731  0.00  0.00    +0.024 HD
ENDBRANCH  93  95
BRANCH  93  99
ATOM     99  C   UNL     1      -3.267  16.650  19.131  0.00  0.00    -0.065 C 
ATOM    100  C   UNL     1      -2.440  15.608  19.318  0.00  0.00    -0.005 C 
ATOM    101  H   UNL     1      -2.962  17.526  18.568  0.00  0.00    +0.059 HD
ATOM    102  H   UNL     1      -2.799  14.760  19.904  0.00  0.00    +0.078 HD
BRANCH 100 103
ATOM    103  N   UNL     1      -1.140  15.473  18.860  0.00  0.00    -0.284 N 
ATOM    104  C   UNL     1      -0.766  15.090  17.579  0.00  0.00    +0.206 C 
ATOM    105  O   UNL     1       0.373  15.084  17.138  0.00  0.00    -0.279 OA
ATOM    106  H   UNL     1      -1.612  14.780  16.948  0.00  0.00    +0.126 HD
BRANCH 103 107
ATOM    107  C   UNL     1      -0.073  15.868  19.772  0.00  0.00    +0.007 C 
ATOM    108  H   UNL     1       0.664  15.069  19.906  0.00  0.00    +0.043 HD
ATOM    109  H   UNL     1      -0.487  16.122  20.754  0.00  0.00    +0.043 HD
ATOM    110  H   UNL     1       0.429  16.740  19.344  0.00  0.00    +0.043 HD
ENDBRANCH 103 107
ENDBRANCH 100 103
ENDBRANCH  93  99
ENDBRANCH  91  93
BRANCH  91 111
ATOM    111  O   UNL     1      -4.872  18.214  17.799  0.00  0.00    -0.379 OA
BRANCH 111 112
ATOM    112  C   UNL     1      -5.044  19.622  17.914  0.00  0.00    +0.037 C 
ATOM    113  H   UNL     1      -4.150  20.108  17.521  0.00  0.00    +0.052 HD
ATOM    114  H   UNL     1      -5.907  19.946  17.325  0.00  0.00    +0.052 HD
ATOM    115  H   UNL     1      -5.172  19.917  18.959  0.00  0.00    +0.052 HD
ENDBRANCH 111 112
ENDBRANCH  91 111
ENDBRANCH  85  91
ENDBRANCH  83  85
ENDBRANCH  80  83
ENDBRANCH  77  80
ENDBRANCH  71  77
ENDBRANCH  69  71
BRANCH  69 116
ATOM    116  O   UNL     1      -4.723  10.513  17.206  0.00  0.00    -0.379 OA
BRANCH 116 117
ATOM    117  C   UNL     1      -4.778   9.655  16.070  0.00  0.00    +0.037 C 
ATOM    118  H   UNL     1      -4.877   8.625  16.420  0.00  0.00    +0.052 HD
ATOM    119  H   UNL     1      -3.856   9.736  15.487  0.00  0.00    +0.052 HD
ATOM    120  H   UNL     1      -5.642   9.897  15.442  0.00  0.00    +0.052 HD
ENDBRANCH 116 117
ENDBRANCH  69 116
ENDBRANCH  66  69
ENDBRANCH   8  66
BRANCH  31 121
ATOM    121  O   UNL     1     -10.106  16.069  21.509  0.00  0.00    -0.391 OA
ATOM    122  H   UNL     1     -10.316  16.348  20.590  0.00  0.00    +0.210 HD
ENDBRANCH  31 121
BRANCH  29 123
ATOM    123  O   UNL     1      -8.724  17.283  23.507  0.00  0.00    -0.373 OA
BRANCH 123 124
ATOM    124  C   UNL     1      -8.003  18.479  23.212  0.00  0.00    +0.037 C 
ATOM    125  H   UNL     1      -7.080  18.515  23.793  0.00  0.00    +0.052 HD
ATOM    126  H   UNL     1      -8.623  19.332  23.497  0.00  0.00    +0.052 HD
ATOM    127  H   UNL     1      -7.784  18.547  22.145  0.00  0.00    +0.052 HD
ENDBRANCH 123 124
ENDBRANCH  29 123
BRANCH  10 128
ATOM    128  O   UNL     1      -9.561   6.474  17.708  0.00  0.00    -0.379 OA
BRANCH 128 129
ATOM    129  C   UNL     1     -10.480   5.389  17.774  0.00  0.00    +0.037 C 
ATOM    130  H   UNL     1     -10.332   4.712  16.929  0.00  0.00    +0.052 HD
ATOM    131  H   UNL     1     -11.512   5.743  17.799  0.00  0.00    +0.052 HD
ATOM    132  H   UNL     1     -10.286   4.842  18.697  0.00  0.00    +0.052 HD
ENDBRANCH 128 129
ENDBRANCH  10 128
BRANCH   3 133
ATOM    133  O   UNL     1     -11.473  11.646  17.936  0.00  0.00    -0.447 OA
BRANCH 133 134
ATOM    134  C   UNL     1     -12.772  11.512  17.592  0.00  0.00    +0.398 C 
ATOM    135  O   UNL     1     -13.596  12.413  17.519  0.00  0.00    -0.227 OA
ATOM    136  N   UNL     1     -13.063  10.218  17.351  0.00  0.00    -0.295 N 
ATOM    137  H   UNL     1     -14.012   9.958  17.146  0.00  0.00    +0.148 HD
ATOM    138  H   UNL     1     -12.374   9.502  17.547  0.00  0.00    +0.148 HD
ENDBRANCH 133 134
ENDBRANCH   3 133
TORSDOF 29
ENDMDL
MODEL 5
REMARK VINA RESULT:      -5.4      6.078     12.832
REMARK  Name = Kabiramide C_conf3
REMARK  29 active torsions:
REMARK  status: ('A' for Active; 'I' for Inactive)
REMARK    1  A    between atoms: C_1  and  C_2
REMARK    2  A    between atoms: C_4  and  O_64
REMARK    3  A    between atoms: C_9  and  C_41
REMARK    4  A    between atoms: C_10  and  C_40
REMARK    5  A    between atoms: C_11  and  O_38
REMARK    6  A    between atoms: C_30  and  O_36
REMARK    7  A    between atoms: C_31  and  C_35
REMARK    8  A    between atoms: C_32  and  O_34
REMARK    9  A    between atoms: O_36  and  C_37
REMARK   10  A    between atoms: O_38  and  C_39
REMARK   11  A    between atoms: C_41  and  C_42
REMARK   12  A    between atoms: C_42  and  C_43
REMARK   13  A    between atoms: C_42  and  O_62
REMARK   14  A    between atoms: C_43  and  C_44
REMARK   15  A    between atoms: C_43  and  C_45
REMARK   16  A    between atoms: C_45  and  C_46
REMARK   17  A    between atoms: C_46  and  C_47
REMARK   18  A    between atoms: C_47  and  C_49
REMARK   19  A    between atoms: C_49  and  C_50
REMARK   20  A    between atoms: C_49  and  C_51
REMARK   21  A    between atoms: C_51  and  C_52
REMARK   22  A    between atoms: C_51  and  O_60
REMARK   23  A    between atoms: C_52  and  C_53
REMARK   24  A    between atoms: C_52  and  C_54
REMARK   25  A    between atoms: C_55  and  N_56
REMARK   26  A    between atoms: N_56  and  C_57
REMARK   27  A    between atoms: O_60  and  C_61
REMARK   28  A    between atoms: O_62  and  C_63
REMARK   29  A    between atoms: O_64  and  C_65
REMARK                            x       y       z     vdW  Elec       q    Type
REMARK                         _______ _______ _______ _____ _____    ______ ____
ROOT
ATOM      1  C   UNL     1     -11.499   1.265  12.328  0.00  0.00    -0.038 C 
ATOM      2  C   UNL     1     -12.322   1.512  13.623  0.00  0.00    -0.012 C 
ATOM      3  C   UNL     1     -13.746   2.084  13.448  0.00  0.00    +0.115 C 
ATOM      4  C   UNL     1     -14.423   2.410  14.792  0.00  0.00    +0.082 C 
ATOM      5  C   UNL     1     -14.033   3.703  15.473  0.00  0.00    +0.311 C 
ATOM      6  O   UNL     1     -14.800   4.343  16.186  0.00  0.00    -0.251 OA
ATOM      7  O   UNL     1     -12.751   4.044  15.226  0.00  0.00    -0.461 OA
ATOM      8  C   UNL     1     -12.167   5.203  15.871  0.00  0.00    +0.110 C 
ATOM      9  C   UNL     1     -11.980   6.272  14.738  0.00  0.00    +0.020 C 
ATOM     10  C   UNL     1     -13.345   6.944  14.399  0.00  0.00    +0.068 C 
ATOM     11  C   UNL     1     -13.503   7.563  12.976  0.00  0.00    -0.008 C 
ATOM     12  C   UNL     1     -12.324   7.517  12.055  0.00  0.00    -0.077 C 
ATOM     13  C   UNL     1     -11.792   8.575  11.420  0.00  0.00    -0.003 C 
ATOM     14  C   UNL     1     -10.622   8.395  10.632  0.00  0.00    +0.220 A 
ATOM     15  N   UNL     1      -9.846   7.325  10.658  0.00  0.00    -0.205 NA
ATOM     16  C   UNL     1      -8.835   7.579   9.767  0.00  0.00    +0.164 A 
ATOM     17  C   UNL     1      -9.021   8.806   9.201  0.00  0.00    +0.125 A 
ATOM     18  O   UNL     1     -10.156   9.341   9.738  0.00  0.00    -0.443 OA
ATOM     19  C   UNL     1      -7.689   6.574   9.466  0.00  0.00    +0.250 A 
ATOM     20  N   UNL     1      -7.650   5.370  10.012  0.00  0.00    -0.203 NA
ATOM     21  C   UNL     1      -6.535   4.786   9.475  0.00  0.00    +0.164 A 
ATOM     22  C   UNL     1      -5.907   5.668   8.635  0.00  0.00    +0.125 A 
ATOM     23  O   UNL     1      -6.640   6.822   8.615  0.00  0.00    -0.442 OA
ATOM     24  C   UNL     1      -6.075   3.329   9.776  0.00  0.00    +0.249 A 
ATOM     25  N   UNL     1      -6.748   2.501  10.552  0.00  0.00    -0.210 NA
ATOM     26  C   UNL     1      -6.041   1.327  10.536  0.00  0.00    +0.109 A 
ATOM     27  C   UNL     1      -4.930   1.496   9.741  0.00  0.00    +0.118 A 
ATOM     28  O   UNL     1      -4.939   2.767   9.247  0.00  0.00    -0.442 OA
ATOM     29  C   UNL     1      -6.454   0.097  11.296  0.00  0.00    +0.108 C 
ATOM     30  C   UNL     1      -7.615   0.277  12.318  0.00  0.00    +0.014 C 
ATOM     31  C   UNL     1      -8.989   0.702  11.699  0.00  0.00    +0.061 C 
ATOM     32  C   UNL     1     -10.115   0.703  12.762  0.00  0.00    -0.024 C 
ATOM     33  H   UNL     1     -11.342   2.232  11.830  0.00  0.00    +0.030 HD
ATOM     34  H   UNL     1     -11.731   2.205  14.227  0.00  0.00    +0.030 HD
ATOM     35  H   UNL     1     -12.392   0.580  14.194  0.00  0.00    +0.030 HD
ATOM     36  H   UNL     1     -14.342   1.288  12.980  0.00  0.00    +0.074 HD
ATOM     37  H   UNL     1     -14.274   1.593  15.507  0.00  0.00    +0.041 HD
ATOM     38  H   UNL     1     -15.502   2.495  14.612  0.00  0.00    +0.041 HD
ATOM     39  H   UNL     1     -12.815   5.616  16.646  0.00  0.00    +0.074 HD
ATOM     40  H   UNL     1     -11.643   5.712  13.858  0.00  0.00    +0.036 HD
ATOM     41  H   UNL     1     -14.137   6.193  14.492  0.00  0.00    +0.060 HD
ATOM     42  H   UNL     1     -13.879   8.594  13.045  0.00  0.00    +0.033 HD
ATOM     43  H   UNL     1     -14.300   6.998  12.474  0.00  0.00    +0.033 HD
ATOM     44  H   UNL     1     -11.874   6.533  11.895  0.00  0.00    +0.057 HD
ATOM     45  H   UNL     1     -12.203   9.569  11.516  0.00  0.00    +0.067 HD
ATOM     46  H   UNL     1      -8.502   9.400   8.466  0.00  0.00    +0.105 HD
ATOM     47  H   UNL     1      -5.024   5.637   8.017  0.00  0.00    +0.105 HD
ATOM     48  H   UNL     1      -4.102   0.871   9.444  0.00  0.00    +0.105 HD
ATOM     49  H   UNL     1      -5.559  -0.207  11.860  0.00  0.00    +0.067 HD
ATOM     50  H   UNL     1      -7.782  -0.720  12.749  0.00  0.00    +0.035 HD
ATOM     51  H   UNL     1      -8.925   1.702  11.264  0.00  0.00    +0.060 HD
ATOM     52  H   UNL     1      -9.786   1.304  13.615  0.00  0.00    +0.029 HD
ATOM     53  H   UNL     1     -10.252  -0.325  13.125  0.00  0.00    +0.029 HD
ENDROOT
BRANCH   1  54
ATOM     54  C   UNL     1     -12.232   0.336  11.359  0.00  0.00    -0.062 C 
ATOM     55  H   UNL     1     -13.059   0.853  10.861  0.00  0.00    +0.023 HD
ATOM     56  H   UNL     1     -12.631  -0.537  11.877  0.00  0.00    +0.023 HD
ATOM     57  H   UNL     1     -11.560  -0.056  10.587  0.00  0.00    +0.023 HD
ENDBRANCH   1  54
BRANCH  30  58
ATOM     58  C   UNL     1      -7.164   1.189  13.468  0.00  0.00    -0.057 C 
ATOM     59  H   UNL     1      -8.015   1.694  13.944  0.00  0.00    +0.023 HD
ATOM     60  H   UNL     1      -6.674   0.608  14.259  0.00  0.00    +0.023 HD
ATOM     61  H   UNL     1      -6.464   1.962  13.126  0.00  0.00    +0.023 HD
ENDBRANCH  30  58
BRANCH   9  62
ATOM     62  C   UNL     1     -10.914   7.320  15.085  0.00  0.00    -0.057 C 
ATOM     63  H   UNL     1     -10.619   7.242  16.137  0.00  0.00    +0.023 HD
ATOM     64  H   UNL     1     -11.276   8.340  14.904  0.00  0.00    +0.023 HD
ATOM     65  H   UNL     1     -10.002   7.187  14.494  0.00  0.00    +0.023 HD
ENDBRANCH   9  62
BRANCH   8  66
ATOM     66  C   UNL     1     -10.836   4.728  16.492  0.00  0.00    +0.011 C 
ATOM     67  H   UNL     1     -10.986   4.426  17.534  0.00  0.00    +0.033 HD
ATOM     68  H   UNL     1     -10.166   5.600  16.507  0.00  0.00    +0.033 HD
BRANCH  66  69
ATOM     69  C   UNL     1     -10.045   3.587  15.802  0.00  0.00    +0.064 C 
ATOM     70  H   UNL     1     -10.634   3.371  14.898  0.00  0.00    +0.060 HD
BRANCH  69  71
ATOM     71  C   UNL     1      -8.617   3.973  15.314  0.00  0.00    -0.017 C 
ATOM     72  H   UNL     1      -8.070   3.045  15.102  0.00  0.00    +0.032 HD
BRANCH  71  73
ATOM     73  C   UNL     1      -8.607   4.845  14.053  0.00  0.00    -0.060 C 
ATOM     74  H   UNL     1      -8.051   5.769  14.219  0.00  0.00    +0.023 HD
ATOM     75  H   UNL     1      -9.607   5.109  13.720  0.00  0.00    +0.023 HD
ATOM     76  H   UNL     1      -8.133   4.311  13.223  0.00  0.00    +0.023 HD
ENDBRANCH  71  73
BRANCH  71  77
ATOM     77  C   UNL     1      -7.881   4.717  16.469  0.00  0.00    -0.041 C 
ATOM     78  H   UNL     1      -6.938   4.199  16.692  0.00  0.00    +0.027 HD
ATOM     79  H   UNL     1      -8.490   4.651  17.377  0.00  0.00    +0.027 HD
BRANCH  77  80
ATOM     80  C   UNL     1      -7.571   6.196  16.215  0.00  0.00    +0.007 C 
ATOM     81  H   UNL     1      -6.545   6.314  15.866  0.00  0.00    +0.034 HD
ATOM     82  H   UNL     1      -8.236   6.549  15.420  0.00  0.00    +0.034 HD
BRANCH  80  83
ATOM     83  C   UNL     1      -7.825   7.082  17.426  0.00  0.00    +0.139 C 
ATOM     84  O   UNL     1      -8.890   7.031  18.052  0.00  0.00    -0.297 OA
BRANCH  83  85
ATOM     85  C   UNL     1      -6.745   8.077  17.862  0.00  0.00    +0.041 C 
ATOM     86  H   UNL     1      -5.815   7.748  17.382  0.00  0.00    +0.040 HD
BRANCH  85  87
ATOM     87  C   UNL     1      -6.488   7.989  19.368  0.00  0.00    -0.053 C 
ATOM     88  H   UNL     1      -7.347   7.542  19.879  0.00  0.00    +0.024 HD
ATOM     89  H   UNL     1      -5.612   7.366  19.571  0.00  0.00    +0.024 HD
ATOM     90  H   UNL     1      -6.314   8.972  19.820  0.00  0.00    +0.024 HD
ENDBRANCH  85  87
BRANCH  85  91
ATOM     91  C   UNL     1      -7.053   9.518  17.393  0.00  0.00    +0.074 C 
ATOM     92  H   UNL     1      -7.452  10.066  18.260  0.00  0.00    +0.061 HD
BRANCH  91  93
ATOM     93  C   UNL     1      -5.810  10.286  16.853  0.00  0.00    +0.003 C 
ATOM     94  H   UNL     1      -6.149  11.035  16.126  0.00  0.00    +0.037 HD
BRANCH  93  95
ATOM     95  C   UNL     1      -4.797   9.365  16.162  0.00  0.00    -0.057 C 
ATOM     96  H   UNL     1      -3.769   9.657  16.402  0.00  0.00    +0.024 HD
ATOM     97  H   UNL     1      -4.929   8.323  16.457  0.00  0.00    +0.024 HD
ATOM     98  H   UNL     1      -4.913   9.405  15.073  0.00  0.00    +0.024 HD
ENDBRANCH  93  95
BRANCH  93  99
ATOM     99  C   UNL     1      -5.085  11.013  17.975  0.00  0.00    -0.065 C 
ATOM    100  C   UNL     1      -4.942  12.347  18.003  0.00  0.00    -0.005 C 
ATOM    101  H   UNL     1      -4.672  10.378  18.752  0.00  0.00    +0.059 HD
ATOM    102  H   UNL     1      -5.370  12.932  17.186  0.00  0.00    +0.078 HD
BRANCH 100 103
ATOM    103  N   UNL     1      -4.286  13.104  18.960  0.00  0.00    -0.284 N 
ATOM    104  C   UNL     1      -4.484  13.025  20.332  0.00  0.00    +0.206 C 
ATOM    105  O   UNL     1      -3.825  13.603  21.184  0.00  0.00    -0.279 OA
ATOM    106  H   UNL     1      -5.315  12.366  20.620  0.00  0.00    +0.126 HD
BRANCH 103 107
ATOM    107  C   UNL     1      -3.222  13.984  18.493  0.00  0.00    +0.007 C 
ATOM    108  H   UNL     1      -2.260  13.742  18.958  0.00  0.00    +0.043 HD
ATOM    109  H   UNL     1      -3.462  15.027  18.725  0.00  0.00    +0.043 HD
ATOM    110  H   UNL     1      -3.130  13.855  17.410  0.00  0.00    +0.043 HD
ENDBRANCH 103 107
ENDBRANCH 100 103
ENDBRANCH  93  99
ENDBRANCH  91  93
BRANCH  91 111
ATOM    111  O   UNL     1      -8.052   9.447  16.359  0.00  0.00    -0.379 OA
BRANCH 111 112
ATOM    112  C   UNL     1      -9.020  10.487  16.439  0.00  0.00    +0.037 C 
ATOM    113  H   UNL     1      -9.432  10.492  17.448  0.00  0.00    +0.052 HD
ATOM    114  H   UNL     1      -8.551  11.456  16.246  0.00  0.00    +0.052 HD
ATOM    115  H   UNL     1      -9.835  10.318  15.730  0.00  0.00    +0.052 HD
ENDBRANCH 111 112
ENDBRANCH  91 111
ENDBRANCH  85  91
ENDBRANCH  83  85
ENDBRANCH  80  83
ENDBRANCH  77  80
ENDBRANCH  71  77
ENDBRANCH  69  71
BRANCH  69 116
ATOM    116  O   UNL     1      -9.983   2.416  16.617  0.00  0.00    -0.379 OA
BRANCH 116 117
ATOM    117  C   UNL     1     -10.760   2.530  17.805  0.00  0.00    +0.037 C 
ATOM    118  H   UNL     1     -10.218   3.162  18.513  0.00  0.00    +0.052 HD
ATOM    119  H   UNL     1     -10.905   1.546  18.260  0.00  0.00    +0.052 HD
ATOM    120  H   UNL     1     -11.729   2.993  17.592  0.00  0.00    +0.052 HD
ENDBRANCH 116 117
ENDBRANCH  69 116
ENDBRANCH  66  69
ENDBRANCH   8  66
BRANCH  31 121
ATOM    121  O   UNL     1      -9.374  -0.194  10.654  0.00  0.00    -0.391 OA
ATOM    122  H   UNL     1     -10.352  -0.166  10.555  0.00  0.00    +0.210 HD
ENDBRANCH  31 121
BRANCH  29 123
ATOM    123  O   UNL     1      -6.782  -0.950  10.361  0.00  0.00    -0.373 OA
BRANCH 123 124
ATOM    124  C   UNL     1      -6.352  -2.235  10.811  0.00  0.00    +0.037 C 
ATOM    125  H   UNL     1      -6.244  -2.914   9.965  0.00  0.00    +0.052 HD
ATOM    126  H   UNL     1      -7.116  -2.637  11.482  0.00  0.00    +0.052 HD
ATOM    127  H   UNL     1      -5.411  -2.158  11.360  0.00  0.00    +0.052 HD
ENDBRANCH 123 124
ENDBRANCH  29 123
BRANCH  10 128
ATOM    128  O   UNL     1     -13.593   7.963  15.393  0.00  0.00    -0.379 OA
BRANCH 128 129
ATOM    129  C   UNL     1     -14.899   7.892  15.954  0.00  0.00    +0.037 C 
ATOM    130  H   UNL     1     -15.544   8.661  15.521  0.00  0.00    +0.052 HD
ATOM    131  H   UNL     1     -14.870   7.991  17.041  0.00  0.00    +0.052 HD
ATOM    132  H   UNL     1     -15.313   6.913  15.715  0.00  0.00    +0.052 HD
ENDBRANCH 128 129
ENDBRANCH  10 128
BRANCH   3 133
ATOM    133  O   UNL     1     -13.716   3.223  12.569  0.00  0.00    -0.447 OA
BRANCH 133 134
ATOM    134  C   UNL     1     -14.783   3.371  11.754  0.00  0.00    +0.398 C 
ATOM    135  O   UNL     1     -15.180   2.560  10.930  0.00  0.00    -0.227 OA
ATOM    136  N   UNL     1     -15.362   4.573  11.953  0.00  0.00    -0.295 N 
ATOM    137  H   UNL     1     -16.133   4.849  11.370  0.00  0.00    +0.148 HD
ATOM    138  H   UNL     1     -14.918   5.252  12.559  0.00  0.00    +0.148 HD
ENDBRANCH 133 134
ENDBRANCH   3 133
TORSDOF 29
ENDMDL
MODEL 6
REMARK VINA RESULT:      -5.4      2.874      9.113
REMARK  Name = Kabiramide C_conf3
REMARK  29 active torsions:
REMARK  status: ('A' for Active; 'I' for Inactive)
REMARK    1  A    between atoms: C_1  and  C_2
REMARK    2  A    between atoms: C_4  and  O_64
REMARK    3  A    between atoms: C_9  and  C_41
REMARK    4  A    between atoms: C_10  and  C_40
REMARK    5  A    between atoms: C_11  and  O_38
REMARK    6  A    between atoms: C_30  and  O_36
REMARK    7  A    between atoms: C_31  and  C_35
REMARK    8  A    between atoms: C_32  and  O_34
REMARK    9  A    between atoms: O_36  and  C_37
REMARK   10  A    between atoms: O_38  and  C_39
REMARK   11  A    between atoms: C_41  and  C_42
REMARK   12  A    between atoms: C_42  and  C_43
REMARK   13  A    between atoms: C_42  and  O_62
REMARK   14  A    between atoms: C_43  and  C_44
REMARK   15  A    between atoms: C_43  and  C_45
REMARK   16  A    between atoms: C_45  and  C_46
REMARK   17  A    between atoms: C_46  and  C_47
REMARK   18  A    between atoms: C_47  and  C_49
REMARK   19  A    between atoms: C_49  and  C_50
REMARK   20  A    between atoms: C_49  and  C_51
REMARK   21  A    between atoms: C_51  and  C_52
REMARK   22  A    between atoms: C_51  and  O_60
REMARK   23  A    between atoms: C_52  and  C_53
REMARK   24  A    between atoms: C_52  and  C_54
REMARK   25  A    between atoms: C_55  and  N_56
REMARK   26  A    between atoms: N_56  and  C_57
REMARK   27  A    between atoms: O_60  and  C_61
REMARK   28  A    between atoms: O_62  and  C_63
REMARK   29  A    between atoms: O_64  and  C_65
REMARK                            x       y       z     vdW  Elec       q    Type
REMARK                         _______ _______ _______ _____ _____    ______ ____
ROOT
ATOM      1  C   UNL     1      -9.370  17.091  19.047  0.00  0.00    -0.038 C 
ATOM      2  C   UNL     1      -8.156  17.890  19.600  0.00  0.00    -0.012 C 
ATOM      3  C   UNL     1      -7.007  18.187  18.612  0.00  0.00    +0.115 C 
ATOM      4  C   UNL     1      -5.804  18.869  19.291  0.00  0.00    +0.082 C 
ATOM      5  C   UNL     1      -4.852  17.987  20.068  0.00  0.00    +0.311 C 
ATOM      6  O   UNL     1      -3.655  18.234  20.185  0.00  0.00    -0.251 OA
ATOM      7  O   UNL     1      -5.477  16.932  20.631  0.00  0.00    -0.461 OA
ATOM      8  C   UNL     1      -4.745  16.027  21.495  0.00  0.00    +0.110 C 
ATOM      9  C   UNL     1      -4.614  14.685  20.693  0.00  0.00    +0.020 C 
ATOM     10  C   UNL     1      -3.501  14.811  19.608  0.00  0.00    +0.068 C 
ATOM     11  C   UNL     1      -3.602  13.868  18.368  0.00  0.00    -0.008 C 
ATOM     12  C   UNL     1      -4.724  12.878  18.329  0.00  0.00    -0.077 C 
ATOM     13  C   UNL     1      -4.587  11.556  18.132  0.00  0.00    -0.003 C 
ATOM     14  C   UNL     1      -5.737  10.722  18.193  0.00  0.00    +0.220 A 
ATOM     15  N   UNL     1      -6.913  11.084  18.677  0.00  0.00    -0.205 NA
ATOM     16  C   UNL     1      -7.717   9.981  18.561  0.00  0.00    +0.164 A 
ATOM     17  C   UNL     1      -7.014   8.959  17.993  0.00  0.00    +0.125 A 
ATOM     18  O   UNL     1      -5.750   9.413  17.750  0.00  0.00    -0.443 OA
ATOM     19  C   UNL     1      -9.207   9.959  19.000  0.00  0.00    +0.250 A 
ATOM     20  N   UNL     1      -9.818  11.037  19.465  0.00  0.00    -0.203 NA
ATOM     21  C   UNL     1     -11.103  10.629  19.696  0.00  0.00    +0.164 A 
ATOM     22  C   UNL     1     -11.231   9.299  19.392  0.00  0.00    +0.125 A 
ATOM     23  O   UNL     1     -10.021   8.854  18.939  0.00  0.00    -0.442 OA
ATOM     24  C   UNL     1     -12.239  11.560  20.214  0.00  0.00    +0.249 A 
ATOM     25  N   UNL     1     -12.076  12.849  20.439  0.00  0.00    -0.210 NA
ATOM     26  C   UNL     1     -13.301  13.309  20.849  0.00  0.00    +0.109 A 
ATOM     27  C   UNL     1     -14.181  12.250  20.869  0.00  0.00    +0.118 A 
ATOM     28  O   UNL     1     -13.520  11.128  20.464  0.00  0.00    -0.442 OA
ATOM     29  C   UNL     1     -13.572  14.741  21.216  0.00  0.00    +0.108 C 
ATOM     30  C   UNL     1     -12.325  15.665  21.349  0.00  0.00    +0.014 C 
ATOM     31  C   UNL     1     -11.498  15.862  20.034  0.00  0.00    +0.061 C 
ATOM     32  C   UNL     1     -10.377  16.913  20.219  0.00  0.00    -0.024 C 
ATOM     33  H   UNL     1      -9.016  16.097  18.739  0.00  0.00    +0.030 HD
ATOM     34  H   UNL     1      -7.766  17.304  20.436  0.00  0.00    +0.030 HD
ATOM     35  H   UNL     1      -8.506  18.840  20.019  0.00  0.00    +0.030 HD
ATOM     36  H   UNL     1      -7.406  18.906  17.883  0.00  0.00    +0.074 HD
ATOM     37  H   UNL     1      -6.140  19.672  19.955  0.00  0.00    +0.041 HD
ATOM     38  H   UNL     1      -5.192  19.329  18.505  0.00  0.00    +0.041 HD
ATOM     39  H   UNL     1      -3.746  16.398  21.733  0.00  0.00    +0.074 HD
ATOM     40  H   UNL     1      -5.576  14.550  20.186  0.00  0.00    +0.036 HD
ATOM     41  H   UNL     1      -3.511  15.832  19.213  0.00  0.00    +0.060 HD
ATOM     42  H   UNL     1      -2.646  13.352  18.199  0.00  0.00    +0.033 HD
ATOM     43  H   UNL     1      -3.740  14.516  17.492  0.00  0.00    +0.033 HD
ATOM     44  H   UNL     1      -5.730  13.282  18.468  0.00  0.00    +0.057 HD
ATOM     45  H   UNL     1      -3.624  11.097  17.963  0.00  0.00    +0.067 HD
ATOM     46  H   UNL     1      -7.230   7.941  17.709  0.00  0.00    +0.105 HD
ATOM     47  H   UNL     1     -12.038   8.584  19.420  0.00  0.00    +0.105 HD
ATOM     48  H   UNL     1     -15.222  12.128  21.122  0.00  0.00    +0.105 HD
ATOM     49  H   UNL     1     -14.059  14.698  22.202  0.00  0.00    +0.067 HD
ATOM     50  H   UNL     1     -12.723  16.658  21.597  0.00  0.00    +0.035 HD
ATOM     51  H   UNL     1     -11.039  14.921  19.720  0.00  0.00    +0.060 HD
ATOM     52  H   UNL     1      -9.787  16.640  21.100  0.00  0.00    +0.029 HD
ATOM     53  H   UNL     1     -10.843  17.885  20.431  0.00  0.00    +0.029 HD
ENDROOT
BRANCH   1  54
ATOM     54  C   UNL     1      -9.997  17.778  17.834  0.00  0.00    -0.062 C 
ATOM     55  H   UNL     1      -9.245  18.324  17.253  0.00  0.00    +0.023 HD
ATOM     56  H   UNL     1     -10.776  18.480  18.138  0.00  0.00    +0.023 HD
ATOM     57  H   UNL     1     -10.486  17.059  17.168  0.00  0.00    +0.023 HD
ENDBRANCH   1  54
BRANCH  30  58
ATOM     58  C   UNL     1     -11.466  15.218  22.539  0.00  0.00    -0.057 C 
ATOM     59  H   UNL     1     -10.417  15.526  22.423  0.00  0.00    +0.023 HD
ATOM     60  H   UNL     1     -11.817  15.681  23.471  0.00  0.00    +0.023 HD
ATOM     61  H   UNL     1     -11.483  14.129  22.670  0.00  0.00    +0.023 HD
ENDBRANCH  30  58
BRANCH   9  62
ATOM     62  C   UNL     1      -4.370  13.474  21.603  0.00  0.00    -0.057 C 
ATOM     63  H   UNL     1      -3.329  13.447  21.944  0.00  0.00    +0.023 HD
ATOM     64  H   UNL     1      -4.587  12.530  21.088  0.00  0.00    +0.023 HD
ATOM     65  H   UNL     1      -4.993  13.507  22.503  0.00  0.00    +0.023 HD
ENDBRANCH   9  62
BRANCH   8  66
ATOM     66  C   UNL     1      -5.580  15.891  22.786  0.00  0.00    +0.011 C 
ATOM     67  H   UNL     1      -5.182  16.545  23.570  0.00  0.00    +0.033 HD
ATOM     68  H   UNL     1      -5.452  14.857  23.137  0.00  0.00    +0.033 HD
BRANCH  66  69
ATOM     69  C   UNL     1      -7.110  16.140  22.725  0.00  0.00    +0.064 C 
ATOM     70  H   UNL     1      -7.266  16.562  21.721  0.00  0.00    +0.060 HD
BRANCH  69  71
ATOM     71  C   UNL     1      -7.992  14.860  22.807  0.00  0.00    -0.017 C 
ATOM     72  H   UNL     1      -8.982  15.155  23.178  0.00  0.00    +0.032 HD
BRANCH  71  73
ATOM     73  C   UNL     1      -8.167  14.141  21.465  0.00  0.00    -0.060 C 
ATOM     74  H   UNL     1      -7.278  13.560  21.211  0.00  0.00    +0.023 HD
ATOM     75  H   UNL     1      -8.365  14.827  20.646  0.00  0.00    +0.023 HD
ATOM     76  H   UNL     1      -9.018  13.453  21.507  0.00  0.00    +0.023 HD
ENDBRANCH  71  73
BRANCH  71  77
ATOM     77  C   UNL     1      -7.357  13.884  23.844  0.00  0.00    -0.041 C 
ATOM     78  H   UNL     1      -6.357  14.246  24.119  0.00  0.00    +0.027 HD
ATOM     79  H   UNL     1      -7.211  12.908  23.367  0.00  0.00    +0.027 HD
BRANCH  77  80
ATOM     80  C   UNL     1      -8.163  13.665  25.129  0.00  0.00    +0.007 C 
ATOM     81  H   UNL     1      -7.542  13.193  25.890  0.00  0.00    +0.034 HD
ATOM     82  H   UNL     1      -8.467  14.645  25.508  0.00  0.00    +0.034 HD
BRANCH  80  83
ATOM     83  C   UNL     1      -9.438  12.863  24.911  0.00  0.00    +0.139 C 
ATOM     84  O   UNL     1      -9.484  11.927  24.105  0.00  0.00    -0.297 OA
BRANCH  83  85
ATOM     85  C   UNL     1     -10.701  13.244  25.691  0.00  0.00    +0.041 C 
ATOM     86  H   UNL     1     -11.536  13.142  24.988  0.00  0.00    +0.040 HD
BRANCH  85  87
ATOM     87  C   UNL     1     -10.676  14.720  26.096  0.00  0.00    -0.053 C 
ATOM     88  H   UNL     1     -10.971  14.837  27.143  0.00  0.00    +0.024 HD
ATOM     89  H   UNL     1      -9.668  15.132  25.980  0.00  0.00    +0.024 HD
ATOM     90  H   UNL     1     -11.359  15.329  25.494  0.00  0.00    +0.024 HD
ENDBRANCH  85  87
BRANCH  85  91
ATOM     91  C   UNL     1     -10.954  12.302  26.891  0.00  0.00    +0.074 C 
ATOM     92  H   UNL     1     -11.644  12.821  27.575  0.00  0.00    +0.061 HD
BRANCH  91  93
ATOM     93  C   UNL     1     -11.585  10.933  26.498  0.00  0.00    +0.003 C 
ATOM     94  H   UNL     1     -11.935  10.994  25.459  0.00  0.00    +0.037 HD
BRANCH  93  95
ATOM     95  C   UNL     1     -12.772  10.548  27.387  0.00  0.00    -0.057 C 
ATOM     96  H   UNL     1     -13.438  11.402  27.551  0.00  0.00    +0.024 HD
ATOM     97  H   UNL     1     -13.362   9.741  26.948  0.00  0.00    +0.024 HD
ATOM     98  H   UNL     1     -12.429  10.195  28.366  0.00  0.00    +0.024 HD
ENDBRANCH  93  95
BRANCH  93  99
ATOM     99  C   UNL     1     -10.559   9.813  26.583  0.00  0.00    -0.065 C 
ATOM    100  C   UNL     1     -10.457   8.849  25.654  0.00  0.00    -0.005 C 
ATOM    101  H   UNL     1      -9.919   9.832  27.458  0.00  0.00    +0.059 HD
ATOM    102  H   UNL     1     -11.138   8.877  24.801  0.00  0.00    +0.078 HD
BRANCH 100 103
ATOM    103  N   UNL     1      -9.579   7.778  25.646  0.00  0.00    -0.284 N 
ATOM    104  C   UNL     1      -8.528   7.583  26.532  0.00  0.00    +0.206 C 
ATOM    105  O   UNL     1      -7.827   6.585  26.602  0.00  0.00    -0.279 OA
ATOM    106  H   UNL     1      -8.360   8.433  27.208  0.00  0.00    +0.126 HD
BRANCH 103 107
ATOM    107  C   UNL     1      -9.847   6.710  24.690  0.00  0.00    +0.007 C 
ATOM    108  H   UNL     1      -9.221   5.831  24.876  0.00  0.00    +0.043 HD
ATOM    109  H   UNL     1      -9.656   7.057  23.668  0.00  0.00    +0.043 HD
ATOM    110  H   UNL     1     -10.897   6.421  24.794  0.00  0.00    +0.043 HD
ENDBRANCH 103 107
ENDBRANCH 100 103
ENDBRANCH  93  99
ENDBRANCH  91  93
BRANCH  91 111
ATOM    111  O   UNL     1      -9.696  12.072  27.551  0.00  0.00    -0.379 OA
BRANCH 111 112
ATOM    112  C   UNL     1      -9.692  12.480  28.915  0.00  0.00    +0.037 C 
ATOM    113  H   UNL     1      -8.775  13.041  29.099  0.00  0.00    +0.052 HD
ATOM    114  H   UNL     1     -10.547  13.130  29.118  0.00  0.00    +0.052 HD
ATOM    115  H   UNL     1      -9.712  11.614  29.582  0.00  0.00    +0.052 HD
ENDBRANCH 111 112
ENDBRANCH  91 111
ENDBRANCH  85  91
ENDBRANCH  83  85
ENDBRANCH  80  83
ENDBRANCH  77  80
ENDBRANCH  71  77
ENDBRANCH  69  71
BRANCH  69 116
ATOM    116  O   UNL     1      -7.532  17.087  23.707  0.00  0.00    -0.379 OA
BRANCH 116 117
ATOM    117  C   UNL     1      -8.875  17.520  23.514  0.00  0.00    +0.037 C 
ATOM    118  H   UNL     1      -9.219  17.156  22.543  0.00  0.00    +0.052 HD
ATOM    119  H   UNL     1      -8.927  18.613  23.511  0.00  0.00    +0.052 HD
ATOM    120  H   UNL     1      -9.529  17.114  24.293  0.00  0.00    +0.052 HD
ENDBRANCH 116 117
ENDBRANCH  69 116
ENDBRANCH  66  69
ENDBRANCH   8  66
BRANCH  31 121
ATOM    121  O   UNL     1     -12.339  16.303  18.965  0.00  0.00    -0.391 OA
ATOM    122  H   UNL     1     -12.315  15.635  18.245  0.00  0.00    +0.210 HD
ENDBRANCH  31 121
BRANCH  29 123
ATOM    123  O   UNL     1     -14.502  15.306  20.270  0.00  0.00    -0.373 OA
BRANCH 123 124
ATOM    124  C   UNL     1     -15.500  16.107  20.903  0.00  0.00    +0.037 C 
ATOM    125  H   UNL     1     -15.293  16.193  21.971  0.00  0.00    +0.052 HD
ATOM    126  H   UNL     1     -16.467  15.613  20.778  0.00  0.00    +0.052 HD
ATOM    127  H   UNL     1     -15.552  17.096  20.445  0.00  0.00    +0.052 HD
ENDBRANCH 123 124
ENDBRANCH  29 123
BRANCH  10 128
ATOM    128  O   UNL     1      -2.227  14.607  20.258  0.00  0.00    -0.379 OA
BRANCH 128 129
ATOM    129  C   UNL     1      -1.247  15.570  19.884  0.00  0.00    +0.037 C 
ATOM    130  H   UNL     1      -0.688  15.907  20.760  0.00  0.00    +0.052 HD
ATOM    131  H   UNL     1      -1.701  16.422  19.374  0.00  0.00    +0.052 HD
ATOM    132  H   UNL     1      -0.556  15.091  19.191  0.00  0.00    +0.052 HD
ENDBRANCH 128 129
ENDBRANCH  10 128
BRANCH   3 133
ATOM    133  O   UNL     1      -6.626  16.983  17.921  0.00  0.00    -0.447 OA
BRANCH 133 134
ATOM    134  C   UNL     1      -6.166  17.144  16.661  0.00  0.00    +0.398 C 
ATOM    135  O   UNL     1      -5.891  18.206  16.123  0.00  0.00    -0.227 OA
ATOM    136  N   UNL     1      -6.065  15.949  16.043  0.00  0.00    -0.295 N 
ATOM    137  H   UNL     1      -5.795  15.918  15.076  0.00  0.00    +0.148 HD
ATOM    138  H   UNL     1      -6.423  15.116  16.494  0.00  0.00    +0.148 HD
ENDBRANCH 133 134
ENDBRANCH   3 133
TORSDOF 29
ENDMDL
MODEL 7
REMARK VINA RESULT:      -5.3      6.631     11.039
REMARK  Name = Kabiramide C_conf3
REMARK  29 active torsions:
REMARK  status: ('A' for Active; 'I' for Inactive)
REMARK    1  A    between atoms: C_1  and  C_2
REMARK    2  A    between atoms: C_4  and  O_64
REMARK    3  A    between atoms: C_9  and  C_41
REMARK    4  A    between atoms: C_10  and  C_40
REMARK    5  A    between atoms: C_11  and  O_38
REMARK    6  A    between atoms: C_30  and  O_36
REMARK    7  A    between atoms: C_31  and  C_35
REMARK    8  A    between atoms: C_32  and  O_34
REMARK    9  A    between atoms: O_36  and  C_37
REMARK   10  A    between atoms: O_38  and  C_39
REMARK   11  A    between atoms: C_41  and  C_42
REMARK   12  A    between atoms: C_42  and  C_43
REMARK   13  A    between atoms: C_42  and  O_62
REMARK   14  A    between atoms: C_43  and  C_44
REMARK   15  A    between atoms: C_43  and  C_45
REMARK   16  A    between atoms: C_45  and  C_46
REMARK   17  A    between atoms: C_46  and  C_47
REMARK   18  A    between atoms: C_47  and  C_49
REMARK   19  A    between atoms: C_49  and  C_50
REMARK   20  A    between atoms: C_49  and  C_51
REMARK   21  A    between atoms: C_51  and  C_52
REMARK   22  A    between atoms: C_51  and  O_60
REMARK   23  A    between atoms: C_52  and  C_53
REMARK   24  A    between atoms: C_52  and  C_54
REMARK   25  A    between atoms: C_55  and  N_56
REMARK   26  A    between atoms: N_56  and  C_57
REMARK   27  A    between atoms: O_60  and  C_61
REMARK   28  A    between atoms: O_62  and  C_63
REMARK   29  A    between atoms: O_64  and  C_65
REMARK                            x       y       z     vdW  Elec       q    Type
REMARK                         _______ _______ _______ _____ _____    ______ ____
ROOT
ATOM      1  C   UNL     1      -2.350  22.440  18.012  0.00  0.00    -0.038 C 
ATOM      2  C   UNL     1      -3.283  21.485  17.216  0.00  0.00    -0.012 C 
ATOM      3  C   UNL     1      -4.801  21.750  17.311  0.00  0.00    +0.115 C 
ATOM      4  C   UNL     1      -5.636  20.674  16.592  0.00  0.00    +0.082 C 
ATOM      5  C   UNL     1      -5.861  19.366  17.318  0.00  0.00    +0.311 C 
ATOM      6  O   UNL     1      -6.869  18.681  17.167  0.00  0.00    -0.251 OA
ATOM      7  O   UNL     1      -4.823  19.039  18.114  0.00  0.00    -0.461 OA
ATOM      8  C   UNL     1      -4.814  17.772  18.818  0.00  0.00    +0.110 C 
ATOM      9  C   UNL     1      -5.015  18.125  20.333  0.00  0.00    +0.020 C 
ATOM     10  C   UNL     1      -6.511  18.458  20.616  0.00  0.00    +0.068 C 
ATOM     11  C   UNL     1      -6.821  19.368  21.845  0.00  0.00    -0.008 C 
ATOM     12  C   UNL     1      -5.672  19.815  22.694  0.00  0.00    -0.077 C 
ATOM     13  C   UNL     1      -5.587  19.666  24.027  0.00  0.00    -0.003 C 
ATOM     14  C   UNL     1      -4.400  20.073  24.697  0.00  0.00    +0.220 A 
ATOM     15  N   UNL     1      -3.254  20.359  24.104  0.00  0.00    -0.205 NA
ATOM     16  C   UNL     1      -2.385  20.681  25.113  0.00  0.00    +0.164 A 
ATOM     17  C   UNL     1      -3.026  20.595  26.314  0.00  0.00    +0.125 A 
ATOM     18  O   UNL     1      -4.312  20.209  26.069  0.00  0.00    -0.443 OA
ATOM     19  C   UNL     1      -0.909  21.101  24.869  0.00  0.00    +0.250 A 
ATOM     20  N   UNL     1      -0.409  21.234  23.652  0.00  0.00    -0.203 NA
ATOM     21  C   UNL     1       0.879  21.648  23.854  0.00  0.00    +0.164 A 
ATOM     22  C   UNL     1       1.137  21.726  25.197  0.00  0.00    +0.125 A 
ATOM     23  O   UNL     1      -0.005  21.382  25.865  0.00  0.00    -0.442 OA
ATOM     24  C   UNL     1       1.881  21.988  22.711  0.00  0.00    +0.249 A 
ATOM     25  N   UNL     1       1.564  21.949  21.431  0.00  0.00    -0.210 NA
ATOM     26  C   UNL     1       2.694  22.340  20.761  0.00  0.00    +0.109 A 
ATOM     27  C   UNL     1       3.683  22.598  21.683  0.00  0.00    +0.118 A 
ATOM     28  O   UNL     1       3.180  22.380  22.932  0.00  0.00    -0.442 OA
ATOM     29  C   UNL     1       2.780  22.439  19.263  0.00  0.00    +0.108 C 
ATOM     30  C   UNL     1       1.586  21.836  18.465  0.00  0.00    +0.014 C 
ATOM     31  C   UNL     1       0.202  22.525  18.713  0.00  0.00    +0.061 C 
ATOM     32  C   UNL     1      -0.889  21.969  17.766  0.00  0.00    -0.024 C 
ATOM     33  H   UNL     1      -2.576  22.328  19.082  0.00  0.00    +0.030 HD
ATOM     34  H   UNL     1      -3.071  20.479  17.587  0.00  0.00    +0.030 HD
ATOM     35  H   UNL     1      -2.996  21.495  16.158  0.00  0.00    +0.030 HD
ATOM     36  H   UNL     1      -4.982  22.696  16.782  0.00  0.00    +0.074 HD
ATOM     37  H   UNL     1      -5.209  20.447  15.610  0.00  0.00    +0.041 HD
ATOM     38  H   UNL     1      -6.640  21.085  16.425  0.00  0.00    +0.041 HD
ATOM     39  H   UNL     1      -5.623  17.114  18.495  0.00  0.00    +0.074 HD
ATOM     40  H   UNL     1      -4.421  19.029  20.506  0.00  0.00    +0.036 HD
ATOM     41  H   UNL     1      -6.925  18.976  19.744  0.00  0.00    +0.060 HD
ATOM     42  H   UNL     1      -7.593  18.909  22.478  0.00  0.00    +0.033 HD
ATOM     43  H   UNL     1      -7.278  20.286  21.449  0.00  0.00    +0.033 HD
ATOM     44  H   UNL     1      -4.846  20.305  22.171  0.00  0.00    +0.057 HD
ATOM     45  H   UNL     1      -6.378  19.213  24.606  0.00  0.00    +0.067 HD
ATOM     46  H   UNL     1      -2.753  20.760  27.345  0.00  0.00    +0.105 HD
ATOM     47  H   UNL     1       1.992  22.001  25.796  0.00  0.00    +0.105 HD
ATOM     48  H   UNL     1       4.712  22.916  21.629  0.00  0.00    +0.105 HD
ATOM     49  H   UNL     1       3.682  21.871  18.989  0.00  0.00    +0.067 HD
ATOM     50  H   UNL     1       1.820  22.021  17.407  0.00  0.00    +0.035 HD
ATOM     51  H   UNL     1      -0.127  22.372  19.744  0.00  0.00    +0.060 HD
ATOM     52  H   UNL     1      -0.894  20.877  17.845  0.00  0.00    +0.029 HD
ATOM     53  H   UNL     1      -0.611  22.216  16.732  0.00  0.00    +0.029 HD
ENDROOT
BRANCH   1  54
ATOM     54  C   UNL     1      -2.569  23.902  17.623  0.00  0.00    -0.062 C 
ATOM     55  H   UNL     1      -2.165  24.581  18.382  0.00  0.00    +0.023 HD
ATOM     56  H   UNL     1      -3.631  24.120  17.493  0.00  0.00    +0.023 HD
ATOM     57  H   UNL     1      -2.096  24.142  16.664  0.00  0.00    +0.023 HD
ENDBRANCH   1  54
BRANCH  30  58
ATOM     58  C   UNL     1       1.544  20.314  18.652  0.00  0.00    -0.057 C 
ATOM     59  H   UNL     1       2.146  19.793  17.895  0.00  0.00    +0.023 HD
ATOM     60  H   UNL     1       1.965  20.027  19.625  0.00  0.00    +0.023 HD
ATOM     61  H   UNL     1       0.520  19.923  18.594  0.00  0.00    +0.023 HD
ENDBRANCH  30  58
BRANCH   9  62
ATOM     62  C   UNL     1      -4.504  17.021  21.269  0.00  0.00    -0.057 C 
ATOM     63  H   UNL     1      -3.833  17.436  22.031  0.00  0.00    +0.023 HD
ATOM     64  H   UNL     1      -3.960  16.244  20.719  0.00  0.00    +0.023 HD
ATOM     65  H   UNL     1      -5.321  16.530  21.807  0.00  0.00    +0.023 HD
ENDBRANCH   9  62
BRANCH   8  66
ATOM     66  C   UNL     1      -3.448  17.118  18.515  0.00  0.00    +0.011 C 
ATOM     67  H   UNL     1      -2.869  16.998  19.437  0.00  0.00    +0.033 HD
ATOM     68  H   UNL     1      -2.894  17.825  17.881  0.00  0.00    +0.033 HD
BRANCH  66  69
ATOM     69  C   UNL     1      -3.411  15.755  17.778  0.00  0.00    +0.064 C 
ATOM     70  H   UNL     1      -2.691  15.919  16.962  0.00  0.00    +0.060 HD
BRANCH  69  71
ATOM     71  C   UNL     1      -2.859  14.565  18.618  0.00  0.00    -0.017 C 
ATOM     72  H   UNL     1      -2.527  14.960  19.587  0.00  0.00    +0.032 HD
BRANCH  71  73
ATOM     73  C   UNL     1      -3.886  13.455  18.869  0.00  0.00    -0.060 C 
ATOM     74  H   UNL     1      -4.088  12.892  17.956  0.00  0.00    +0.023 HD
ATOM     75  H   UNL     1      -4.832  13.837  19.244  0.00  0.00    +0.023 HD
ATOM     76  H   UNL     1      -3.514  12.753  19.622  0.00  0.00    +0.023 HD
ENDBRANCH  71  73
BRANCH  71  77
ATOM     77  C   UNL     1      -1.618  13.972  17.885  0.00  0.00    -0.041 C 
ATOM     78  H   UNL     1      -1.881  13.757  16.840  0.00  0.00    +0.027 HD
ATOM     79  H   UNL     1      -1.364  13.009  18.342  0.00  0.00    +0.027 HD
BRANCH  77  80
ATOM     80  C   UNL     1      -0.360  14.846  17.897  0.00  0.00    +0.007 C 
ATOM     81  H   UNL     1       0.091  14.877  16.905  0.00  0.00    +0.034 HD
ATOM     82  H   UNL     1      -0.660  15.866  18.158  0.00  0.00    +0.034 HD
BRANCH  80  83
ATOM     83  C   UNL     1       0.667  14.412  18.933  0.00  0.00    +0.139 C 
ATOM     84  O   UNL     1       1.083  13.248  18.982  0.00  0.00    -0.297 OA
BRANCH  83  85
ATOM     85  C   UNL     1       1.175  15.434  19.954  0.00  0.00    +0.041 C 
ATOM     86  H   UNL     1       0.819  15.090  20.933  0.00  0.00    +0.040 HD
BRANCH  85  87
ATOM     87  C   UNL     1       0.527  16.804  19.734  0.00  0.00    -0.053 C 
ATOM     88  H   UNL     1       0.994  17.557  20.377  0.00  0.00    +0.024 HD
ATOM     89  H   UNL     1       0.651  17.122  18.694  0.00  0.00    +0.024 HD
ATOM     90  H   UNL     1      -0.544  16.800  19.960  0.00  0.00    +0.024 HD
ENDBRANCH  85  87
BRANCH  85  91
ATOM     91  C   UNL     1       2.720  15.505  19.994  0.00  0.00    +0.074 C 
ATOM     92  H   UNL     1       2.996  16.565  20.103  0.00  0.00    +0.061 HD
BRANCH  91  93
ATOM     93  C   UNL     1       3.359  14.703  21.166  0.00  0.00    +0.003 C 
ATOM     94  H   UNL     1       4.050  13.960  20.748  0.00  0.00    +0.037 HD
BRANCH  93  95
ATOM     95  C   UNL     1       2.319  13.969  22.021  0.00  0.00    -0.057 C 
ATOM     96  H   UNL     1       2.384  14.273  23.071  0.00  0.00    +0.024 HD
ATOM     97  H   UNL     1       1.301  14.164  21.677  0.00  0.00    +0.024 HD
ATOM     98  H   UNL     1       2.469  12.885  21.974  0.00  0.00    +0.024 HD
ENDBRANCH  93  95
BRANCH  93  99
ATOM     99  C   UNL     1       4.152  15.618  22.086  0.00  0.00    -0.065 C 
ATOM    100  C   UNL     1       4.084  16.957  22.016  0.00  0.00    -0.005 C 
ATOM    101  H   UNL     1       4.797  15.117  22.801  0.00  0.00    +0.059 HD
ATOM    102  H   UNL     1       3.425  17.404  21.268  0.00  0.00    +0.078 HD
BRANCH 100 103
ATOM    103  N   UNL     1       4.776  17.877  22.785  0.00  0.00    -0.284 N 
ATOM    104  C   UNL     1       6.144  17.871  23.022  0.00  0.00    +0.206 C 
ATOM    105  O   UNL     1       6.773  18.744  23.600  0.00  0.00    -0.279 OA
ATOM    106  H   UNL     1       6.655  16.981  22.628  0.00  0.00    +0.126 HD
BRANCH 103 107
ATOM    107  C   UNL     1       4.018  19.008  23.306  0.00  0.00    +0.007 C 
ATOM    108  H   UNL     1       3.334  18.706  24.106  0.00  0.00    +0.043 HD
ATOM    109  H   UNL     1       3.428  19.471  22.507  0.00  0.00    +0.043 HD
ATOM    110  H   UNL     1       4.731  19.734  23.709  0.00  0.00    +0.043 HD
ENDBRANCH 103 107
ENDBRANCH 100 103
ENDBRANCH  93  99
ENDBRANCH  91  93
BRANCH  91 111
ATOM    111  O   UNL     1       3.221  14.997  18.744  0.00  0.00    -0.379 OA
BRANCH 111 112
ATOM    112  C   UNL     1       4.616  14.714  18.769  0.00  0.00    +0.037 C 
ATOM    113  H   UNL     1       4.768  13.718  18.352  0.00  0.00    +0.052 HD
ATOM    114  H   UNL     1       5.160  15.437  18.156  0.00  0.00    +0.052 HD
ATOM    115  H   UNL     1       4.999  14.727  19.793  0.00  0.00    +0.052 HD
ENDBRANCH 111 112
ENDBRANCH  91 111
ENDBRANCH  85  91
ENDBRANCH  83  85
ENDBRANCH  80  83
ENDBRANCH  77  80
ENDBRANCH  71  77
ENDBRANCH  69  71
BRANCH  69 116
ATOM    116  O   UNL     1      -4.683  15.416  17.227  0.00  0.00    -0.379 OA
BRANCH 116 117
ATOM    117  C   UNL     1      -4.757  15.654  15.824  0.00  0.00    +0.037 C 
ATOM    118  H   UNL     1      -5.219  16.631  15.664  0.00  0.00    +0.052 HD
ATOM    119  H   UNL     1      -5.378  14.894  15.341  0.00  0.00    +0.052 HD
ATOM    120  H   UNL     1      -3.756  15.661  15.379  0.00  0.00    +0.052 HD
ENDBRANCH 116 117
ENDBRANCH  69 116
ENDBRANCH  66  69
ENDBRANCH   8  66
BRANCH  31 121
ATOM    121  O   UNL     1       0.290  23.936  18.499  0.00  0.00    -0.391 OA
ATOM    122  H   UNL     1       1.173  24.146  18.122  0.00  0.00    +0.210 HD
ENDBRANCH  31 121
BRANCH  29 123
ATOM    123  O   UNL     1       2.975  23.817  18.888  0.00  0.00    -0.373 OA
BRANCH 123 124
ATOM    124  C   UNL     1       3.799  23.953  17.731  0.00  0.00    +0.037 C 
ATOM    125  H   UNL     1       3.432  24.763  17.099  0.00  0.00    +0.052 HD
ATOM    126  H   UNL     1       3.748  23.021  17.162  0.00  0.00    +0.052 HD
ATOM    127  H   UNL     1       4.839  24.133  18.013  0.00  0.00    +0.052 HD
ENDBRANCH 123 124
ENDBRANCH  29 123
BRANCH  10 128
ATOM    128  O   UNL     1      -7.222  17.208  20.758  0.00  0.00    -0.379 OA
BRANCH 128 129
ATOM    129  C   UNL     1      -8.260  17.261  21.731  0.00  0.00    +0.037 C 
ATOM    130  H   UNL     1      -9.034  17.968  21.425  0.00  0.00    +0.052 HD
ATOM    131  H   UNL     1      -7.869  17.530  22.715  0.00  0.00    +0.052 HD
ATOM    132  H   UNL     1      -8.702  16.268  21.803  0.00  0.00    +0.052 HD
ENDBRANCH 128 129
ENDBRANCH  10 128
BRANCH   3 133
ATOM    133  O   UNL     1      -5.189  21.903  18.689  0.00  0.00    -0.447 OA
BRANCH 133 134
ATOM    134  C   UNL     1      -6.315  22.615  18.911  0.00  0.00    +0.398 C 
ATOM    135  O   UNL     1      -7.348  22.195  19.411  0.00  0.00    -0.227 OA
ATOM    136  N   UNL     1      -6.161  23.884  18.480  0.00  0.00    -0.295 N 
ATOM    137  H   UNL     1      -6.942  24.516  18.523  0.00  0.00    +0.148 HD
ATOM    138  H   UNL     1      -5.330  24.143  17.964  0.00  0.00    +0.148 HD
ENDBRANCH 133 134
ENDBRANCH   3 133
TORSDOF 29
ENDMDL
MODEL 8
REMARK VINA RESULT:      -5.3      6.260     11.998
REMARK  Name = Kabiramide C_conf3
REMARK  29 active torsions:
REMARK  status: ('A' for Active; 'I' for Inactive)
REMARK    1  A    between atoms: C_1  and  C_2
REMARK    2  A    between atoms: C_4  and  O_64
REMARK    3  A    between atoms: C_9  and  C_41
REMARK    4  A    between atoms: C_10  and  C_40
REMARK    5  A    between atoms: C_11  and  O_38
REMARK    6  A    between atoms: C_30  and  O_36
REMARK    7  A    between atoms: C_31  and  C_35
REMARK    8  A    between atoms: C_32  and  O_34
REMARK    9  A    between atoms: O_36  and  C_37
REMARK   10  A    between atoms: O_38  and  C_39
REMARK   11  A    between atoms: C_41  and  C_42
REMARK   12  A    between atoms: C_42  and  C_43
REMARK   13  A    between atoms: C_42  and  O_62
REMARK   14  A    between atoms: C_43  and  C_44
REMARK   15  A    between atoms: C_43  and  C_45
REMARK   16  A    between atoms: C_45  and  C_46
REMARK   17  A    between atoms: C_46  and  C_47
REMARK   18  A    between atoms: C_47  and  C_49
REMARK   19  A    between atoms: C_49  and  C_50
REMARK   20  A    between atoms: C_49  and  C_51
REMARK   21  A    between atoms: C_51  and  C_52
REMARK   22  A    between atoms: C_51  and  O_60
REMARK   23  A    between atoms: C_52  and  C_53
REMARK   24  A    between atoms: C_52  and  C_54
REMARK   25  A    between atoms: C_55  and  N_56
REMARK   26  A    between atoms: N_56  and  C_57
REMARK   27  A    between atoms: O_60  and  C_61
REMARK   28  A    between atoms: O_62  and  C_63
REMARK   29  A    between atoms: O_64  and  C_65
REMARK                            x       y       z     vdW  Elec       q    Type
REMARK                         _______ _______ _______ _____ _____    ______ ____
ROOT
ATOM      1  C   UNL     1     -12.991   3.525  13.036  0.00  0.00    -0.038 C 
ATOM      2  C   UNL     1     -13.290   4.939  12.463  0.00  0.00    -0.012 C 
ATOM      3  C   UNL     1     -13.664   5.021  10.967  0.00  0.00    +0.115 C 
ATOM      4  C   UNL     1     -13.815   6.472  10.474  0.00  0.00    +0.082 C 
ATOM      5  C   UNL     1     -12.548   7.235  10.156  0.00  0.00    +0.311 C 
ATOM      6  O   UNL     1     -12.491   8.111   9.298  0.00  0.00    -0.251 OA
ATOM      7  O   UNL     1     -11.515   6.858  10.937  0.00  0.00    -0.461 OA
ATOM      8  C   UNL     1     -10.242   7.544  10.845  0.00  0.00    +0.110 C 
ATOM      9  C   UNL     1      -9.255   6.523  10.178  0.00  0.00    +0.020 C 
ATOM     10  C   UNL     1      -9.512   6.448   8.642  0.00  0.00    +0.068 C 
ATOM     11  C   UNL     1      -9.088   5.137   7.910  0.00  0.00    -0.008 C 
ATOM     12  C   UNL     1      -8.420   4.067   8.716  0.00  0.00    -0.077 C 
ATOM     13  C   UNL     1      -7.245   3.488   8.418  0.00  0.00    -0.003 C 
ATOM     14  C   UNL     1      -6.692   2.535   9.317  0.00  0.00    +0.220 A 
ATOM     15  N   UNL     1      -7.100   2.337  10.558  0.00  0.00    -0.205 NA
ATOM     16  C   UNL     1      -6.289   1.353  11.062  0.00  0.00    +0.164 A 
ATOM     17  C   UNL     1      -5.401   0.958  10.105  0.00  0.00    +0.125 A 
ATOM     18  O   UNL     1      -5.642   1.699   8.985  0.00  0.00    -0.443 OA
ATOM     19  C   UNL     1      -6.423   0.790  12.504  0.00  0.00    +0.250 A 
ATOM     20  N   UNL     1      -7.380   1.188  13.326  0.00  0.00    -0.203 NA
ATOM     21  C   UNL     1      -7.188   0.444  14.459  0.00  0.00    +0.164 A 
ATOM     22  C   UNL     1      -6.096  -0.369  14.302  0.00  0.00    +0.125 A 
ATOM     23  O   UNL     1      -5.595  -0.161  13.048  0.00  0.00    -0.442 OA
ATOM     24  C   UNL     1      -8.098   0.516  15.720  0.00  0.00    +0.249 A 
ATOM     25  N   UNL     1      -9.173   1.277  15.798  0.00  0.00    -0.210 NA
ATOM     26  C   UNL     1      -9.705   1.035  17.038  0.00  0.00    +0.109 A 
ATOM     27  C   UNL     1      -8.905   0.121  17.687  0.00  0.00    +0.118 A 
ATOM     28  O   UNL     1      -7.878  -0.221  16.859  0.00  0.00    -0.442 OA
ATOM     29  C   UNL     1     -10.952   1.701  17.552  0.00  0.00    +0.108 C 
ATOM     30  C   UNL     1     -11.501   2.884  16.701  0.00  0.00    +0.014 C 
ATOM     31  C   UNL     1     -11.960   2.506  15.253  0.00  0.00    +0.061 C 
ATOM     32  C   UNL     1     -12.634   3.703  14.540  0.00  0.00    -0.024 C 
ATOM     33  H   UNL     1     -12.111   3.122  12.516  0.00  0.00    +0.030 HD
ATOM     34  H   UNL     1     -12.389   5.531  12.639  0.00  0.00    +0.030 HD
ATOM     35  H   UNL     1     -14.092   5.405  13.046  0.00  0.00    +0.030 HD
ATOM     36  H   UNL     1     -14.653   4.551  10.871  0.00  0.00    +0.074 HD
ATOM     37  H   UNL     1     -14.396   7.064  11.189  0.00  0.00    +0.041 HD
ATOM     38  H   UNL     1     -14.380   6.449   9.533  0.00  0.00    +0.041 HD
ATOM     39  H   UNL     1     -10.299   8.441  10.225  0.00  0.00    +0.074 HD
ATOM     40  H   UNL     1      -9.499   5.549  10.617  0.00  0.00    +0.036 HD
ATOM     41  H   UNL     1     -10.586   6.561   8.461  0.00  0.00    +0.060 HD
ATOM     42  H   UNL     1      -8.477   5.371   7.027  0.00  0.00    +0.033 HD
ATOM     43  H   UNL     1     -10.009   4.686   7.514  0.00  0.00    +0.033 HD
ATOM     44  H   UNL     1      -8.949   3.739   9.615  0.00  0.00    +0.057 HD
ATOM     45  H   UNL     1      -6.684   3.749   7.532  0.00  0.00    +0.067 HD
ATOM     46  H   UNL     1      -4.606   0.231  10.047  0.00  0.00    +0.105 HD
ATOM     47  H   UNL     1      -5.594  -1.099  14.917  0.00  0.00    +0.105 HD
ATOM     48  H   UNL     1      -8.919  -0.352  18.656  0.00  0.00    +0.105 HD
ATOM     49  H   UNL     1     -10.677   2.102  18.540  0.00  0.00    +0.067 HD
ATOM     50  H   UNL     1     -12.410   3.218  17.220  0.00  0.00    +0.035 HD
ATOM     51  H   UNL     1     -11.109   2.181  14.649  0.00  0.00    +0.060 HD
ATOM     52  H   UNL     1     -11.965   4.567  14.603  0.00  0.00    +0.029 HD
ATOM     53  H   UNL     1     -13.550   3.964  15.088  0.00  0.00    +0.029 HD
ENDROOT
BRANCH   1  54
ATOM     54  C   UNL     1     -14.161   2.565  12.820  0.00  0.00    -0.062 C 
ATOM     55  H   UNL     1     -14.544   2.184  13.773  0.00  0.00    +0.023 HD
ATOM     56  H   UNL     1     -13.864   1.716  12.202  0.00  0.00    +0.023 HD
ATOM     57  H   UNL     1     -14.988   3.047  12.288  0.00  0.00    +0.023 HD
ENDBRANCH   1  54
BRANCH  30  58
ATOM     58  C   UNL     1     -10.512   4.057  16.734  0.00  0.00    -0.057 C 
ATOM     59  H   UNL     1     -10.407   4.528  15.747  0.00  0.00    +0.023 HD
ATOM     60  H   UNL     1     -10.863   4.846  17.411  0.00  0.00    +0.023 HD
ATOM     61  H   UNL     1      -9.514   3.741  17.062  0.00  0.00    +0.023 HD
ENDBRANCH  30  58
BRANCH   9  62
ATOM     62  C   UNL     1      -7.784   6.839  10.482  0.00  0.00    -0.057 C 
ATOM     63  H   UNL     1      -7.347   7.456   9.689  0.00  0.00    +0.023 HD
ATOM     64  H   UNL     1      -7.185   5.925  10.575  0.00  0.00    +0.023 HD
ATOM     65  H   UNL     1      -7.671   7.401  11.415  0.00  0.00    +0.023 HD
ENDBRANCH   9  62
BRANCH   8  66
ATOM     66  C   UNL     1      -9.849   7.924  12.289  0.00  0.00    +0.011 C 
ATOM     67  H   UNL     1      -9.970   9.001  12.448  0.00  0.00    +0.033 HD
ATOM     68  H   UNL     1      -8.777   7.705  12.392  0.00  0.00    +0.033 HD
BRANCH  66  69
ATOM     69  C   UNL     1     -10.551   7.212  13.474  0.00  0.00    +0.064 C 
ATOM     70  H   UNL     1     -11.306   6.577  12.987  0.00  0.00    +0.060 HD
BRANCH  69  71
ATOM     71  C   UNL     1      -9.643   6.258  14.304  0.00  0.00    -0.017 C 
ATOM     72  H   UNL     1     -10.237   5.871  15.143  0.00  0.00    +0.032 HD
BRANCH  71  73
ATOM     73  C   UNL     1      -9.095   5.071  13.504  0.00  0.00    -0.060 C 
ATOM     74  H   UNL     1      -8.639   4.330  14.164  0.00  0.00    +0.023 HD
ATOM     75  H   UNL     1      -8.351   5.370  12.771  0.00  0.00    +0.023 HD
ATOM     76  H   UNL     1      -9.900   4.579  12.950  0.00  0.00    +0.023 HD
ENDBRANCH  71  73
BRANCH  71  77
ATOM     77  C   UNL     1      -8.459   7.085  14.891  0.00  0.00    -0.041 C 
ATOM     78  H   UNL     1      -8.603   8.147  14.652  0.00  0.00    +0.027 HD
ATOM     79  H   UNL     1      -7.533   6.780  14.391  0.00  0.00    +0.027 HD
BRANCH  77  80
ATOM     80  C   UNL     1      -8.243   6.955  16.403  0.00  0.00    +0.007 C 
ATOM     81  H   UNL     1      -8.532   5.960  16.743  0.00  0.00    +0.034 HD
ATOM     82  H   UNL     1      -7.175   7.079  16.604  0.00  0.00    +0.034 HD
BRANCH  80  83
ATOM     83  C   UNL     1      -8.969   8.023  17.209  0.00  0.00    +0.139 C 
ATOM     84  O   UNL     1     -10.168   7.915  17.493  0.00  0.00    -0.297 OA
BRANCH  83  85
ATOM     85  C   UNL     1      -8.201   9.271  17.654  0.00  0.00    +0.041 C 
ATOM     86  H   UNL     1      -8.571   9.514  18.657  0.00  0.00    +0.040 HD
BRANCH  85  87
ATOM     87  C   UNL     1      -8.552  10.477  16.779  0.00  0.00    -0.053 C 
ATOM     88  H   UNL     1      -7.665  11.094  16.602  0.00  0.00    +0.024 HD
ATOM     89  H   UNL     1      -8.932  10.146  15.807  0.00  0.00    +0.024 HD
ATOM     90  H   UNL     1      -9.311  11.119  17.237  0.00  0.00    +0.024 HD
ENDBRANCH  85  87
BRANCH  85  91
ATOM     91  C   UNL     1      -6.677   9.021  17.742  0.00  0.00    +0.074 C 
ATOM     92  H   UNL     1      -6.474   8.061  17.244  0.00  0.00    +0.061 HD
BRANCH  91  93
ATOM     93  C   UNL     1      -5.816  10.125  17.059  0.00  0.00    +0.003 C 
ATOM     94  H   UNL     1      -6.485  10.805  16.516  0.00  0.00    +0.037 HD
BRANCH  93  95
ATOM     95  C   UNL     1      -4.797   9.554  16.066  0.00  0.00    -0.057 C 
ATOM     96  H   UNL     1      -5.213   8.702  15.517  0.00  0.00    +0.024 HD
ATOM     97  H   UNL     1      -4.479  10.301  15.337  0.00  0.00    +0.024 HD
ATOM     98  H   UNL     1      -3.895   9.212  16.586  0.00  0.00    +0.024 HD
ENDBRANCH  93  95
BRANCH  93  99
ATOM     99  C   UNL     1      -5.052  10.940  18.091  0.00  0.00    -0.065 C 
ATOM    100  C   UNL     1      -5.042  12.283  18.094  0.00  0.00    -0.005 C 
ATOM    101  H   UNL     1      -4.496  10.364  18.822  0.00  0.00    +0.059 HD
ATOM    102  H   UNL     1      -5.612  12.807  17.324  0.00  0.00    +0.078 HD
BRANCH 100 103
ATOM    103  N   UNL     1      -4.367  13.118  18.968  0.00  0.00    -0.284 N 
ATOM    104  C   UNL     1      -4.449  13.079  20.354  0.00  0.00    +0.206 C 
ATOM    105  O   UNL     1      -3.767  13.733  21.128  0.00  0.00    -0.279 OA
ATOM    106  H   UNL     1      -5.207  12.378  20.730  0.00  0.00    +0.126 HD
BRANCH 103 107
ATOM    107  C   UNL     1      -3.407  14.048  18.386  0.00  0.00    +0.007 C 
ATOM    108  H   UNL     1      -3.565  14.176  17.310  0.00  0.00    +0.043 HD
ATOM    109  H   UNL     1      -2.384  13.687  18.542  0.00  0.00    +0.043 HD
ATOM    110  H   UNL     1      -3.538  15.017  18.877  0.00  0.00    +0.043 HD
ENDBRANCH 103 107
ENDBRANCH 100 103
ENDBRANCH  93  99
ENDBRANCH  91  93
BRANCH  91 111
ATOM    111  O   UNL     1      -6.319   8.935  19.134  0.00  0.00    -0.379 OA
BRANCH 111 112
ATOM    112  C   UNL     1      -6.712   7.709  19.741  0.00  0.00    +0.037 C 
ATOM    113  H   UNL     1      -7.059   7.926  20.752  0.00  0.00    +0.052 HD
ATOM    114  H   UNL     1      -7.534   7.254  19.179  0.00  0.00    +0.052 HD
ATOM    115  H   UNL     1      -5.870   7.014  19.801  0.00  0.00    +0.052 HD
ENDBRANCH 111 112
ENDBRANCH  91 111
ENDBRANCH  85  91
ENDBRANCH  83  85
ENDBRANCH  80  83
ENDBRANCH  77  80
ENDBRANCH  71  77
ENDBRANCH  69  71
BRANCH  69 116
ATOM    116  O   UNL     1     -11.203   8.142  14.340  0.00  0.00    -0.379 OA
BRANCH 116 117
ATOM    117  C   UNL     1     -11.119   9.484  13.870  0.00  0.00    +0.037 C 
ATOM    118  H   UNL     1     -10.074   9.707  13.646  0.00  0.00    +0.052 HD
ATOM    119  H   UNL     1     -11.463  10.180  14.641  0.00  0.00    +0.052 HD
ATOM    120  H   UNL     1     -11.709   9.614  12.956  0.00  0.00    +0.052 HD
ENDBRANCH 116 117
ENDBRANCH  69 116
ENDBRANCH  66  69
ENDBRANCH   8  66
BRANCH  31 121
ATOM    121  O   UNL     1     -12.899   1.428  15.281  0.00  0.00    -0.391 OA
ATOM    122  H   UNL     1     -13.638   1.634  14.666  0.00  0.00    +0.210 HD
ENDBRANCH  31 121
BRANCH  29 123
ATOM    123  O   UNL     1     -11.980   0.707  17.733  0.00  0.00    -0.373 OA
BRANCH 123 124
ATOM    124  C   UNL     1     -12.819   0.992  18.852  0.00  0.00    +0.037 C 
ATOM    125  H   UNL     1     -13.805   1.314  18.512  0.00  0.00    +0.052 HD
ATOM    126  H   UNL     1     -12.367   1.808  19.422  0.00  0.00    +0.052 HD
ATOM    127  H   UNL     1     -12.908   0.120  19.503  0.00  0.00    +0.052 HD
ENDBRANCH 123 124
ENDBRANCH  29 123
BRANCH  10 128
ATOM    128  O   UNL     1      -8.846   7.574   8.029  0.00  0.00    -0.379 OA
BRANCH 128 129
ATOM    129  C   UNL     1      -8.502   7.346   6.666  0.00  0.00    +0.037 C 
ATOM    130  H   UNL     1      -7.936   8.192   6.269  0.00  0.00    +0.052 HD
ATOM    131  H   UNL     1      -9.389   7.164   6.057  0.00  0.00    +0.052 HD
ATOM    132  H   UNL     1      -7.874   6.456   6.624  0.00  0.00    +0.052 HD
ENDBRANCH 128 129
ENDBRANCH  10 128
BRANCH   3 133
ATOM    133  O   UNL     1     -12.716   4.279  10.179  0.00  0.00    -0.447 OA
BRANCH 133 134
ATOM    134  C   UNL     1     -13.215   3.636   9.101  0.00  0.00    +0.398 C 
ATOM    135  O   UNL     1     -14.098   2.791   9.109  0.00  0.00    -0.227 OA
ATOM    136  N   UNL     1     -12.584   4.041   7.980  0.00  0.00    -0.295 N 
ATOM    137  H   UNL     1     -12.808   3.601   7.105  0.00  0.00    +0.148 HD
ATOM    138  H   UNL     1     -11.779   4.652   8.047  0.00  0.00    +0.148 HD
ENDBRANCH 133 134
ENDBRANCH   3 133
TORSDOF 29
ENDMDL
MODEL 9
REMARK VINA RESULT:      -5.3      2.846      4.308
REMARK  Name = Kabiramide C_conf3
REMARK  29 active torsions:
REMARK  status: ('A' for Active; 'I' for Inactive)
REMARK    1  A    between atoms: C_1  and  C_2
REMARK    2  A    between atoms: C_4  and  O_64
REMARK    3  A    between atoms: C_9  and  C_41
REMARK    4  A    between atoms: C_10  and  C_40
REMARK    5  A    between atoms: C_11  and  O_38
REMARK    6  A    between atoms: C_30  and  O_36
REMARK    7  A    between atoms: C_31  and  C_35
REMARK    8  A    between atoms: C_32  and  O_34
REMARK    9  A    between atoms: O_36  and  C_37
REMARK   10  A    between atoms: O_38  and  C_39
REMARK   11  A    between atoms: C_41  and  C_42
REMARK   12  A    between atoms: C_42  and  C_43
REMARK   13  A    between atoms: C_42  and  O_62
REMARK   14  A    between atoms: C_43  and  C_44
REMARK   15  A    between atoms: C_43  and  C_45
REMARK   16  A    between atoms: C_45  and  C_46
REMARK   17  A    between atoms: C_46  and  C_47
REMARK   18  A    between atoms: C_47  and  C_49
REMARK   19  A    between atoms: C_49  and  C_50
REMARK   20  A    between atoms: C_49  and  C_51
REMARK   21  A    between atoms: C_51  and  C_52
REMARK   22  A    between atoms: C_51  and  O_60
REMARK   23  A    between atoms: C_52  and  C_53
REMARK   24  A    between atoms: C_52  and  C_54
REMARK   25  A    between atoms: C_55  and  N_56
REMARK   26  A    between atoms: N_56  and  C_57
REMARK   27  A    between atoms: O_60  and  C_61
REMARK   28  A    between atoms: O_62  and  C_63
REMARK   29  A    between atoms: O_64  and  C_65
REMARK                            x       y       z     vdW  Elec       q    Type
REMARK                         _______ _______ _______ _____ _____    ______ ____
ROOT
ATOM      1  C   UNL     1      -8.983  15.435  19.239  0.00  0.00    -0.038 C 
ATOM      2  C   UNL     1      -8.750  14.487  18.029  0.00  0.00    -0.012 C 
ATOM      3  C   UNL     1      -9.952  14.241  17.092  0.00  0.00    +0.115 C 
ATOM      4  C   UNL     1      -9.650  13.193  16.005  0.00  0.00    +0.082 C 
ATOM      5  C   UNL     1      -9.717  11.735  16.406  0.00  0.00    +0.311 C 
ATOM      6  O   UNL     1     -10.037  10.841  15.628  0.00  0.00    -0.251 OA
ATOM      7  O   UNL     1      -9.361  11.542  17.693  0.00  0.00    -0.461 OA
ATOM      8  C   UNL     1      -9.270  10.200  18.231  0.00  0.00    +0.110 C 
ATOM      9  C   UNL     1     -10.472  10.060  19.230  0.00  0.00    +0.020 C 
ATOM     10  C   UNL     1     -11.801   9.833  18.447  0.00  0.00    +0.068 C 
ATOM     11  C   UNL     1     -13.128  10.246  19.157  0.00  0.00    -0.008 C 
ATOM     12  C   UNL     1     -13.041  10.781  20.552  0.00  0.00    -0.077 C 
ATOM     13  C   UNL     1     -13.733  10.319  21.607  0.00  0.00    -0.003 C 
ATOM     14  C   UNL     1     -13.494  10.876  22.893  0.00  0.00    +0.220 A 
ATOM     15  N   UNL     1     -12.466  11.644  23.208  0.00  0.00    -0.205 NA
ATOM     16  C   UNL     1     -12.617  11.937  24.538  0.00  0.00    +0.164 A 
ATOM     17  C   UNL     1     -13.750  11.345  25.012  0.00  0.00    +0.125 A 
ATOM     18  O   UNL     1     -14.324  10.665  23.978  0.00  0.00    -0.443 OA
ATOM     19  C   UNL     1     -11.629  12.836  25.333  0.00  0.00    +0.250 A 
ATOM     20  N   UNL     1     -10.601  13.432  24.753  0.00  0.00    -0.203 NA
ATOM     21  C   UNL     1     -10.011  14.151  25.757  0.00  0.00    +0.164 A 
ATOM     22  C   UNL     1     -10.684  13.947  26.933  0.00  0.00    +0.125 A 
ATOM     23  O   UNL     1     -11.731  13.106  26.676  0.00  0.00    -0.442 OA
ATOM     24  C   UNL     1      -8.769  15.071  25.565  0.00  0.00    +0.249 A 
ATOM     25  N   UNL     1      -8.191  15.277  24.397  0.00  0.00    -0.210 NA
ATOM     26  C   UNL     1      -7.169  16.157  24.643  0.00  0.00    +0.109 A 
ATOM     27  C   UNL     1      -7.159  16.450  25.988  0.00  0.00    +0.118 A 
ATOM     28  O   UNL     1      -8.174  15.767  26.589  0.00  0.00    -0.442 OA
ATOM     29  C   UNL     1      -6.239  16.669  23.578  0.00  0.00    +0.108 C 
ATOM     30  C   UNL     1      -6.326  15.965  22.192  0.00  0.00    +0.014 C 
ATOM     31  C   UNL     1      -7.701  16.107  21.457  0.00  0.00    +0.061 C 
ATOM     32  C   UNL     1      -7.644  15.515  20.027  0.00  0.00    -0.024 C 
ATOM     33  H   UNL     1      -9.743  14.981  19.890  0.00  0.00    +0.030 HD
ATOM     34  H   UNL     1      -8.425  13.534  18.453  0.00  0.00    +0.030 HD
ATOM     35  H   UNL     1      -7.914  14.864  17.428  0.00  0.00    +0.030 HD
ATOM     36  H   UNL     1     -10.136  15.191  16.572  0.00  0.00    +0.074 HD
ATOM     37  H   UNL     1      -8.669  13.375  15.555  0.00  0.00    +0.041 HD
ATOM     38  H   UNL     1     -10.400  13.306  15.213  0.00  0.00    +0.041 HD
ATOM     39  H   UNL     1      -9.361   9.436  17.456  0.00  0.00    +0.074 HD
ATOM     40  H   UNL     1     -10.537  11.023  19.749  0.00  0.00    +0.036 HD
ATOM     41  H   UNL     1     -11.763  10.411  17.518  0.00  0.00    +0.060 HD
ATOM     42  H   UNL     1     -13.856   9.423  19.121  0.00  0.00    +0.033 HD
ATOM     43  H   UNL     1     -13.570  11.051  18.552  0.00  0.00    +0.033 HD
ATOM     44  H   UNL     1     -12.356  11.620  20.706  0.00  0.00    +0.057 HD
ATOM     45  H   UNL     1     -14.443   9.509  21.517  0.00  0.00    +0.067 HD
ATOM     46  H   UNL     1     -14.258  11.306  25.963  0.00  0.00    +0.105 HD
ATOM     47  H   UNL     1     -10.576  14.300  27.946  0.00  0.00    +0.105 HD
ATOM     48  H   UNL     1      -6.552  17.070  26.629  0.00  0.00    +0.105 HD
ATOM     49  H   UNL     1      -5.227  16.498  23.975  0.00  0.00    +0.067 HD
ATOM     50  H   UNL     1      -5.597  16.486  21.555  0.00  0.00    +0.035 HD
ATOM     51  H   UNL     1      -8.491  15.593  22.011  0.00  0.00    +0.060 HD
ATOM     52  H   UNL     1      -7.255  14.494  20.089  0.00  0.00    +0.029 HD
ATOM     53  H   UNL     1      -6.925  16.100  19.437  0.00  0.00    +0.029 HD
ENDROOT
BRANCH   1  54
ATOM     54  C   UNL     1      -9.486  16.809  18.795  0.00  0.00    -0.062 C 
ATOM     55  H   UNL     1      -9.864  16.782  17.768  0.00  0.00    +0.023 HD
ATOM     56  H   UNL     1      -8.692  17.556  18.852  0.00  0.00    +0.023 HD
ATOM     57  H   UNL     1     -10.288  17.177  19.444  0.00  0.00    +0.023 HD
ENDBRANCH   1  54
BRANCH  30  58
ATOM     58  C   UNL     1      -5.854  14.510  22.313  0.00  0.00    -0.057 C 
ATOM     59  H   UNL     1      -5.107  14.388  23.109  0.00  0.00    +0.023 HD
ATOM     60  H   UNL     1      -6.689  13.848  22.576  0.00  0.00    +0.023 HD
ATOM     61  H   UNL     1      -5.409  14.146  21.377  0.00  0.00    +0.023 HD
ENDBRANCH  30  58
BRANCH   9  62
ATOM     62  C   UNL     1     -10.247   8.959  20.275  0.00  0.00    -0.057 C 
ATOM     63  H   UNL     1     -10.126   9.391  21.275  0.00  0.00    +0.023 HD
ATOM     64  H   UNL     1      -9.355   8.362  20.048  0.00  0.00    +0.023 HD
ATOM     65  H   UNL     1     -11.096   8.270  20.333  0.00  0.00    +0.023 HD
ENDBRANCH   9  62
BRANCH   8  66
ATOM     66  C   UNL     1      -7.890  10.099  18.914  0.00  0.00    +0.011 C 
ATOM     67  H   UNL     1      -7.961   9.514  19.838  0.00  0.00    +0.033 HD
ATOM     68  H   UNL     1      -7.607  11.121  19.206  0.00  0.00    +0.033 HD
BRANCH  66  69
ATOM     69  C   UNL     1      -6.691   9.530  18.112  0.00  0.00    +0.064 C 
ATOM     70  H   UNL     1      -7.027   9.585  17.066  0.00  0.00    +0.060 HD
BRANCH  69  71
ATOM     71  C   UNL     1      -5.381  10.369  18.197  0.00  0.00    -0.017 C 
ATOM     72  H   UNL     1      -4.631   9.771  18.732  0.00  0.00    +0.032 HD
BRANCH  71  73
ATOM     73  C   UNL     1      -4.807  10.764  16.832  0.00  0.00    -0.060 C 
ATOM     74  H   UNL     1      -3.718  10.818  16.864  0.00  0.00    +0.023 HD
ATOM     75  H   UNL     1      -5.181  11.723  16.484  0.00  0.00    +0.023 HD
ATOM     76  H   UNL     1      -5.085  10.027  16.072  0.00  0.00    +0.023 HD
ENDBRANCH  71  73
BRANCH  71  77
ATOM     77  C   UNL     1      -5.665  11.652  19.036  0.00  0.00    -0.041 C 
ATOM     78  H   UNL     1      -5.044  11.639  19.942  0.00  0.00    +0.027 HD
ATOM     79  H   UNL     1      -6.706  11.628  19.377  0.00  0.00    +0.027 HD
BRANCH  77  80
ATOM     80  C   UNL     1      -5.436  12.982  18.312  0.00  0.00    +0.007 C 
ATOM     81  H   UNL     1      -5.411  12.828  17.233  0.00  0.00    +0.034 HD
ATOM     82  H   UNL     1      -6.282  13.639  18.535  0.00  0.00    +0.034 HD
BRANCH  80  83
ATOM     83  C   UNL     1      -4.181  13.711  18.772  0.00  0.00    +0.139 C 
ATOM     84  O   UNL     1      -3.695  13.517  19.892  0.00  0.00    -0.297 OA
BRANCH  83  85
ATOM     85  C   UNL     1      -3.522  14.727  17.834  0.00  0.00    +0.041 C 
ATOM     86  H   UNL     1      -3.546  14.279  16.834  0.00  0.00    +0.040 HD
BRANCH  85  87
ATOM     87  C   UNL     1      -2.041  14.912  18.172  0.00  0.00    -0.053 C 
ATOM     88  H   UNL     1      -1.411  14.514  17.370  0.00  0.00    +0.024 HD
ATOM     89  H   UNL     1      -1.806  15.974  18.293  0.00  0.00    +0.024 HD
ATOM     90  H   UNL     1      -1.756  14.397  19.097  0.00  0.00    +0.024 HD
ENDBRANCH  85  87
BRANCH  85  91
ATOM     91  C   UNL     1      -4.294  16.067  17.787  0.00  0.00    +0.074 C 
ATOM     92  H   UNL     1      -3.605  16.827  17.389  0.00  0.00    +0.061 HD
BRANCH  91  93
ATOM     93  C   UNL     1      -5.565  16.032  16.888  0.00  0.00    +0.003 C 
ATOM     94  H   UNL     1      -6.287  15.331  17.327  0.00  0.00    +0.037 HD
BRANCH  93  95
ATOM     95  C   UNL     1      -5.267  15.583  15.453  0.00  0.00    -0.057 C 
ATOM     96  H   UNL     1      -4.605  14.710  15.441  0.00  0.00    +0.024 HD
ATOM     97  H   UNL     1      -6.178  15.322  14.912  0.00  0.00    +0.024 HD
ATOM     98  H   UNL     1      -4.778  16.384  14.887  0.00  0.00    +0.024 HD
ENDBRANCH  93  95
BRANCH  93  99
ATOM     99  C   UNL     1      -6.224  17.402  16.817  0.00  0.00    -0.065 C 
ATOM    100  C   UNL     1      -5.579  18.496  16.381  0.00  0.00    -0.005 C 
ATOM    101  H   UNL     1      -7.252  17.444  17.160  0.00  0.00    +0.059 HD
ATOM    102  H   UNL     1      -4.541  18.393  16.061  0.00  0.00    +0.078 HD
BRANCH 100 103
ATOM    103  N   UNL     1      -6.074  19.787  16.297  0.00  0.00    -0.284 N 
ATOM    104  C   UNL     1      -7.413  20.136  16.177  0.00  0.00    +0.206 C 
ATOM    105  O   UNL     1      -7.862  21.271  16.222  0.00  0.00    -0.279 OA
ATOM    106  H   UNL     1      -8.081  19.275  16.035  0.00  0.00    +0.126 HD
BRANCH 103 107
ATOM    107  C   UNL     1      -5.117  20.875  16.454  0.00  0.00    +0.007 C 
ATOM    108  H   UNL     1      -5.303  21.452  17.365  0.00  0.00    +0.043 HD
ATOM    109  H   UNL     1      -5.172  21.556  15.598  0.00  0.00    +0.043 HD
ATOM    110  H   UNL     1      -4.117  20.436  16.516  0.00  0.00    +0.043 HD
ENDBRANCH 103 107
ENDBRANCH 100 103
ENDBRANCH  93  99
ENDBRANCH  91  93
BRANCH  91 111
ATOM    111  O   UNL     1      -4.674  16.410  19.132  0.00  0.00    -0.379 OA
BRANCH 111 112
ATOM    112  C   UNL     1      -3.957  17.524  19.653  0.00  0.00    +0.037 C 
ATOM    113  H   UNL     1      -3.175  17.789  18.941  0.00  0.00    +0.052 HD
ATOM    114  H   UNL     1      -4.626  18.381  19.773  0.00  0.00    +0.052 HD
ATOM    115  H   UNL     1      -3.491  17.277  20.610  0.00  0.00    +0.052 HD
ENDBRANCH 111 112
ENDBRANCH  91 111
ENDBRANCH  85  91
ENDBRANCH  83  85
ENDBRANCH  80  83
ENDBRANCH  77  80
ENDBRANCH  71  77
ENDBRANCH  69  71
BRANCH  69 116
ATOM    116  O   UNL     1      -6.422   8.170  18.453  0.00  0.00    -0.379 OA
BRANCH 116 117
ATOM    117  C   UNL     1      -6.819   7.846  19.782  0.00  0.00    +0.037 C 
ATOM    118  H   UNL     1      -5.921   7.699  20.385  0.00  0.00    +0.052 HD
ATOM    119  H   UNL     1      -7.398   6.918  19.791  0.00  0.00    +0.052 HD
ATOM    120  H   UNL     1      -7.407   8.660  20.221  0.00  0.00    +0.052 HD
ENDBRANCH 116 117
ENDBRANCH  69 116
ENDBRANCH  66  69
ENDBRANCH   8  66
BRANCH  31 121
ATOM    121  O   UNL     1      -8.080  17.481  21.348  0.00  0.00    -0.391 OA
ATOM    122  H   UNL     1      -8.857  17.550  20.750  0.00  0.00    +0.210 HD
ENDBRANCH  31 121
BRANCH  29 123
ATOM    123  O   UNL     1      -6.435  18.089  23.421  0.00  0.00    -0.373 OA
BRANCH 123 124
ATOM    124  C   UNL     1      -5.223  18.770  23.095  0.00  0.00    +0.037 C 
ATOM    125  H   UNL     1      -4.862  19.331  23.958  0.00  0.00    +0.052 HD
ATOM    126  H   UNL     1      -5.434  19.477  22.288  0.00  0.00    +0.052 HD
ATOM    127  H   UNL     1      -4.462  18.067  22.753  0.00  0.00    +0.052 HD
ENDBRANCH 123 124
ENDBRANCH  29 123
BRANCH  10 128
ATOM    128  O   UNL     1     -11.868   8.435  18.088  0.00  0.00    -0.379 OA
BRANCH 128 129
ATOM    129  C   UNL     1     -12.797   8.169  17.042  0.00  0.00    +0.037 C 
ATOM    130  H   UNL     1     -13.607   8.903  17.055  0.00  0.00    +0.052 HD
ATOM    131  H   UNL     1     -13.200   7.158  17.116  0.00  0.00    +0.052 HD
ATOM    132  H   UNL     1     -12.265   8.253  16.094  0.00  0.00    +0.052 HD
ENDBRANCH 128 129
ENDBRANCH  10 128
BRANCH   3 133
ATOM    133  O   UNL     1     -11.117  13.898  17.865  0.00  0.00    -0.447 OA
BRANCH 133 134
ATOM    134  C   UNL     1     -12.297  14.355  17.391  0.00  0.00    +0.398 C 
ATOM    135  O   UNL     1     -12.586  15.524  17.180  0.00  0.00    -0.227 OA
ATOM    136  N   UNL     1     -13.152  13.331  17.194  0.00  0.00    -0.295 N 
ATOM    137  H   UNL     1     -14.094  13.526  16.903  0.00  0.00    +0.148 HD
ATOM    138  H   UNL     1     -12.902  12.399  17.502  0.00  0.00    +0.148 HD
ENDBRANCH 133 134
ENDBRANCH   3 133
TORSDOF 29
ENDMDL
MODEL 10
REMARK VINA RESULT:      -5.2      3.040      5.241
REMARK  Name = Kabiramide C_conf3
REMARK  29 active torsions:
REMARK  status: ('A' for Active; 'I' for Inactive)
REMARK    1  A    between atoms: C_1  and  C_2
REMARK    2  A    between atoms: C_4  and  O_64
REMARK    3  A    between atoms: C_9  and  C_41
REMARK    4  A    between atoms: C_10  and  C_40
REMARK    5  A    between atoms: C_11  and  O_38
REMARK    6  A    between atoms: C_30  and  O_36
REMARK    7  A    between atoms: C_31  and  C_35
REMARK    8  A    between atoms: C_32  and  O_34
REMARK    9  A    between atoms: O_36  and  C_37
REMARK   10  A    between atoms: O_38  and  C_39
REMARK   11  A    between atoms: C_41  and  C_42
REMARK   12  A    between atoms: C_42  and  C_43
REMARK   13  A    between atoms: C_42  and  O_62
REMARK   14  A    between atoms: C_43  and  C_44
REMARK   15  A    between atoms: C_43  and  C_45
REMARK   16  A    between atoms: C_45  and  C_46
REMARK   17  A    between atoms: C_46  and  C_47
REMARK   18  A    between atoms: C_47  and  C_49
REMARK   19  A    between atoms: C_49  and  C_50
REMARK   20  A    between atoms: C_49  and  C_51
REMARK   21  A    between atoms: C_51  and  C_52
REMARK   22  A    between atoms: C_51  and  O_60
REMARK   23  A    between atoms: C_52  and  C_53
REMARK   24  A    between atoms: C_52  and  C_54
REMARK   25  A    between atoms: C_55  and  N_56
REMARK   26  A    between atoms: N_56  and  C_57
REMARK   27  A    between atoms: O_60  and  C_61
REMARK   28  A    between atoms: O_62  and  C_63
REMARK   29  A    between atoms: O_64  and  C_65
REMARK                            x       y       z     vdW  Elec       q    Type
REMARK                         _______ _______ _______ _____ _____    ______ ____
ROOT
ATOM      1  C   UNL     1      -8.981  16.617  20.384  0.00  0.00    -0.038 C 
ATOM      2  C   UNL     1      -7.780  16.761  19.407  0.00  0.00    -0.012 C 
ATOM      3  C   UNL     1      -8.034  16.393  17.929  0.00  0.00    +0.115 C 
ATOM      4  C   UNL     1      -6.752  16.450  17.077  0.00  0.00    +0.082 C 
ATOM      5  C   UNL     1      -5.806  15.273  17.164  0.00  0.00    +0.311 C 
ATOM      6  O   UNL     1      -5.096  14.914  16.229  0.00  0.00    -0.251 OA
ATOM      7  O   UNL     1      -5.819  14.696  18.383  0.00  0.00    -0.461 OA
ATOM      8  C   UNL     1      -4.907  13.612  18.687  0.00  0.00    +0.110 C 
ATOM      9  C   UNL     1      -5.796  12.323  18.792  0.00  0.00    +0.020 C 
ATOM     10  C   UNL     1      -6.183  11.817  17.369  0.00  0.00    +0.068 C 
ATOM     11  C   UNL     1      -7.481  10.959  17.245  0.00  0.00    -0.008 C 
ATOM     12  C   UNL     1      -8.233  10.639  18.498  0.00  0.00    -0.077 C 
ATOM     13  C   UNL     1      -8.595   9.407  18.894  0.00  0.00    -0.003 C 
ATOM     14  C   UNL     1      -9.244   9.243  20.149  0.00  0.00    +0.220 A 
ATOM     15  N   UNL     1      -9.309  10.164  21.096  0.00  0.00    -0.205 NA
ATOM     16  C   UNL     1     -10.001   9.585  22.128  0.00  0.00    +0.164 A 
ATOM     17  C   UNL     1     -10.357   8.314  21.784  0.00  0.00    +0.125 A 
ATOM     18  O   UNL     1      -9.885   8.078  20.526  0.00  0.00    -0.443 OA
ATOM     19  C   UNL     1     -10.326  10.321  23.457  0.00  0.00    +0.250 A 
ATOM     20  N   UNL     1     -10.004  11.588  23.655  0.00  0.00    -0.203 NA
ATOM     21  C   UNL     1     -10.487  11.874  24.903  0.00  0.00    +0.164 A 
ATOM     22  C   UNL     1     -11.067  10.756  25.444  0.00  0.00    +0.125 A 
ATOM     23  O   UNL     1     -10.975   9.749  24.525  0.00  0.00    -0.442 OA
ATOM     24  C   UNL     1     -10.395  13.272  25.581  0.00  0.00    +0.249 A 
ATOM     25  N   UNL     1      -9.875  14.332  24.993  0.00  0.00    -0.210 NA
ATOM     26  C   UNL     1     -10.008  15.356  25.895  0.00  0.00    +0.109 A 
ATOM     27  C   UNL     1     -10.609  14.862  27.031  0.00  0.00    +0.118 A 
ATOM     28  O   UNL     1     -10.865  13.536  26.846  0.00  0.00    -0.442 OA
ATOM     29  C   UNL     1      -9.542  16.761  25.633  0.00  0.00    +0.108 C 
ATOM     30  C   UNL     1      -8.663  16.969  24.364  0.00  0.00    +0.014 C 
ATOM     31  C   UNL     1      -9.369  16.648  23.004  0.00  0.00    +0.061 C 
ATOM     32  C   UNL     1      -8.479  17.032  21.797  0.00  0.00    -0.024 C 
ATOM     33  H   UNL     1      -9.273  15.557  20.416  0.00  0.00    +0.030 HD
ATOM     34  H   UNL     1      -6.990  16.119  19.805  0.00  0.00    +0.030 HD
ATOM     35  H   UNL     1      -7.400  17.788  19.448  0.00  0.00    +0.030 HD
ATOM     36  H   UNL     1      -8.710  17.163  17.532  0.00  0.00    +0.074 HD
ATOM     37  H   UNL     1      -6.183  17.359  17.297  0.00  0.00    +0.041 HD
ATOM     38  H   UNL     1      -7.053  16.498  16.023  0.00  0.00    +0.041 HD
ATOM     39  H   UNL     1      -4.161  13.466  17.903  0.00  0.00    +0.074 HD
ATOM     40  H   UNL     1      -6.710  12.638  19.307  0.00  0.00    +0.036 HD
ATOM     41  H   UNL     1      -6.331  12.685  16.717  0.00  0.00    +0.060 HD
ATOM     42  H   UNL     1      -7.277  10.033  16.688  0.00  0.00    +0.033 HD
ATOM     43  H   UNL     1      -8.175  11.530  16.613  0.00  0.00    +0.033 HD
ATOM     44  H   UNL     1      -8.508  11.490  19.128  0.00  0.00    +0.057 HD
ATOM     45  H   UNL     1      -8.376   8.527  18.307  0.00  0.00    +0.067 HD
ATOM     46  H   UNL     1     -10.900   7.513  22.260  0.00  0.00    +0.105 HD
ATOM     47  H   UNL     1     -11.561  10.527  26.375  0.00  0.00    +0.105 HD
ATOM     48  H   UNL     1     -10.903  15.280  27.980  0.00  0.00    +0.105 HD
ATOM     49  H   UNL     1      -8.929  17.028  26.508  0.00  0.00    +0.067 HD
ATOM     50  H   UNL     1      -8.443  18.045  24.335  0.00  0.00    +0.035 HD
ATOM     51  H   UNL     1      -9.605  15.583  22.932  0.00  0.00    +0.060 HD
ATOM     52  H   UNL     1      -7.496  16.569  21.929  0.00  0.00    +0.029 HD
ATOM     53  H   UNL     1      -8.327  18.120  21.808  0.00  0.00    +0.029 HD
ENDROOT
BRANCH   1  54
ATOM     54  C   UNL     1     -10.188  17.436  19.926  0.00  0.00    -0.062 C 
ATOM     55  H   UNL     1      -9.896  18.199  19.195  0.00  0.00    +0.023 HD
ATOM     56  H   UNL     1     -10.670  17.932  20.770  0.00  0.00    +0.023 HD
ATOM     57  H   UNL     1     -10.958  16.804  19.471  0.00  0.00    +0.023 HD
ENDBRANCH   1  54
BRANCH  30  58
ATOM     58  C   UNL     1      -7.320  16.245  24.531  0.00  0.00    -0.057 C 
ATOM     59  H   UNL     1      -7.453  15.225  24.916  0.00  0.00    +0.023 HD
ATOM     60  H   UNL     1      -6.808  16.141  23.566  0.00  0.00    +0.023 HD
ATOM     61  H   UNL     1      -6.651  16.778  25.218  0.00  0.00    +0.023 HD
ENDBRANCH  30  58
BRANCH   9  62
ATOM     62  C   UNL     1      -5.132  11.212  19.617  0.00  0.00    -0.057 C 
ATOM     63  H   UNL     1      -4.141  10.969  19.215  0.00  0.00    +0.023 HD
ATOM     64  H   UNL     1      -5.735  10.297  19.622  0.00  0.00    +0.023 HD
ATOM     65  H   UNL     1      -4.981  11.511  20.660  0.00  0.00    +0.023 HD
ENDBRANCH   9  62
BRANCH   8  66
ATOM     66  C   UNL     1      -4.213  13.989  20.014  0.00  0.00    +0.011 C 
ATOM     67  H   UNL     1      -3.701  13.118  20.439  0.00  0.00    +0.033 HD
ATOM     68  H   UNL     1      -5.010  14.265  20.719  0.00  0.00    +0.033 HD
BRANCH  66  69
ATOM     69  C   UNL     1      -3.198  15.160  20.028  0.00  0.00    +0.064 C 
ATOM     70  H   UNL     1      -2.890  15.226  21.083  0.00  0.00    +0.060 HD
BRANCH  69  71
ATOM     71  C   UNL     1      -1.898  14.919  19.205  0.00  0.00    -0.017 C 
ATOM     72  H   UNL     1      -1.654  13.850  19.264  0.00  0.00    +0.032 HD
BRANCH  71  73
ATOM     73  C   UNL     1      -2.018  15.312  17.728  0.00  0.00    -0.060 C 
ATOM     74  H   UNL     1      -2.902  14.862  17.272  0.00  0.00    +0.023 HD
ATOM     75  H   UNL     1      -1.151  15.014  17.145  0.00  0.00    +0.023 HD
ATOM     76  H   UNL     1      -2.103  16.399  17.627  0.00  0.00    +0.023 HD
ENDBRANCH  71  73
BRANCH  71  77
ATOM     77  C   UNL     1      -0.735  15.718  19.865  0.00  0.00    -0.041 C 
ATOM     78  H   UNL     1      -1.091  16.174  20.800  0.00  0.00    +0.027 HD
ATOM     79  H   UNL     1      -0.456  16.547  19.206  0.00  0.00    +0.027 HD
BRANCH  77  80
ATOM     80  C   UNL     1       0.533  14.913  20.173  0.00  0.00    +0.007 C 
ATOM     81  H   UNL     1       0.440  14.414  21.137  0.00  0.00    +0.034 HD
ATOM     82  H   UNL     1       0.636  14.140  19.406  0.00  0.00    +0.034 HD
BRANCH  80  83
ATOM     83  C   UNL     1       1.803  15.750  20.128  0.00  0.00    +0.139 C 
ATOM     84  O   UNL     1       1.797  16.914  19.712  0.00  0.00    -0.297 OA
BRANCH  83  85
ATOM     85  C   UNL     1       3.125  15.123  20.584  0.00  0.00    +0.041 C 
ATOM     86  H   UNL     1       3.390  14.381  19.821  0.00  0.00    +0.040 HD
BRANCH  85  87
ATOM     87  C   UNL     1       2.944  14.337  21.885  0.00  0.00    -0.053 C 
ATOM     88  H   UNL     1       2.399  13.406  21.699  0.00  0.00    +0.024 HD
ATOM     89  H   UNL     1       3.917  14.079  22.314  0.00  0.00    +0.024 HD
ATOM     90  H   UNL     1       2.382  14.900  22.638  0.00  0.00    +0.024 HD
ENDBRANCH  85  87
BRANCH  85  91
ATOM     91  C   UNL     1       4.267  16.163  20.670  0.00  0.00    +0.074 C 
ATOM     92  H   UNL     1       3.853  17.131  20.348  0.00  0.00    +0.061 HD
BRANCH  91  93
ATOM     93  C   UNL     1       4.862  16.330  22.100  0.00  0.00    +0.003 C 
ATOM     94  H   UNL     1       4.407  15.580  22.759  0.00  0.00    +0.037 HD
BRANCH  93  95
ATOM     95  C   UNL     1       4.600  17.719  22.694  0.00  0.00    -0.057 C 
ATOM     96  H   UNL     1       5.057  18.504  22.083  0.00  0.00    +0.024 HD
ATOM     97  H   UNL     1       3.532  17.932  22.772  0.00  0.00    +0.024 HD
ATOM     98  H   UNL     1       5.014  17.795  23.706  0.00  0.00    +0.024 HD
ENDBRANCH  93  95
BRANCH  93  99
ATOM     99  C   UNL     1       6.366  16.104  22.097  0.00  0.00    -0.065 C 
ATOM    100  C   UNL     1       7.246  17.065  22.419  0.00  0.00    -0.005 C 
ATOM    101  H   UNL     1       6.688  15.111  21.800  0.00  0.00    +0.059 HD
ATOM    102  H   UNL     1       6.862  18.048  22.699  0.00  0.00    +0.078 HD
BRANCH 100 103
ATOM    103  N   UNL     1       8.628  16.972  22.428  0.00  0.00    -0.284 N 
ATOM    104  C   UNL     1       9.364  15.856  22.805  0.00  0.00    +0.206 C 
ATOM    105  O   UNL     1      10.575  15.731  22.702  0.00  0.00    -0.279 OA
ATOM    106  H   UNL     1       8.750  15.045  23.221  0.00  0.00    +0.126 HD
BRANCH 103 107
ATOM    107  C   UNL     1       9.371  18.108  21.897  0.00  0.00    +0.007 C 
ATOM    108  H   UNL     1      10.433  17.874  21.765  0.00  0.00    +0.043 HD
ATOM    109  H   UNL     1       9.290  18.966  22.573  0.00  0.00    +0.043 HD
ATOM    110  H   UNL     1       8.945  18.362  20.922  0.00  0.00    +0.043 HD
ENDBRANCH 103 107
ENDBRANCH 100 103
ENDBRANCH  93  99
ENDBRANCH  91  93
BRANCH  91 111
ATOM    111  O   UNL     1       5.311  15.755  19.767  0.00  0.00    -0.379 OA
BRANCH 111 112
ATOM    112  C   UNL     1       4.935  14.670  18.926  0.00  0.00    +0.037 C 
ATOM    113  H   UNL     1       4.454  13.911  19.544  0.00  0.00    +0.052 HD
ATOM    114  H   UNL     1       4.223  15.007  18.168  0.00  0.00    +0.052 HD
ATOM    115  H   UNL     1       5.811  14.225  18.446  0.00  0.00    +0.052 HD
ENDBRANCH 111 112
ENDBRANCH  91 111
ENDBRANCH  85  91
ENDBRANCH  83  85
ENDBRANCH  80  83
ENDBRANCH  77  80
ENDBRANCH  71  77
ENDBRANCH  69  71
BRANCH  69 116
ATOM    116  O   UNL     1      -3.804  16.391  19.635  0.00  0.00    -0.379 OA
BRANCH 116 117
ATOM    117  C   UNL     1      -4.345  17.116  20.736  0.00  0.00    +0.037 C 
ATOM    118  H   UNL     1      -4.809  18.028  20.354  0.00  0.00    +0.052 HD
ATOM    119  H   UNL     1      -3.551  17.397  21.434  0.00  0.00    +0.052 HD
ATOM    120  H   UNL     1      -5.108  16.523  21.252  0.00  0.00    +0.052 HD
ENDBRANCH 116 117
ENDBRANCH  69 116
ENDBRANCH  66  69
ENDBRANCH   8  66
BRANCH  31 121
ATOM    121  O   UNL     1     -10.599  17.367  22.887  0.00  0.00    -0.391 OA
ATOM    122  H   UNL     1     -11.332  16.799  23.213  0.00  0.00    +0.210 HD
ENDBRANCH  31 121
BRANCH  29 123
ATOM    123  O   UNL     1     -10.684  17.639  25.588  0.00  0.00    -0.373 OA
BRANCH 123 124
ATOM    124  C   UNL     1     -10.392  18.935  26.111  0.00  0.00    +0.037 C 
ATOM    125  H   UNL     1     -10.067  19.601  25.310  0.00  0.00    +0.052 HD
ATOM    126  H   UNL     1      -9.577  18.839  26.832  0.00  0.00    +0.052 HD
ATOM    127  H   UNL     1     -11.262  19.352  26.622  0.00  0.00    +0.052 HD
ENDBRANCH 123 124
ENDBRANCH  29 123
BRANCH  10 128
ATOM    128  O   UNL     1      -5.064  11.066  16.849  0.00  0.00    -0.379 OA
BRANCH 128 129
ATOM    129  C   UNL     1      -5.442   9.811  16.293  0.00  0.00    +0.037 C 
ATOM    130  H   UNL     1      -5.578   9.069  17.082  0.00  0.00    +0.052 HD
ATOM    131  H   UNL     1      -4.706   9.461  15.567  0.00  0.00    +0.052 HD
ATOM    132  H   UNL     1      -6.390   9.948  15.774  0.00  0.00    +0.052 HD
ENDBRANCH 128 129
ENDBRANCH  10 128
BRANCH   3 133
ATOM    133  O   UNL     1      -8.683  15.112  17.844  0.00  0.00    -0.447 OA
BRANCH 133 134
ATOM    134  C   UNL     1      -9.665  15.005  16.922  0.00  0.00    +0.398 C 
ATOM    135  O   UNL     1     -10.746  15.574  16.951  0.00  0.00    -0.227 OA
ATOM    136  N   UNL     1      -9.301  14.150  15.945  0.00  0.00    -0.295 N 
ATOM    137  H   UNL     1      -9.960  13.922  15.221  0.00  0.00    +0.148 HD
ATOM    138  H   UNL     1      -8.446  13.614  16.037  0.00  0.00    +0.148 HD
ENDBRANCH 133 134
ENDBRANCH   3 133
TORSDOF 29
ENDMDL
