MODEL 1
REMARK VINA RESULT:      -5.2      0.000      0.000
REMARK  Name = Kabiramide C_conf2
REMARK  29 active torsions:
REMARK  status: ('A' for Active; 'I' for Inactive)
REMARK    1  A    between atoms: C_1  and  C_2
REMARK    2  A    between atoms: C_4  and  O_64
REMARK    3  A    between atoms: C_9  and  C_41
REMARK    4  A    between atoms: C_10  and  C_40
REMARK    5  A    between atoms: C_11  and  O_38
REMARK    6  A    between atoms: C_30  and  O_36
REMARK    7  A    between atoms: C_31  and  C_35
REMARK    8  A    between atoms: C_32  and  O_34
REMARK    9  A    between atoms: O_36  and  C_37
REMARK   10  A    between atoms: O_38  and  C_39
REMARK   11  A    between atoms: C_41  and  C_42
REMARK   12  A    between atoms: C_42  and  C_43
REMARK   13  A    between atoms: C_42  and  O_62
REMARK   14  A    between atoms: C_43  and  C_44
REMARK   15  A    between atoms: C_43  and  C_45
REMARK   16  A    between atoms: C_45  and  C_46
REMARK   17  A    between atoms: C_46  and  C_47
REMARK   18  A    between atoms: C_47  and  C_49
REMARK   19  A    between atoms: C_49  and  C_50
REMARK   20  A    between atoms: C_49  and  C_51
REMARK   21  A    between atoms: C_51  and  C_52
REMARK   22  A    between atoms: C_51  and  O_60
REMARK   23  A    between atoms: C_52  and  C_53
REMARK   24  A    between atoms: C_52  and  C_54
REMARK   25  A    between atoms: C_55  and  N_56
REMARK   26  A    between atoms: N_56  and  C_57
REMARK   27  A    between atoms: O_60  and  C_61
REMARK   28  A    between atoms: O_62  and  C_63
REMARK   29  A    between atoms: O_64  and  C_65
REMARK                            x       y       z     vdW  Elec       q    Type
REMARK                         _______ _______ _______ _____ _____    ______ ____
ROOT
ATOM      1  C   UNL     1     -10.530  15.226  21.382  0.00  0.00    -0.038 C 
ATOM      2  C   UNL     1     -10.508  15.381  19.846  0.00  0.00    -0.012 C 
ATOM      3  C   UNL     1      -9.485  14.535  19.057  0.00  0.00    +0.115 C 
ATOM      4  C   UNL     1      -9.731  13.028  19.204  0.00  0.00    +0.082 C 
ATOM      5  C   UNL     1      -8.683  12.210  18.480  0.00  0.00    +0.311 C 
ATOM      6  O   UNL     1      -8.087  12.557  17.470  0.00  0.00    -0.251 OA
ATOM      7  O   UNL     1      -8.542  10.984  19.076  0.00  0.00    -0.461 OA
ATOM      8  C   UNL     1      -7.519  10.127  18.522  0.00  0.00    +0.110 C 
ATOM      9  C   UNL     1      -7.809   8.633  18.892  0.00  0.00    +0.020 C 
ATOM     10  C   UNL     1      -9.091   8.073  18.181  0.00  0.00    +0.068 C 
ATOM     11  C   UNL     1     -10.438   8.626  18.703  0.00  0.00    -0.008 C 
ATOM     12  C   UNL     1     -10.680   8.356  20.169  0.00  0.00    -0.077 C 
ATOM     13  C   UNL     1     -10.660   9.337  21.078  0.00  0.00    -0.003 C 
ATOM     14  C   UNL     1     -10.804   9.140  22.474  0.00  0.00    +0.220 A 
ATOM     15  N   UNL     1     -10.333   9.997  23.361  0.00  0.00    -0.205 NA
ATOM     16  C   UNL     1     -10.776   9.554  24.578  0.00  0.00    +0.164 A 
ATOM     17  C   UNL     1     -11.462   8.383  24.418  0.00  0.00    +0.125 A 
ATOM     18  O   UNL     1     -11.470   8.087  23.082  0.00  0.00    -0.443 OA
ATOM     19  C   UNL     1     -10.558  10.387  25.873  0.00  0.00    +0.250 A 
ATOM     20  N   UNL     1      -9.848  11.495  25.836  0.00  0.00    -0.203 NA
ATOM     21  C   UNL     1     -10.093  12.099  27.037  0.00  0.00    +0.164 A 
ATOM     22  C   UNL     1     -10.839  11.271  27.831  0.00  0.00    +0.125 A 
ATOM     23  O   UNL     1     -11.123  10.141  27.105  0.00  0.00    -0.442 OA
ATOM     24  C   UNL     1      -9.671  13.572  27.283  0.00  0.00    +0.249 A 
ATOM     25  N   UNL     1      -8.981  14.227  26.365  0.00  0.00    -0.210 NA
ATOM     26  C   UNL     1      -9.091  15.548  26.717  0.00  0.00    +0.109 A 
ATOM     27  C   UNL     1      -9.700  15.620  27.953  0.00  0.00    +0.118 A 
ATOM     28  O   UNL     1     -10.055  14.357  28.338  0.00  0.00    -0.442 OA
ATOM     29  C   UNL     1      -8.580  16.633  25.810  0.00  0.00    +0.108 C 
ATOM     30  C   UNL     1      -9.300  16.689  24.408  0.00  0.00    +0.014 C 
ATOM     31  C   UNL     1      -9.021  15.412  23.550  0.00  0.00    +0.061 C 
ATOM     32  C   UNL     1      -9.141  15.501  22.009  0.00  0.00    -0.024 C 
ATOM     33  H   UNL     1     -10.817  14.192  21.609  0.00  0.00    +0.030 HD
ATOM     34  H   UNL     1     -10.349  16.442  19.609  0.00  0.00    +0.030 HD
ATOM     35  H   UNL     1     -11.507  15.159  19.449  0.00  0.00    +0.030 HD
ATOM     36  H   UNL     1      -8.456  14.763  19.364  0.00  0.00    +0.074 HD
ATOM     37  H   UNL     1     -10.704  12.750  18.784  0.00  0.00    +0.041 HD
ATOM     38  H   UNL     1      -9.707  12.749  20.261  0.00  0.00    +0.041 HD
ATOM     39  H   UNL     1      -7.563  10.192  17.426  0.00  0.00    +0.074 HD
ATOM     40  H   UNL     1      -7.965   8.555  19.973  0.00  0.00    +0.036 HD
ATOM     41  H   UNL     1      -9.008   8.311  17.111  0.00  0.00    +0.060 HD
ATOM     42  H   UNL     1     -10.516   9.696  18.483  0.00  0.00    +0.033 HD
ATOM     43  H   UNL     1     -11.268   8.161  18.158  0.00  0.00    +0.033 HD
ATOM     44  H   UNL     1     -10.833   7.320  20.464  0.00  0.00    +0.057 HD
ATOM     45  H   UNL     1     -10.459  10.358  20.775  0.00  0.00    +0.067 HD
ATOM     46  H   UNL     1     -11.980   7.697  25.071  0.00  0.00    +0.105 HD
ATOM     47  H   UNL     1     -11.265  11.328  28.822  0.00  0.00    +0.105 HD
ATOM     48  H   UNL     1      -9.966  16.427  28.618  0.00  0.00    +0.105 HD
ATOM     49  H   UNL     1      -7.512  16.445  25.627  0.00  0.00    +0.067 HD
ATOM     50  H   UNL     1     -10.378  16.766  24.601  0.00  0.00    +0.035 HD
ATOM     51  H   UNL     1      -7.989  15.092  23.751  0.00  0.00    +0.060 HD
ATOM     52  H   UNL     1      -8.478  14.713  21.626  0.00  0.00    +0.029 HD
ATOM     53  H   UNL     1      -8.712  16.431  21.620  0.00  0.00    +0.029 HD
ENDROOT
BRANCH   1  54
ATOM     54  C   UNL     1     -11.630  16.129  21.946  0.00  0.00    -0.062 C 
ATOM     55  H   UNL     1     -12.624  15.787  21.652  0.00  0.00    +0.023 HD
ATOM     56  H   UNL     1     -11.587  16.177  23.037  0.00  0.00    +0.023 HD
ATOM     57  H   UNL     1     -11.525  17.151  21.563  0.00  0.00    +0.023 HD
ENDBRANCH   1  54
BRANCH  30  58
ATOM     58  C   UNL     1      -8.875  17.977  23.680  0.00  0.00    -0.057 C 
ATOM     59  H   UNL     1      -9.739  18.558  23.348  0.00  0.00    +0.023 HD
ATOM     60  H   UNL     1      -8.306  18.645  24.335  0.00  0.00    +0.023 HD
ATOM     61  H   UNL     1      -8.252  17.748  22.808  0.00  0.00    +0.023 HD
ENDBRANCH  30  58
BRANCH   9  62
ATOM     62  C   UNL     1      -6.602   7.733  18.550  0.00  0.00    -0.057 C 
ATOM     63  H   UNL     1      -6.733   7.259  17.572  0.00  0.00    +0.023 HD
ATOM     64  H   UNL     1      -6.462   6.944  19.295  0.00  0.00    +0.023 HD
ATOM     65  H   UNL     1      -5.664   8.294  18.539  0.00  0.00    +0.023 HD
ENDBRANCH   9  62
BRANCH   8  66
ATOM     66  C   UNL     1      -6.123  10.646  18.962  0.00  0.00    +0.011 C 
ATOM     67  H   UNL     1      -5.514   9.786  19.266  0.00  0.00    +0.033 HD
ATOM     68  H   UNL     1      -6.251  11.258  19.862  0.00  0.00    +0.033 HD
BRANCH  66  69
ATOM     69  C   UNL     1      -5.339  11.431  17.885  0.00  0.00    +0.064 C 
ATOM     70  H   UNL     1      -6.048  11.856  17.167  0.00  0.00    +0.060 HD
BRANCH  69  71
ATOM     71  C   UNL     1      -4.545  12.602  18.538  0.00  0.00    -0.017 C 
ATOM     72  H   UNL     1      -3.477  12.372  18.420  0.00  0.00    +0.032 HD
BRANCH  71  73
ATOM     73  C   UNL     1      -4.816  13.948  17.855  0.00  0.00    -0.060 C 
ATOM     74  H   UNL     1      -5.627  14.482  18.357  0.00  0.00    +0.023 HD
ATOM     75  H   UNL     1      -5.096  13.816  16.805  0.00  0.00    +0.023 HD
ATOM     76  H   UNL     1      -3.938  14.601  17.894  0.00  0.00    +0.023 HD
ENDBRANCH  71  73
BRANCH  71  77
ATOM     77  C   UNL     1      -4.825  12.691  20.056  0.00  0.00    -0.041 C 
ATOM     78  H   UNL     1      -5.209  11.732  20.426  0.00  0.00    +0.027 HD
ATOM     79  H   UNL     1      -3.872  12.868  20.569  0.00  0.00    +0.027 HD
BRANCH  77  80
ATOM     80  C   UNL     1      -5.758  13.847  20.431  0.00  0.00    +0.007 C 
ATOM     81  H   UNL     1      -6.808  13.575  20.287  0.00  0.00    +0.034 HD
ATOM     82  H   UNL     1      -5.568  14.701  19.771  0.00  0.00    +0.034 HD
BRANCH  80  83
ATOM     83  C   UNL     1      -5.543  14.366  21.844  0.00  0.00    +0.139 C 
ATOM     84  O   UNL     1      -5.927  13.719  22.819  0.00  0.00    -0.297 OA
BRANCH  83  85
ATOM     85  C   UNL     1      -4.708  15.639  21.999  0.00  0.00    +0.041 C 
ATOM     86  H   UNL     1      -3.720  15.336  22.366  0.00  0.00    +0.040 HD
BRANCH  85  87
ATOM     87  C   UNL     1      -5.408  16.493  23.056  0.00  0.00    -0.053 C 
ATOM     88  H   UNL     1      -5.142  16.187  24.070  0.00  0.00    +0.024 HD
ATOM     89  H   UNL     1      -5.155  17.551  22.939  0.00  0.00    +0.024 HD
ATOM     90  H   UNL     1      -6.497  16.408  22.974  0.00  0.00    +0.024 HD
ENDBRANCH  85  87
BRANCH  85  91
ATOM     91  C   UNL     1      -4.537  16.337  20.629  0.00  0.00    +0.074 C 
ATOM     92  H   UNL     1      -4.856  15.656  19.828  0.00  0.00    +0.061 HD
BRANCH  91  93
ATOM     93  C   UNL     1      -5.361  17.653  20.477  0.00  0.00    +0.003 C 
ATOM     94  H   UNL     1      -5.548  18.055  21.481  0.00  0.00    +0.037 HD
BRANCH  93  95
ATOM     95  C   UNL     1      -6.737  17.380  19.854  0.00  0.00    -0.057 C 
ATOM     96  H   UNL     1      -6.649  17.251  18.771  0.00  0.00    +0.024 HD
ATOM     97  H   UNL     1      -7.443  18.194  20.043  0.00  0.00    +0.024 HD
ATOM     98  H   UNL     1      -7.174  16.462  20.264  0.00  0.00    +0.024 HD
ENDBRANCH  93  95
BRANCH  93  99
ATOM     99  C   UNL     1      -4.651  18.699  19.635  0.00  0.00    -0.065 C 
ATOM    100  C   UNL     1      -5.238  19.357  18.623  0.00  0.00    -0.005 C 
ATOM    101  H   UNL     1      -3.614  18.873  19.911  0.00  0.00    +0.059 HD
ATOM    102  H   UNL     1      -6.281  19.139  18.396  0.00  0.00    +0.078 HD
BRANCH 100 103
ATOM    103  N   UNL     1      -4.668  20.319  17.805  0.00  0.00    -0.284 N 
ATOM    104  C   UNL     1      -5.148  20.703  16.557  0.00  0.00    +0.206 C 
ATOM    105  O   UNL     1      -4.643  21.541  15.817  0.00  0.00    -0.279 OA
ATOM    106  H   UNL     1      -6.064  20.179  16.250  0.00  0.00    +0.126 HD
BRANCH 103 107
ATOM    107  C   UNL     1      -3.461  20.981  18.295  0.00  0.00    +0.007 C 
ATOM    108  H   UNL     1      -3.731  21.982  18.649  0.00  0.00    +0.043 HD
ATOM    109  H   UNL     1      -2.998  20.434  19.120  0.00  0.00    +0.043 HD
ATOM    110  H   UNL     1      -2.736  21.063  17.479  0.00  0.00    +0.043 HD
ENDBRANCH 103 107
ENDBRANCH 100 103
ENDBRANCH  93  99
ENDBRANCH  91  93
BRANCH  91 111
ATOM    111  O   UNL     1      -3.140  16.665  20.481  0.00  0.00    -0.379 OA
BRANCH 111 112
ATOM    112  C   UNL     1      -2.312  15.522  20.291  0.00  0.00    +0.037 C 
ATOM    113  H   UNL     1      -1.765  15.341  21.220  0.00  0.00    +0.052 HD
ATOM    114  H   UNL     1      -2.914  14.638  20.067  0.00  0.00    +0.052 HD
ATOM    115  H   UNL     1      -1.588  15.699  19.489  0.00  0.00    +0.052 HD
ENDBRANCH 111 112
ENDBRANCH  91 111
ENDBRANCH  85  91
ENDBRANCH  83  85
ENDBRANCH  80  83
ENDBRANCH  77  80
ENDBRANCH  71  77
ENDBRANCH  69  71
BRANCH  69 116
ATOM    116  O   UNL     1      -4.441  10.527  17.234  0.00  0.00    -0.379 OA
BRANCH 116 117
ATOM    117  C   UNL     1      -4.967   9.983  16.028  0.00  0.00    +0.037 C 
ATOM    118  H   UNL     1      -5.738   9.249  16.284  0.00  0.00    +0.052 HD
ATOM    119  H   UNL     1      -4.185   9.481  15.450  0.00  0.00    +0.052 HD
ATOM    120  H   UNL     1      -5.420  10.775  15.428  0.00  0.00    +0.052 HD
ENDBRANCH 116 117
ENDBRANCH  69 116
ENDBRANCH  66  69
ENDBRANCH   8  66
BRANCH  31 121
ATOM    121  O   UNL     1      -9.891  14.355  23.947  0.00  0.00    -0.391 OA
ATOM    122  H   UNL     1     -10.614  14.310  23.281  0.00  0.00    +0.210 HD
ENDBRANCH  31 121
BRANCH  29 123
ATOM    123  O   UNL     1      -8.735  17.914  26.459  0.00  0.00    -0.373 OA
BRANCH 123 124
ATOM    124  C   UNL     1      -7.527  18.377  27.047  0.00  0.00    +0.037 C 
ATOM    125  H   UNL     1      -7.741  19.311  27.573  0.00  0.00    +0.052 HD
ATOM    126  H   UNL     1      -7.138  17.652  27.765  0.00  0.00    +0.052 HD
ATOM    127  H   UNL     1      -6.785  18.580  26.272  0.00  0.00    +0.052 HD
ENDBRANCH 123 124
ENDBRANCH  29 123
BRANCH  10 128
ATOM    128  O   UNL     1      -9.103   6.637  18.327  0.00  0.00    -0.379 OA
BRANCH 128 129
ATOM    129  C   UNL     1      -9.700   5.953  17.234  0.00  0.00    +0.037 C 
ATOM    130  H   UNL     1      -9.277   4.953  17.115  0.00  0.00    +0.052 HD
ATOM    131  H   UNL     1      -9.493   6.523  16.324  0.00  0.00    +0.052 HD
ATOM    132  H   UNL     1     -10.785   5.892  17.364  0.00  0.00    +0.052 HD
ENDBRANCH 128 129
ENDBRANCH  10 128
BRANCH   3 133
ATOM    133  O   UNL     1      -9.646  14.869  17.656  0.00  0.00    -0.447 OA
BRANCH 133 134
ATOM    134  C   UNL     1      -8.914  15.916  17.211  0.00  0.00    +0.398 C 
ATOM    135  O   UNL     1      -9.214  17.095  17.280  0.00  0.00    -0.227 OA
ATOM    136  N   UNL     1      -7.771  15.467  16.649  0.00  0.00    -0.295 N 
ATOM    137  H   UNL     1      -7.562  14.482  16.667  0.00  0.00    +0.148 HD
ATOM    138  H   UNL     1      -7.105  16.135  16.291  0.00  0.00    +0.148 HD
ENDBRANCH 133 134
ENDBRANCH   3 133
TORSDOF 29
ENDMDL
MODEL 2
REMARK VINA RESULT:      -5.1      5.168     12.093
REMARK  Name = Kabiramide C_conf2
REMARK  29 active torsions:
REMARK  status: ('A' for Active; 'I' for Inactive)
REMARK    1  A    between atoms: C_1  and  C_2
REMARK    2  A    between atoms: C_4  and  O_64
REMARK    3  A    between atoms: C_9  and  C_41
REMARK    4  A    between atoms: C_10  and  C_40
REMARK    5  A    between atoms: C_11  and  O_38
REMARK    6  A    between atoms: C_30  and  O_36
REMARK    7  A    between atoms: C_31  and  C_35
REMARK    8  A    between atoms: C_32  and  O_34
REMARK    9  A    between atoms: O_36  and  C_37
REMARK   10  A    between atoms: O_38  and  C_39
REMARK   11  A    between atoms: C_41  and  C_42
REMARK   12  A    between atoms: C_42  and  C_43
REMARK   13  A    between atoms: C_42  and  O_62
REMARK   14  A    between atoms: C_43  and  C_44
REMARK   15  A    between atoms: C_43  and  C_45
REMARK   16  A    between atoms: C_45  and  C_46
REMARK   17  A    between atoms: C_46  and  C_47
REMARK   18  A    between atoms: C_47  and  C_49
REMARK   19  A    between atoms: C_49  and  C_50
REMARK   20  A    between atoms: C_49  and  C_51
REMARK   21  A    between atoms: C_51  and  C_52
REMARK   22  A    between atoms: C_51  and  O_60
REMARK   23  A    between atoms: C_52  and  C_53
REMARK   24  A    between atoms: C_52  and  C_54
REMARK   25  A    between atoms: C_55  and  N_56
REMARK   26  A    between atoms: N_56  and  C_57
REMARK   27  A    between atoms: O_60  and  C_61
REMARK   28  A    between atoms: O_62  and  C_63
REMARK   29  A    between atoms: O_64  and  C_65
REMARK                            x       y       z     vdW  Elec       q    Type
REMARK                         _______ _______ _______ _____ _____    ______ ____
ROOT
ATOM      1  C   UNL     1      -0.700  15.337  18.449  0.00  0.00    -0.038 C 
ATOM      2  C   UNL     1      -2.039  14.598  18.241  0.00  0.00    -0.012 C 
ATOM      3  C   UNL     1      -3.206  14.951  19.188  0.00  0.00    +0.115 C 
ATOM      4  C   UNL     1      -3.646  16.415  19.058  0.00  0.00    +0.082 C 
ATOM      5  C   UNL     1      -4.745  16.765  20.039  0.00  0.00    +0.311 C 
ATOM      6  O   UNL     1      -5.591  15.989  20.461  0.00  0.00    -0.251 OA
ATOM      7  O   UNL     1      -4.706  18.102  20.338  0.00  0.00    -0.461 OA
ATOM      8  C   UNL     1      -5.663  18.556  21.322  0.00  0.00    +0.110 C 
ATOM      9  C   UNL     1      -5.890  20.099  21.179  0.00  0.00    +0.020 C 
ATOM     10  C   UNL     1      -6.623  20.481  19.845  0.00  0.00    +0.068 C 
ATOM     11  C   UNL     1      -5.780  20.329  18.556  0.00  0.00    -0.008 C 
ATOM     12  C   UNL     1      -4.527  21.171  18.544  0.00  0.00    -0.077 C 
ATOM     13  C   UNL     1      -3.310  20.623  18.635  0.00  0.00    -0.003 C 
ATOM     14  C   UNL     1      -2.102  21.359  18.706  0.00  0.00    +0.220 A 
ATOM     15  N   UNL     1      -1.004  20.865  19.247  0.00  0.00    -0.205 NA
ATOM     16  C   UNL     1      -0.024  21.792  19.012  0.00  0.00    +0.164 A 
ATOM     17  C   UNL     1      -0.562  22.879  18.383  0.00  0.00    +0.125 A 
ATOM     18  O   UNL     1      -1.895  22.634  18.200  0.00  0.00    -0.443 OA
ATOM     19  C   UNL     1       1.464  21.507  19.363  0.00  0.00    +0.250 A 
ATOM     20  N   UNL     1       1.795  20.399  19.991  0.00  0.00    -0.203 NA
ATOM     21  C   UNL     1       3.156  20.339  19.885  0.00  0.00    +0.164 A 
ATOM     22  C   UNL     1       3.630  21.488  19.314  0.00  0.00    +0.125 A 
ATOM     23  O   UNL     1       2.549  22.273  18.998  0.00  0.00    -0.442 OA
ATOM     24  C   UNL     1       3.922  19.038  20.248  0.00  0.00    +0.249 A 
ATOM     25  N   UNL     1       3.272  18.005  20.757  0.00  0.00    -0.210 NA
ATOM     26  C   UNL     1       4.132  16.946  20.619  0.00  0.00    +0.109 A 
ATOM     27  C   UNL     1       5.351  17.427  20.192  0.00  0.00    +0.118 A 
ATOM     28  O   UNL     1       5.237  18.771  19.973  0.00  0.00    -0.442 OA
ATOM     29  C   UNL     1       3.682  15.544  20.928  0.00  0.00    +0.108 C 
ATOM     30  C   UNL     1       2.506  15.031  20.011  0.00  0.00    +0.014 C 
ATOM     31  C   UNL     1       1.185  15.836  20.241  0.00  0.00    +0.061 C 
ATOM     32  C   UNL     1      -0.170  15.171  19.895  0.00  0.00    -0.024 C 
ATOM     33  H   UNL     1      -0.875  16.403  18.261  0.00  0.00    +0.030 HD
ATOM     34  H   UNL     1      -1.850  13.517  18.299  0.00  0.00    +0.030 HD
ATOM     35  H   UNL     1      -2.382  14.760  17.210  0.00  0.00    +0.030 HD
ATOM     36  H   UNL     1      -2.947  14.746  20.235  0.00  0.00    +0.074 HD
ATOM     37  H   UNL     1      -4.034  16.617  18.053  0.00  0.00    +0.041 HD
ATOM     38  H   UNL     1      -2.798  17.077  19.252  0.00  0.00    +0.041 HD
ATOM     39  H   UNL     1      -6.630  18.077  21.116  0.00  0.00    +0.074 HD
ATOM     40  H   UNL     1      -4.920  20.607  21.185  0.00  0.00    +0.036 HD
ATOM     41  H   UNL     1      -7.511  19.840  19.758  0.00  0.00    +0.060 HD
ATOM     42  H   UNL     1      -5.546  19.274  18.381  0.00  0.00    +0.033 HD
ATOM     43  H   UNL     1      -6.372  20.637  17.686  0.00  0.00    +0.033 HD
ATOM     44  H   UNL     1      -4.654  22.251  18.498  0.00  0.00    +0.057 HD
ATOM     45  H   UNL     1      -3.201  19.548  18.728  0.00  0.00    +0.067 HD
ATOM     46  H   UNL     1      -0.185  23.818  18.006  0.00  0.00    +0.105 HD
ATOM     47  H   UNL     1       4.602  21.867  19.032  0.00  0.00    +0.105 HD
ATOM     48  H   UNL     1       6.308  16.976  19.975  0.00  0.00    +0.105 HD
ATOM     49  H   UNL     1       3.325  15.524  21.967  0.00  0.00    +0.067 HD
ATOM     50  H   UNL     1       2.829  15.156  18.969  0.00  0.00    +0.035 HD
ATOM     51  H   UNL     1       1.129  16.090  21.309  0.00  0.00    +0.060 HD
ATOM     52  H   UNL     1      -0.904  15.670  20.542  0.00  0.00    +0.029 HD
ATOM     53  H   UNL     1      -0.199  14.122  20.206  0.00  0.00    +0.029 HD
ENDROOT
BRANCH   1  54
ATOM     54  C   UNL     1       0.293  14.852  17.389  0.00  0.00    -0.062 C 
ATOM     55  H   UNL     1       0.950  14.073  17.778  0.00  0.00    +0.023 HD
ATOM     56  H   UNL     1      -0.223  14.464  16.507  0.00  0.00    +0.023 HD
ATOM     57  H   UNL     1       0.940  15.674  17.061  0.00  0.00    +0.023 HD
ENDBRANCH   1  54
BRANCH  30  58
ATOM     58  C   UNL     1       2.310  13.522  20.248  0.00  0.00    -0.057 C 
ATOM     59  H   UNL     1       2.519  12.941  19.345  0.00  0.00    +0.023 HD
ATOM     60  H   UNL     1       2.997  13.139  21.009  0.00  0.00    +0.023 HD
ATOM     61  H   UNL     1       1.287  13.305  20.575  0.00  0.00    +0.023 HD
ENDBRANCH  30  58
BRANCH   9  62
ATOM     62  C   UNL     1      -6.691  20.654  22.377  0.00  0.00    -0.057 C 
ATOM     63  H   UNL     1      -7.491  21.320  22.036  0.00  0.00    +0.023 HD
ATOM     64  H   UNL     1      -6.052  21.214  23.066  0.00  0.00    +0.023 HD
ATOM     65  H   UNL     1      -7.137  19.855  22.975  0.00  0.00    +0.023 HD
ENDBRANCH   9  62
BRANCH   8  66
ATOM     66  C   UNL     1      -5.206  18.094  22.732  0.00  0.00    +0.011 C 
ATOM     67  H   UNL     1      -4.916  18.980  23.309  0.00  0.00    +0.033 HD
ATOM     68  H   UNL     1      -4.295  17.495  22.620  0.00  0.00    +0.033 HD
BRANCH  66  69
ATOM     69  C   UNL     1      -6.264  17.316  23.549  0.00  0.00    +0.064 C 
ATOM     70  H   UNL     1      -5.938  16.276  23.654  0.00  0.00    +0.060 HD
BRANCH  69  71
ATOM     71  C   UNL     1      -6.406  17.929  24.975  0.00  0.00    -0.017 C 
ATOM     72  H   UNL     1      -7.169  18.717  24.911  0.00  0.00    +0.032 HD
BRANCH  71  73
ATOM     73  C   UNL     1      -6.873  16.901  26.011  0.00  0.00    -0.060 C 
ATOM     74  H   UNL     1      -7.588  16.201  25.571  0.00  0.00    +0.023 HD
ATOM     75  H   UNL     1      -7.356  17.384  26.868  0.00  0.00    +0.023 HD
ATOM     76  H   UNL     1      -6.037  16.302  26.387  0.00  0.00    +0.023 HD
ENDBRANCH  71  73
BRANCH  71  77
ATOM     77  C   UNL     1      -5.092  18.605  25.427  0.00  0.00    -0.041 C 
ATOM     78  H   UNL     1      -4.391  18.672  24.585  0.00  0.00    +0.027 HD
ATOM     79  H   UNL     1      -5.322  19.635  25.727  0.00  0.00    +0.027 HD
BRANCH  77  80
ATOM     80  C   UNL     1      -4.445  17.920  26.635  0.00  0.00    +0.007 C 
ATOM     81  H   UNL     1      -3.480  17.475  26.373  0.00  0.00    +0.034 HD
ATOM     82  H   UNL     1      -5.082  17.095  26.974  0.00  0.00    +0.034 HD
BRANCH  80  83
ATOM     83  C   UNL     1      -4.287  18.836  27.839  0.00  0.00    +0.139 C 
ATOM     84  O   UNL     1      -5.267  19.379  28.350  0.00  0.00    -0.297 OA
BRANCH  83  85
ATOM     85  C   UNL     1      -2.895  18.932  28.464  0.00  0.00    +0.041 C 
ATOM     86  H   UNL     1      -2.844  18.181  29.261  0.00  0.00    +0.040 HD
BRANCH  85  87
ATOM     87  C   UNL     1      -2.784  20.331  29.071  0.00  0.00    -0.053 C 
ATOM     88  H   UNL     1      -2.734  20.299  30.162  0.00  0.00    +0.024 HD
ATOM     89  H   UNL     1      -1.896  20.853  28.702  0.00  0.00    +0.024 HD
ATOM     90  H   UNL     1      -3.654  20.944  28.811  0.00  0.00    +0.024 HD
ENDBRANCH  85  87
BRANCH  85  91
ATOM     91  C   UNL     1      -1.810  18.612  27.408  0.00  0.00    +0.074 C 
ATOM     92  H   UNL     1      -2.268  18.080  26.563  0.00  0.00    +0.061 HD
BRANCH  91  93
ATOM     93  C   UNL     1      -1.089  19.870  26.833  0.00  0.00    +0.003 C 
ATOM     94  H   UNL     1      -1.167  20.675  27.574  0.00  0.00    +0.037 HD
BRANCH  93  95
ATOM     95  C   UNL     1      -1.783  20.378  25.562  0.00  0.00    -0.057 C 
ATOM     96  H   UNL     1      -1.724  21.469  25.502  0.00  0.00    +0.024 HD
ATOM     97  H   UNL     1      -2.838  20.092  25.528  0.00  0.00    +0.024 HD
ATOM     98  H   UNL     1      -1.301  19.969  24.666  0.00  0.00    +0.024 HD
ENDBRANCH  93  95
BRANCH  93  99
ATOM     99  C   UNL     1       0.374  19.615  26.511  0.00  0.00    -0.065 C 
ATOM    100  C   UNL     1       0.998  20.132  25.442  0.00  0.00    -0.005 C 
ATOM    101  H   UNL     1       0.885  18.966  27.219  0.00  0.00    +0.059 HD
ATOM    102  H   UNL     1       0.432  20.776  24.770  0.00  0.00    +0.078 HD
BRANCH 100 103
ATOM    103  N   UNL     1       2.321  19.950  25.073  0.00  0.00    -0.284 N 
ATOM    104  C   UNL     1       2.871  20.308  23.846  0.00  0.00    +0.206 C 
ATOM    105  O   UNL     1       4.036  20.137  23.502  0.00  0.00    -0.279 OA
ATOM    106  H   UNL     1       2.158  20.782  23.156  0.00  0.00    +0.126 HD
BRANCH 103 107
ATOM    107  C   UNL     1       3.207  19.328  26.053  0.00  0.00    +0.007 C 
ATOM    108  H   UNL     1       3.957  20.066  26.363  0.00  0.00    +0.043 HD
ATOM    109  H   UNL     1       2.666  18.988  26.940  0.00  0.00    +0.043 HD
ATOM    110  H   UNL     1       3.706  18.468  25.596  0.00  0.00    +0.043 HD
ENDBRANCH 103 107
ENDBRANCH 100 103
ENDBRANCH  93  99
ENDBRANCH  91  93
BRANCH  91 111
ATOM    111  O   UNL     1      -0.818  17.779  28.044  0.00  0.00    -0.379 OA
BRANCH 111 112
ATOM    112  C   UNL     1      -1.379  16.683  28.758  0.00  0.00    +0.037 C 
ATOM    113  H   UNL     1      -0.596  15.933  28.900  0.00  0.00    +0.052 HD
ATOM    114  H   UNL     1      -1.736  17.000  29.741  0.00  0.00    +0.052 HD
ATOM    115  H   UNL     1      -2.197  16.229  28.189  0.00  0.00    +0.052 HD
ENDBRANCH 111 112
ENDBRANCH  91 111
ENDBRANCH  85  91
ENDBRANCH  83  85
ENDBRANCH  80  83
ENDBRANCH  77  80
ENDBRANCH  71  77
ENDBRANCH  69  71
BRANCH  69 116
ATOM    116  O   UNL     1      -7.513  17.387  22.852  0.00  0.00    -0.379 OA
BRANCH 116 117
ATOM    117  C   UNL     1      -8.183  16.134  22.771  0.00  0.00    +0.037 C 
ATOM    118  H   UNL     1      -9.263  16.316  22.775  0.00  0.00    +0.052 HD
ATOM    119  H   UNL     1      -7.931  15.499  23.626  0.00  0.00    +0.052 HD
ATOM    120  H   UNL     1      -7.915  15.628  21.841  0.00  0.00    +0.052 HD
ENDBRANCH 116 117
ENDBRANCH  69 116
ENDBRANCH  66  69
ENDBRANCH   8  66
BRANCH  31 121
ATOM    121  O   UNL     1       1.219  17.055  19.503  0.00  0.00    -0.391 OA
ATOM    122  H   UNL     1       1.728  17.704  20.039  0.00  0.00    +0.210 HD
ENDBRANCH  31 121
BRANCH  29 123
ATOM    123  O   UNL     1       4.801  14.640  20.790  0.00  0.00    -0.373 OA
BRANCH 123 124
ATOM    124  C   UNL     1       5.166  14.429  19.433  0.00  0.00    +0.037 C 
ATOM    125  H   UNL     1       6.092  14.976  19.240  0.00  0.00    +0.052 HD
ATOM    126  H   UNL     1       5.338  13.369  19.234  0.00  0.00    +0.052 HD
ATOM    127  H   UNL     1       4.391  14.818  18.769  0.00  0.00    +0.052 HD
ENDBRANCH 123 124
ENDBRANCH  29 123
BRANCH  10 128
ATOM    128  O   UNL     1      -7.061  21.853  19.941  0.00  0.00    -0.379 OA
BRANCH 128 129
ATOM    129  C   UNL     1      -8.155  22.168  19.091  0.00  0.00    +0.037 C 
ATOM    130  H   UNL     1      -8.065  21.663  18.127  0.00  0.00    +0.052 HD
ATOM    131  H   UNL     1      -8.145  23.248  18.914  0.00  0.00    +0.052 HD
ATOM    132  H   UNL     1      -9.103  21.905  19.569  0.00  0.00    +0.052 HD
ENDBRANCH 128 129
ENDBRANCH  10 128
BRANCH   3 133
ATOM    133  O   UNL     1      -4.331  14.121  18.807  0.00  0.00    -0.447 OA
BRANCH 133 134
ATOM    134  C   UNL     1      -4.468  12.962  19.491  0.00  0.00    +0.398 C 
ATOM    135  O   UNL     1      -4.775  11.877  19.029  0.00  0.00    -0.227 OA
ATOM    136  N   UNL     1      -4.223  13.174  20.801  0.00  0.00    -0.295 N 
ATOM    137  H   UNL     1      -3.927  14.085  21.111  0.00  0.00    +0.148 HD
ATOM    138  H   UNL     1      -4.260  12.394  21.440  0.00  0.00    +0.148 HD
ENDBRANCH 133 134
ENDBRANCH   3 133
TORSDOF 29
ENDMDL
MODEL 3
REMARK VINA RESULT:      -5.1      5.274     11.935
REMARK  Name = Kabiramide C_conf2
REMARK  29 active torsions:
REMARK  status: ('A' for Active; 'I' for Inactive)
REMARK    1  A    between atoms: C_1  and  C_2
REMARK    2  A    between atoms: C_4  and  O_64
REMARK    3  A    between atoms: C_9  and  C_41
REMARK    4  A    between atoms: C_10  and  C_40
REMARK    5  A    between atoms: C_11  and  O_38
REMARK    6  A    between atoms: C_30  and  O_36
REMARK    7  A    between atoms: C_31  and  C_35
REMARK    8  A    between atoms: C_32  and  O_34
REMARK    9  A    between atoms: O_36  and  C_37
REMARK   10  A    between atoms: O_38  and  C_39
REMARK   11  A    between atoms: C_41  and  C_42
REMARK   12  A    between atoms: C_42  and  C_43
REMARK   13  A    between atoms: C_42  and  O_62
REMARK   14  A    between atoms: C_43  and  C_44
REMARK   15  A    between atoms: C_43  and  C_45
REMARK   16  A    between atoms: C_45  and  C_46
REMARK   17  A    between atoms: C_46  and  C_47
REMARK   18  A    between atoms: C_47  and  C_49
REMARK   19  A    between atoms: C_49  and  C_50
REMARK   20  A    between atoms: C_49  and  C_51
REMARK   21  A    between atoms: C_51  and  C_52
REMARK   22  A    between atoms: C_51  and  O_60
REMARK   23  A    between atoms: C_52  and  C_53
REMARK   24  A    between atoms: C_52  and  C_54
REMARK   25  A    between atoms: C_55  and  N_56
REMARK   26  A    between atoms: N_56  and  C_57
REMARK   27  A    between atoms: O_60  and  C_61
REMARK   28  A    between atoms: O_62  and  C_63
REMARK   29  A    between atoms: O_64  and  C_65
REMARK                            x       y       z     vdW  Elec       q    Type
REMARK                         _______ _______ _______ _____ _____    ______ ____
ROOT
ATOM      1  C   UNL     1     -11.600   3.331  16.003  0.00  0.00    -0.038 C 
ATOM      2  C   UNL     1     -12.395   3.853  17.218  0.00  0.00    -0.012 C 
ATOM      3  C   UNL     1     -11.825   5.070  17.977  0.00  0.00    +0.115 C 
ATOM      4  C   UNL     1     -11.754   6.327  17.101  0.00  0.00    +0.082 C 
ATOM      5  C   UNL     1     -11.131   7.495  17.837  0.00  0.00    +0.311 C 
ATOM      6  O   UNL     1     -11.196   7.688  19.043  0.00  0.00    -0.251 OA
ATOM      7  O   UNL     1     -10.539   8.355  16.949  0.00  0.00    -0.461 OA
ATOM      8  C   UNL     1      -9.844   9.482  17.529  0.00  0.00    +0.110 C 
ATOM      9  C   UNL     1      -9.696  10.626  16.471  0.00  0.00    +0.020 C 
ATOM     10  C   UNL     1     -11.072  11.280  16.094  0.00  0.00    +0.068 C 
ATOM     11  C   UNL     1     -12.015  10.401  15.239  0.00  0.00    -0.008 C 
ATOM     12  C   UNL     1     -11.426   9.986  13.912  0.00  0.00    -0.077 C 
ATOM     13  C   UNL     1     -11.072   8.720  13.665  0.00  0.00    -0.003 C 
ATOM     14  C   UNL     1     -10.446   8.281  12.472  0.00  0.00    +0.220 A 
ATOM     15  N   UNL     1      -9.705   7.190  12.423  0.00  0.00    -0.205 NA
ATOM     16  C   UNL     1      -9.391   7.012  11.103  0.00  0.00    +0.164 A 
ATOM     17  C   UNL     1      -9.895   8.048  10.368  0.00  0.00    +0.125 A 
ATOM     18  O   UNL     1     -10.553   8.885  11.227  0.00  0.00    -0.443 OA
ATOM     19  C   UNL     1      -8.650   5.737  10.609  0.00  0.00    +0.250 A 
ATOM     20  N   UNL     1      -8.218   4.846  11.475  0.00  0.00    -0.203 NA
ATOM     21  C   UNL     1      -7.886   3.760  10.713  0.00  0.00    +0.164 A 
ATOM     22  C   UNL     1      -7.994   4.073   9.386  0.00  0.00    +0.125 A 
ATOM     23  O   UNL     1      -8.458   5.363   9.298  0.00  0.00    -0.442 OA
ATOM     24  C   UNL     1      -7.601   2.385  11.375  0.00  0.00    +0.249 A 
ATOM     25  N   UNL     1      -7.580   2.275  12.692  0.00  0.00    -0.210 NA
ATOM     26  C   UNL     1      -7.670   0.928  12.933  0.00  0.00    +0.109 A 
ATOM     27  C   UNL     1      -7.556   0.261  11.731  0.00  0.00    +0.118 A 
ATOM     28  O   UNL     1      -7.487   1.185  10.726  0.00  0.00    -0.442 OA
ATOM     29  C   UNL     1      -7.852   0.405  14.332  0.00  0.00    +0.108 C 
ATOM     30  C   UNL     1      -9.193   0.870  15.020  0.00  0.00    +0.014 C 
ATOM     31  C   UNL     1      -9.228   2.415  15.260  0.00  0.00    +0.061 C 
ATOM     32  C   UNL     1     -10.138   2.981  16.378  0.00  0.00    -0.024 C 
ATOM     33  H   UNL     1     -11.586   4.126  15.247  0.00  0.00    +0.030 HD
ATOM     34  H   UNL     1     -12.527   3.023  17.926  0.00  0.00    +0.030 HD
ATOM     35  H   UNL     1     -13.416   4.103  16.898  0.00  0.00    +0.030 HD
ATOM     36  H   UNL     1     -10.827   4.857  18.381  0.00  0.00    +0.074 HD
ATOM     37  H   UNL     1     -12.756   6.641  16.788  0.00  0.00    +0.041 HD
ATOM     38  H   UNL     1     -11.149   6.128  16.213  0.00  0.00    +0.041 HD
ATOM     39  H   UNL     1     -10.456   9.887  18.347  0.00  0.00    +0.074 HD
ATOM     40  H   UNL     1      -9.259  10.215  15.555  0.00  0.00    +0.036 HD
ATOM     41  H   UNL     1     -11.588  11.536  17.030  0.00  0.00    +0.060 HD
ATOM     42  H   UNL     1     -12.340   9.528  15.815  0.00  0.00    +0.033 HD
ATOM     43  H   UNL     1     -12.936  10.952  15.015  0.00  0.00    +0.033 HD
ATOM     44  H   UNL     1     -11.264  10.769  13.175  0.00  0.00    +0.057 HD
ATOM     45  H   UNL     1     -11.197   7.959  14.427  0.00  0.00    +0.067 HD
ATOM     46  H   UNL     1      -9.904   8.321   9.323  0.00  0.00    +0.105 HD
ATOM     47  H   UNL     1      -7.850   3.546   8.454  0.00  0.00    +0.105 HD
ATOM     48  H   UNL     1      -7.546  -0.778  11.441  0.00  0.00    +0.105 HD
ATOM     49  H   UNL     1      -7.019   0.779  14.944  0.00  0.00    +0.067 HD
ATOM     50  H   UNL     1     -10.015   0.590  14.348  0.00  0.00    +0.035 HD
ATOM     51  H   UNL     1      -8.209   2.738  15.513  0.00  0.00    +0.060 HD
ATOM     52  H   UNL     1      -9.669   3.930  16.672  0.00  0.00    +0.029 HD
ATOM     53  H   UNL     1     -10.102   2.366  17.283  0.00  0.00    +0.029 HD
ENDROOT
BRANCH   1  54
ATOM     54  C   UNL     1     -12.360   2.149  15.395  0.00  0.00    -0.062 C 
ATOM     55  H   UNL     1     -12.157   1.220  15.931  0.00  0.00    +0.023 HD
ATOM     56  H   UNL     1     -13.439   2.324  15.400  0.00  0.00    +0.023 HD
ATOM     57  H   UNL     1     -12.054   1.985  14.355  0.00  0.00    +0.023 HD
ENDBRANCH   1  54
BRANCH  30  58
ATOM     58  C   UNL     1      -9.384   0.079  16.327  0.00  0.00    -0.057 C 
ATOM     59  H   UNL     1      -8.802   0.508  17.147  0.00  0.00    +0.023 HD
ATOM     60  H   UNL     1     -10.425   0.098  16.664  0.00  0.00    +0.023 HD
ATOM     61  H   UNL     1      -9.088  -0.969  16.200  0.00  0.00    +0.023 HD
ENDBRANCH  30  58
BRANCH   9  62
ATOM     62  C   UNL     1      -8.732  11.723  16.972  0.00  0.00    -0.057 C 
ATOM     63  H   UNL     1      -7.702  11.504  16.671  0.00  0.00    +0.023 HD
ATOM     64  H   UNL     1      -8.755  11.816  18.062  0.00  0.00    +0.023 HD
ATOM     65  H   UNL     1      -9.001  12.711  16.589  0.00  0.00    +0.023 HD
ENDBRANCH   9  62
BRANCH   8  66
ATOM     66  C   UNL     1      -8.507   8.994  18.150  0.00  0.00    +0.011 C 
ATOM     67  H   UNL     1      -8.739   8.304  18.971  0.00  0.00    +0.033 HD
ATOM     68  H   UNL     1      -8.006   9.853  18.610  0.00  0.00    +0.033 HD
BRANCH  66  69
ATOM     69  C   UNL     1      -7.548   8.272  17.175  0.00  0.00    +0.064 C 
ATOM     70  H   UNL     1      -7.839   8.511  16.147  0.00  0.00    +0.060 HD
BRANCH  69  71
ATOM     71  C   UNL     1      -6.084   8.759  17.393  0.00  0.00    -0.017 C 
ATOM     72  H   UNL     1      -5.486   7.875  17.649  0.00  0.00    +0.032 HD
BRANCH  71  73
ATOM     73  C   UNL     1      -5.481   9.389  16.132  0.00  0.00    -0.060 C 
ATOM     74  H   UNL     1      -5.306  10.457  16.276  0.00  0.00    +0.023 HD
ATOM     75  H   UNL     1      -6.142   9.267  15.267  0.00  0.00    +0.023 HD
ATOM     76  H   UNL     1      -4.513   8.942  15.885  0.00  0.00    +0.023 HD
ENDBRANCH  71  73
BRANCH  71  77
ATOM     77  C   UNL     1      -5.991   9.733  18.590  0.00  0.00    -0.041 C 
ATOM     78  H   UNL     1      -6.995   9.972  18.962  0.00  0.00    +0.027 HD
ATOM     79  H   UNL     1      -5.466   9.222  19.406  0.00  0.00    +0.027 HD
BRANCH  77  80
ATOM     80  C   UNL     1      -5.197  11.005  18.274  0.00  0.00    +0.007 C 
ATOM     81  H   UNL     1      -5.267  11.265  17.214  0.00  0.00    +0.034 HD
ATOM     82  H   UNL     1      -4.134  10.834  18.479  0.00  0.00    +0.034 HD
BRANCH  80  83
ATOM     83  C   UNL     1      -5.593  12.196  19.132  0.00  0.00    +0.139 C 
ATOM     84  O   UNL     1      -6.721  12.273  19.622  0.00  0.00    -0.297 OA
BRANCH  83  85
ATOM     85  C   UNL     1      -4.496  13.205  19.473  0.00  0.00    +0.041 C 
ATOM     86  H   UNL     1      -3.557  12.814  19.064  0.00  0.00    +0.040 HD
BRANCH  85  87
ATOM     87  C   UNL     1      -4.409  13.256  20.998  0.00  0.00    -0.053 C 
ATOM     88  H   UNL     1      -5.213  13.854  21.433  0.00  0.00    +0.024 HD
ATOM     89  H   UNL     1      -4.456  12.252  21.430  0.00  0.00    +0.024 HD
ATOM     90  H   UNL     1      -3.465  13.707  21.325  0.00  0.00    +0.024 HD
ENDBRANCH  85  87
BRANCH  85  91
ATOM     91  C   UNL     1      -4.798  14.570  18.809  0.00  0.00    +0.074 C 
ATOM     92  H   UNL     1      -5.766  14.945  19.168  0.00  0.00    +0.061 HD
BRANCH  91  93
ATOM     93  C   UNL     1      -3.732  15.671  19.102  0.00  0.00    +0.003 C 
ATOM     94  H   UNL     1      -3.554  15.693  20.184  0.00  0.00    +0.037 HD
BRANCH  93  95
ATOM     95  C   UNL     1      -4.250  17.063  18.717  0.00  0.00    -0.057 C 
ATOM     96  H   UNL     1      -5.267  17.212  19.094  0.00  0.00    +0.024 HD
ATOM     97  H   UNL     1      -4.265  17.213  17.634  0.00  0.00    +0.024 HD
ATOM     98  H   UNL     1      -3.617  17.847  19.150  0.00  0.00    +0.024 HD
ENDBRANCH  93  95
BRANCH  93  99
ATOM     99  C   UNL     1      -2.420  15.429  18.375  0.00  0.00    -0.065 C 
ATOM    100  C   UNL     1      -1.243  15.283  19.002  0.00  0.00    -0.005 C 
ATOM    101  H   UNL     1      -2.506  15.390  17.292  0.00  0.00    +0.059 HD
ATOM    102  H   UNL     1      -1.223  15.331  20.090  0.00  0.00    +0.078 HD
BRANCH 100 103
ATOM    103  N   UNL     1      -0.005  15.063  18.421  0.00  0.00    -0.284 N 
ATOM    104  C   UNL     1       1.193  14.907  19.112  0.00  0.00    +0.206 C 
ATOM    105  O   UNL     1       2.297  14.729  18.608  0.00  0.00    -0.279 OA
ATOM    106  H   UNL     1       1.089  14.957  20.205  0.00  0.00    +0.126 HD
BRANCH 103 107
ATOM    107  C   UNL     1       0.045  14.994  16.962  0.00  0.00    +0.007 C 
ATOM    108  H   UNL     1       0.665  14.137  16.675  0.00  0.00    +0.043 HD
ATOM    109  H   UNL     1      -0.947  14.868  16.523  0.00  0.00    +0.043 HD
ATOM    110  H   UNL     1       0.487  15.915  16.571  0.00  0.00    +0.043 HD
ENDBRANCH 103 107
ENDBRANCH 100 103
ENDBRANCH  93  99
ENDBRANCH  91  93
BRANCH  91 111
ATOM    111  O   UNL     1      -4.841  14.357  17.383  0.00  0.00    -0.379 OA
BRANCH 111 112
ATOM    112  C   UNL     1      -6.073  14.758  16.792  0.00  0.00    +0.037 C 
ATOM    113  H   UNL     1      -5.900  15.687  16.241  0.00  0.00    +0.052 HD
ATOM    114  H   UNL     1      -6.433  14.002  16.090  0.00  0.00    +0.052 HD
ATOM    115  H   UNL     1      -6.828  14.947  17.563  0.00  0.00    +0.052 HD
ENDBRANCH 111 112
ENDBRANCH  91 111
ENDBRANCH  85  91
ENDBRANCH  83  85
ENDBRANCH  80  83
ENDBRANCH  77  80
ENDBRANCH  71  77
ENDBRANCH  69  71
BRANCH  69 116
ATOM    116  O   UNL     1      -7.641   6.863  17.412  0.00  0.00    -0.379 OA
BRANCH 116 117
ATOM    117  C   UNL     1      -7.951   6.115  16.241  0.00  0.00    +0.037 C 
ATOM    118  H   UNL     1      -7.050   6.047  15.623  0.00  0.00    +0.052 HD
ATOM    119  H   UNL     1      -8.738   6.606  15.660  0.00  0.00    +0.052 HD
ATOM    120  H   UNL     1      -8.267   5.106  16.516  0.00  0.00    +0.052 HD
ENDBRANCH 116 117
ENDBRANCH  69 116
ENDBRANCH  66  69
ENDBRANCH   8  66
BRANCH  31 121
ATOM    121  O   UNL     1      -9.617   3.088  14.065  0.00  0.00    -0.391 OA
ATOM    122  H   UNL     1      -9.078   3.909  14.008  0.00  0.00    +0.210 HD
ENDBRANCH  31 121
BRANCH  29 123
ATOM    123  O   UNL     1      -7.821  -1.039  14.313  0.00  0.00    -0.373 OA
BRANCH 123 124
ATOM    124  C   UNL     1      -6.575  -1.562  14.751  0.00  0.00    +0.037 C 
ATOM    125  H   UNL     1      -5.867  -1.495  13.920  0.00  0.00    +0.052 HD
ATOM    126  H   UNL     1      -6.183  -0.989  15.593  0.00  0.00    +0.052 HD
ATOM    127  H   UNL     1      -6.684  -2.614  15.025  0.00  0.00    +0.052 HD
ENDBRANCH 123 124
ENDBRANCH  29 123
BRANCH  10 128
ATOM    128  O   UNL     1     -10.813  12.502  15.371  0.00  0.00    -0.379 OA
BRANCH 128 129
ATOM    129  C   UNL     1     -11.849  13.469  15.486  0.00  0.00    +0.037 C 
ATOM    130  H   UNL     1     -12.834  12.998  15.456  0.00  0.00    +0.052 HD
ATOM    131  H   UNL     1     -11.769  14.152  14.635  0.00  0.00    +0.052 HD
ATOM    132  H   UNL     1     -11.734  14.049  16.407  0.00  0.00    +0.052 HD
ENDBRANCH 128 129
ENDBRANCH  10 128
BRANCH   3 133
ATOM    133  O   UNL     1     -12.730   5.351  19.073  0.00  0.00    -0.447 OA
BRANCH 133 134
ATOM    134  C   UNL     1     -12.460   4.720  20.239  0.00  0.00    +0.398 C 
ATOM    135  O   UNL     1     -12.940   3.669  20.625  0.00  0.00    -0.227 OA
ATOM    136  N   UNL     1     -11.566   5.440  20.951  0.00  0.00    -0.295 N 
ATOM    137  H   UNL     1     -11.172   6.277  20.553  0.00  0.00    +0.148 HD
ATOM    138  H   UNL     1     -11.244   5.083  21.838  0.00  0.00    +0.148 HD
ENDBRANCH 133 134
ENDBRANCH   3 133
TORSDOF 29
ENDMDL
MODEL 4
REMARK VINA RESULT:      -5.0      4.464     10.921
REMARK  Name = Kabiramide C_conf2
REMARK  29 active torsions:
REMARK  status: ('A' for Active; 'I' for Inactive)
REMARK    1  A    between atoms: C_1  and  C_2
REMARK    2  A    between atoms: C_4  and  O_64
REMARK    3  A    between atoms: C_9  and  C_41
REMARK    4  A    between atoms: C_10  and  C_40
REMARK    5  A    between atoms: C_11  and  O_38
REMARK    6  A    between atoms: C_30  and  O_36
REMARK    7  A    between atoms: C_31  and  C_35
REMARK    8  A    between atoms: C_32  and  O_34
REMARK    9  A    between atoms: O_36  and  C_37
REMARK   10  A    between atoms: O_38  and  C_39
REMARK   11  A    between atoms: C_41  and  C_42
REMARK   12  A    between atoms: C_42  and  C_43
REMARK   13  A    between atoms: C_42  and  O_62
REMARK   14  A    between atoms: C_43  and  C_44
REMARK   15  A    between atoms: C_43  and  C_45
REMARK   16  A    between atoms: C_45  and  C_46
REMARK   17  A    between atoms: C_46  and  C_47
REMARK   18  A    between atoms: C_47  and  C_49
REMARK   19  A    between atoms: C_49  and  C_50
REMARK   20  A    between atoms: C_49  and  C_51
REMARK   21  A    between atoms: C_51  and  C_52
REMARK   22  A    between atoms: C_51  and  O_60
REMARK   23  A    between atoms: C_52  and  C_53
REMARK   24  A    between atoms: C_52  and  C_54
REMARK   25  A    between atoms: C_55  and  N_56
REMARK   26  A    between atoms: N_56  and  C_57
REMARK   27  A    between atoms: O_60  and  C_61
REMARK   28  A    between atoms: O_62  and  C_63
REMARK   29  A    between atoms: O_64  and  C_65
REMARK                            x       y       z     vdW  Elec       q    Type
REMARK                         _______ _______ _______ _____ _____    ______ ____
ROOT
ATOM      1  C   UNL     1     -11.869   4.394  17.518  0.00  0.00    -0.038 C 
ATOM      2  C   UNL     1     -12.545   5.148  18.682  0.00  0.00    -0.012 C 
ATOM      3  C   UNL     1     -11.828   6.398  19.237  0.00  0.00    +0.115 C 
ATOM      4  C   UNL     1     -11.698   7.512  18.191  0.00  0.00    +0.082 C 
ATOM      5  C   UNL     1     -10.936   8.706  18.727  0.00  0.00    +0.311 C 
ATOM      6  O   UNL     1     -10.915   9.065  19.896  0.00  0.00    -0.251 OA
ATOM      7  O   UNL     1     -10.322   9.377  17.702  0.00  0.00    -0.461 OA
ATOM      8  C   UNL     1      -9.500  10.502  18.087  0.00  0.00    +0.110 C 
ATOM      9  C   UNL     1      -9.314  11.473  16.873  0.00  0.00    +0.020 C 
ATOM     10  C   UNL     1     -10.647  12.196  16.469  0.00  0.00    +0.068 C 
ATOM     11  C   UNL     1     -11.710  11.301  15.789  0.00  0.00    -0.008 C 
ATOM     12  C   UNL     1     -11.236  10.657  14.509  0.00  0.00    -0.077 C 
ATOM     13  C   UNL     1     -11.008   9.341  14.426  0.00  0.00    -0.003 C 
ATOM     14  C   UNL     1     -10.492   8.688  13.280  0.00  0.00    +0.220 A 
ATOM     15  N   UNL     1      -9.853   7.535  13.352  0.00  0.00    -0.205 NA
ATOM     16  C   UNL     1      -9.631   7.151  12.057  0.00  0.00    +0.164 A 
ATOM     17  C   UNL     1     -10.084   8.120  11.207  0.00  0.00    +0.125 A 
ATOM     18  O   UNL     1     -10.617   9.124  11.969  0.00  0.00    -0.443 OA
ATOM     19  C   UNL     1      -9.033   5.757  11.714  0.00  0.00    +0.250 A 
ATOM     20  N   UNL     1      -8.632   4.954  12.678  0.00  0.00    -0.203 NA
ATOM     21  C   UNL     1      -8.440   3.749  12.061  0.00  0.00    +0.164 A 
ATOM     22  C   UNL     1      -8.596   3.888  10.709  0.00  0.00    +0.125 A 
ATOM     23  O   UNL     1      -8.949   5.191  10.462  0.00  0.00    -0.442 OA
ATOM     24  C   UNL     1      -8.238   2.456  12.896  0.00  0.00    +0.249 A 
ATOM     25  N   UNL     1      -8.152   2.524  14.214  0.00  0.00    -0.210 NA
ATOM     26  C   UNL     1      -8.344   1.237  14.645  0.00  0.00    +0.109 A 
ATOM     27  C   UNL     1      -8.357   0.406  13.545  0.00  0.00    +0.118 A 
ATOM     28  O   UNL     1      -8.266   1.173  12.418  0.00  0.00    -0.442 OA
ATOM     29  C   UNL     1      -8.492   0.929  16.110  0.00  0.00    +0.108 C 
ATOM     30  C   UNL     1      -9.746   1.606  16.785  0.00  0.00    +0.014 C 
ATOM     31  C   UNL     1      -9.633   3.166  16.807  0.00  0.00    +0.061 C 
ATOM     32  C   UNL     1     -10.424   3.962  17.874  0.00  0.00    -0.024 C 
ATOM     33  H   UNL     1     -11.829   5.073  16.659  0.00  0.00    +0.030 HD
ATOM     34  H   UNL     1     -12.708   4.438  19.505  0.00  0.00    +0.030 HD
ATOM     35  H   UNL     1     -13.557   5.447  18.376  0.00  0.00    +0.030 HD
ATOM     36  H   UNL     1     -10.832   6.148  19.623  0.00  0.00    +0.074 HD
ATOM     37  H   UNL     1     -12.686   7.873  17.882  0.00  0.00    +0.041 HD
ATOM     38  H   UNL     1     -11.165   7.138  17.313  0.00  0.00    +0.041 HD
ATOM     39  H   UNL     1     -10.027  11.070  18.865  0.00  0.00    +0.074 HD
ATOM     40  H   UNL     1      -8.968  10.902  16.005  0.00  0.00    +0.036 HD
ATOM     41  H   UNL     1     -11.084  12.624  17.382  0.00  0.00    +0.060 HD
ATOM     42  H   UNL     1     -12.076  10.549  16.495  0.00  0.00    +0.033 HD
ATOM     43  H   UNL     1     -12.591  11.901  15.530  0.00  0.00    +0.033 HD
ATOM     44  H   UNL     1     -11.048  11.314  13.662  0.00  0.00    +0.057 HD
ATOM     45  H   UNL     1     -11.155   8.706  15.292  0.00  0.00    +0.067 HD
ATOM     46  H   UNL     1     -10.129   8.248  10.136  0.00  0.00    +0.105 HD
ATOM     47  H   UNL     1      -8.552   3.228   9.855  0.00  0.00    +0.105 HD
ATOM     48  H   UNL     1      -8.455  -0.660  13.403  0.00  0.00    +0.105 HD
ATOM     49  H   UNL     1      -7.596   1.302  16.626  0.00  0.00    +0.067 HD
ATOM     50  H   UNL     1     -10.626   1.316  16.197  0.00  0.00    +0.035 HD
ATOM     51  H   UNL     1      -8.576   3.423  16.966  0.00  0.00    +0.060 HD
ATOM     52  H   UNL     1      -9.859   4.893  18.011  0.00  0.00    +0.029 HD
ATOM     53  H   UNL     1     -10.390   3.474  18.853  0.00  0.00    +0.029 HD
ENDROOT
BRANCH   1  54
ATOM     54  C   UNL     1     -12.763   3.217  17.117  0.00  0.00    -0.062 C 
ATOM     55  H   UNL     1     -13.762   3.303  17.548  0.00  0.00    +0.023 HD
ATOM     56  H   UNL     1     -12.859   3.141  16.031  0.00  0.00    +0.023 HD
ATOM     57  H   UNL     1     -12.344   2.271  17.482  0.00  0.00    +0.023 HD
ENDBRANCH   1  54
BRANCH  30  58
ATOM     58  C   UNL     1      -9.930   1.022  18.197  0.00  0.00    -0.057 C 
ATOM     59  H   UNL     1     -10.909   0.551  18.315  0.00  0.00    +0.023 HD
ATOM     60  H   UNL     1      -9.198   0.235  18.409  0.00  0.00    +0.023 HD
ATOM     61  H   UNL     1      -9.821   1.799  18.962  0.00  0.00    +0.023 HD
ENDBRANCH  30  58
BRANCH   9  62
ATOM     62  C   UNL     1      -8.231  12.532  17.171  0.00  0.00    -0.057 C 
ATOM     63  H   UNL     1      -8.641  13.543  17.092  0.00  0.00    +0.023 HD
ATOM     64  H   UNL     1      -7.386  12.452  16.480  0.00  0.00    +0.023 HD
ATOM     65  H   UNL     1      -7.803  12.409  18.170  0.00  0.00    +0.023 HD
ENDBRANCH   9  62
BRANCH   8  66
ATOM     66  C   UNL     1      -8.177   9.979  18.710  0.00  0.00    +0.011 C 
ATOM     67  H   UNL     1      -8.418   9.458  19.645  0.00  0.00    +0.033 HD
ATOM     68  H   UNL     1      -7.565  10.842  18.994  0.00  0.00    +0.033 HD
BRANCH  66  69
ATOM     69  C   UNL     1      -7.362   9.012  17.820  0.00  0.00    +0.064 C 
ATOM     70  H   UNL     1      -7.707   9.106  16.785  0.00  0.00    +0.060 HD
BRANCH  69  71
ATOM     71  C   UNL     1      -5.848   9.378  17.865  0.00  0.00    -0.017 C 
ATOM     72  H   UNL     1      -5.335   8.561  18.390  0.00  0.00    +0.032 HD
BRANCH  71  73
ATOM     73  C   UNL     1      -5.232   9.503  16.467  0.00  0.00    -0.060 C 
ATOM     74  H   UNL     1      -4.762  10.480  16.334  0.00  0.00    +0.023 HD
ATOM     75  H   UNL     1      -5.987   9.380  15.683  0.00  0.00    +0.023 HD
ATOM     76  H   UNL     1      -4.450   8.753  16.306  0.00  0.00    +0.023 HD
ENDBRANCH  71  73
BRANCH  71  77
ATOM     77  C   UNL     1      -5.609  10.666  18.686  0.00  0.00    -0.041 C 
ATOM     78  H   UNL     1      -6.564  11.072  19.042  0.00  0.00    +0.027 HD
ATOM     79  H   UNL     1      -5.028  10.400  19.578  0.00  0.00    +0.027 HD
BRANCH  77  80
ATOM     80  C   UNL     1      -4.803  11.726  17.927  0.00  0.00    +0.007 C 
ATOM     81  H   UNL     1      -5.339  12.074  17.039  0.00  0.00    +0.034 HD
ATOM     82  H   UNL     1      -3.866  11.285  17.568  0.00  0.00    +0.034 HD
BRANCH  80  83
ATOM     83  C   UNL     1      -4.395  12.910  18.789  0.00  0.00    +0.139 C 
ATOM     84  O   UNL     1      -4.216  12.776  20.000  0.00  0.00    -0.297 OA
BRANCH  83  85
ATOM     85  C   UNL     1      -4.079  14.221  18.067  0.00  0.00    +0.041 C 
ATOM     86  H   UNL     1      -3.966  13.986  17.002  0.00  0.00    +0.040 HD
BRANCH  85  87
ATOM     87  C   UNL     1      -2.746  14.717  18.627  0.00  0.00    -0.053 C 
ATOM     88  H   UNL     1      -1.997  14.847  17.842  0.00  0.00    +0.024 HD
ATOM     89  H   UNL     1      -2.867  15.673  19.146  0.00  0.00    +0.024 HD
ATOM     90  H   UNL     1      -2.331  14.005  19.348  0.00  0.00    +0.024 HD
ENDBRANCH  85  87
BRANCH  85  91
ATOM     91  C   UNL     1      -5.249  15.220  18.236  0.00  0.00    +0.074 C 
ATOM     92  H   UNL     1      -4.863  16.175  18.615  0.00  0.00    +0.061 HD
BRANCH  91  93
ATOM     93  C   UNL     1      -6.025  15.521  16.916  0.00  0.00    +0.003 C 
ATOM     94  H   UNL     1      -6.844  14.796  16.830  0.00  0.00    +0.037 HD
BRANCH  93  95
ATOM     95  C   UNL     1      -5.131  15.317  15.686  0.00  0.00    -0.057 C 
ATOM     96  H   UNL     1      -4.135  14.976  15.987  0.00  0.00    +0.024 HD
ATOM     97  H   UNL     1      -5.015  16.237  15.105  0.00  0.00    +0.024 HD
ATOM     98  H   UNL     1      -5.555  14.557  15.019  0.00  0.00    +0.024 HD
ENDBRANCH  93  95
BRANCH  93  99
ATOM     99  C   UNL     1      -6.588  16.931  16.873  0.00  0.00    -0.065 C 
ATOM    100  C   UNL     1      -5.843  18.018  16.622  0.00  0.00    -0.005 C 
ATOM    101  H   UNL     1      -7.655  16.997  17.070  0.00  0.00    +0.059 HD
ATOM    102  H   UNL     1      -4.778  17.886  16.431  0.00  0.00    +0.078 HD
BRANCH 100 103
ATOM    103  N   UNL     1      -6.271  19.335  16.566  0.00  0.00    -0.284 N 
ATOM    104  C   UNL     1      -5.463  20.433  16.285  0.00  0.00    +0.206 C 
ATOM    105  O   UNL     1      -5.827  21.604  16.250  0.00  0.00    -0.279 OA
ATOM    106  H   UNL     1      -4.413  20.177  16.086  0.00  0.00    +0.126 HD
BRANCH 103 107
ATOM    107  C   UNL     1      -7.686  19.588  16.827  0.00  0.00    +0.007 C 
ATOM    108  H   UNL     1      -7.989  19.001  17.702  0.00  0.00    +0.043 HD
ATOM    109  H   UNL     1      -7.884  20.643  17.030  0.00  0.00    +0.043 HD
ATOM    110  H   UNL     1      -8.275  19.281  15.957  0.00  0.00    +0.043 HD
ENDBRANCH 103 107
ENDBRANCH 100 103
ENDBRANCH  93  99
ENDBRANCH  91  93
BRANCH  91 111
ATOM    111  O   UNL     1      -6.177  14.645  19.179  0.00  0.00    -0.379 OA
BRANCH 111 112
ATOM    112  C   UNL     1      -6.493  15.517  20.259  0.00  0.00    +0.037 C 
ATOM    113  H   UNL     1      -6.055  15.102  21.171  0.00  0.00    +0.052 HD
ATOM    114  H   UNL     1      -6.068  16.511  20.094  0.00  0.00    +0.052 HD
ATOM    115  H   UNL     1      -7.577  15.588  20.394  0.00  0.00    +0.052 HD
ENDBRANCH 111 112
ENDBRANCH  91 111
ENDBRANCH  85  91
ENDBRANCH  83  85
ENDBRANCH  80  83
ENDBRANCH  77  80
ENDBRANCH  71  77
ENDBRANCH  69  71
BRANCH  69 116
ATOM    116  O   UNL     1      -7.564   7.679  18.301  0.00  0.00    -0.379 OA
BRANCH 116 117
ATOM    117  C   UNL     1      -7.441   7.567  19.716  0.00  0.00    +0.037 C 
ATOM    118  H   UNL     1      -6.621   6.877  19.940  0.00  0.00    +0.052 HD
ATOM    119  H   UNL     1      -8.361   7.174  20.159  0.00  0.00    +0.052 HD
ATOM    120  H   UNL     1      -7.208   8.543  20.148  0.00  0.00    +0.052 HD
ENDBRANCH 116 117
ENDBRANCH  69 116
ENDBRANCH  66  69
ENDBRANCH   8  66
BRANCH  31 121
ATOM    121  O   UNL     1     -10.028   3.704  15.548  0.00  0.00    -0.391 OA
ATOM    122  H   UNL     1      -9.411   4.442  15.342  0.00  0.00    +0.210 HD
ENDBRANCH  31 121
BRANCH  29 123
ATOM    123  O   UNL     1      -8.588  -0.501  16.293  0.00  0.00    -0.373 OA
BRANCH 123 124
ATOM    124  C   UNL     1      -7.363  -1.079  16.723  0.00  0.00    +0.037 C 
ATOM    125  H   UNL     1      -7.561  -2.111  17.026  0.00  0.00    +0.052 HD
ATOM    126  H   UNL     1      -6.628  -1.086  15.914  0.00  0.00    +0.052 HD
ATOM    127  H   UNL     1      -6.972  -0.535  17.586  0.00  0.00    +0.052 HD
ENDBRANCH 123 124
ENDBRANCH  29 123
BRANCH  10 128
ATOM    128  O   UNL     1     -10.324  13.279  15.571  0.00  0.00    -0.379 OA
BRANCH 128 129
ATOM    129  C   UNL     1     -11.208  14.388  15.666  0.00  0.00    +0.037 C 
ATOM    130  H   UNL     1     -10.682  15.329  15.486  0.00  0.00    +0.052 HD
ATOM    131  H   UNL     1     -11.614  14.411  16.681  0.00  0.00    +0.052 HD
ATOM    132  H   UNL     1     -12.040  14.279  14.963  0.00  0.00    +0.052 HD
ENDBRANCH 128 129
ENDBRANCH  10 128
BRANCH   3 133
ATOM    133  O   UNL     1     -12.642   6.909  20.322  0.00  0.00    -0.447 OA
BRANCH 133 134
ATOM    134  C   UNL     1     -12.388   6.392  21.546  0.00  0.00    +0.398 C 
ATOM    135  O   UNL     1     -13.123   5.672  22.198  0.00  0.00    -0.227 OA
ATOM    136  N   UNL     1     -11.173   6.801  21.971  0.00  0.00    -0.295 N 
ATOM    137  H   UNL     1     -10.595   7.357  21.362  0.00  0.00    +0.148 HD
ATOM    138  H   UNL     1     -10.829   6.475  22.861  0.00  0.00    +0.148 HD
ENDBRANCH 133 134
ENDBRANCH   3 133
TORSDOF 29
ENDMDL
MODEL 5
REMARK VINA RESULT:      -5.0      3.872     12.379
REMARK  Name = Kabiramide C_conf2
REMARK  29 active torsions:
REMARK  status: ('A' for Active; 'I' for Inactive)
REMARK    1  A    between atoms: C_1  and  C_2
REMARK    2  A    between atoms: C_4  and  O_64
REMARK    3  A    between atoms: C_9  and  C_41
REMARK    4  A    between atoms: C_10  and  C_40
REMARK    5  A    between atoms: C_11  and  O_38
REMARK    6  A    between atoms: C_30  and  O_36
REMARK    7  A    between atoms: C_31  and  C_35
REMARK    8  A    between atoms: C_32  and  O_34
REMARK    9  A    between atoms: O_36  and  C_37
REMARK   10  A    between atoms: O_38  and  C_39
REMARK   11  A    between atoms: C_41  and  C_42
REMARK   12  A    between atoms: C_42  and  C_43
REMARK   13  A    between atoms: C_42  and  O_62
REMARK   14  A    between atoms: C_43  and  C_44
REMARK   15  A    between atoms: C_43  and  C_45
REMARK   16  A    between atoms: C_45  and  C_46
REMARK   17  A    between atoms: C_46  and  C_47
REMARK   18  A    between atoms: C_47  and  C_49
REMARK   19  A    between atoms: C_49  and  C_50
REMARK   20  A    between atoms: C_49  and  C_51
REMARK   21  A    between atoms: C_51  and  C_52
REMARK   22  A    between atoms: C_51  and  O_60
REMARK   23  A    between atoms: C_52  and  C_53
REMARK   24  A    between atoms: C_52  and  C_54
REMARK   25  A    between atoms: C_55  and  N_56
REMARK   26  A    between atoms: N_56  and  C_57
REMARK   27  A    between atoms: O_60  and  C_61
REMARK   28  A    between atoms: O_62  and  C_63
REMARK   29  A    between atoms: O_64  and  C_65
REMARK                            x       y       z     vdW  Elec       q    Type
REMARK                         _______ _______ _______ _____ _____    ______ ____
ROOT
ATOM      1  C   UNL     1      -1.013  15.412  18.367  0.00  0.00    -0.038 C 
ATOM      2  C   UNL     1      -2.273  14.532  18.221  0.00  0.00    -0.012 C 
ATOM      3  C   UNL     1      -3.477  14.849  19.134  0.00  0.00    +0.115 C 
ATOM      4  C   UNL     1      -4.055  16.246  18.879  0.00  0.00    +0.082 C 
ATOM      5  C   UNL     1      -5.192  16.570  19.825  0.00  0.00    +0.311 C 
ATOM      6  O   UNL     1      -5.962  15.753  20.312  0.00  0.00    -0.251 OA
ATOM      7  O   UNL     1      -5.285  17.925  20.010  0.00  0.00    -0.461 OA
ATOM      8  C   UNL     1      -6.291  18.366  20.950  0.00  0.00    +0.110 C 
ATOM      9  C   UNL     1      -6.665  19.861  20.676  0.00  0.00    +0.020 C 
ATOM     10  C   UNL     1      -7.418  20.055  19.313  0.00  0.00    +0.068 C 
ATOM     11  C   UNL     1      -6.553  19.877  18.043  0.00  0.00    -0.008 C 
ATOM     12  C   UNL     1      -5.388  20.833  17.960  0.00  0.00    -0.077 C 
ATOM     13  C   UNL     1      -4.124  20.416  18.099  0.00  0.00    -0.003 C 
ATOM     14  C   UNL     1      -2.994  21.270  18.108  0.00  0.00    +0.220 A 
ATOM     15  N   UNL     1      -1.858  20.932  18.690  0.00  0.00    -0.205 NA
ATOM     16  C   UNL     1      -0.970  21.926  18.377  0.00  0.00    +0.164 A 
ATOM     17  C   UNL     1      -1.605  22.899  17.657  0.00  0.00    +0.125 A 
ATOM     18  O   UNL     1      -2.907  22.511  17.494  0.00  0.00    -0.443 OA
ATOM     19  C   UNL     1       0.535  21.818  18.753  0.00  0.00    +0.250 A 
ATOM     20  N   UNL     1       0.966  20.805  19.473  0.00  0.00    -0.203 NA
ATOM     21  C   UNL     1       2.328  20.869  19.374  0.00  0.00    +0.164 A 
ATOM     22  C   UNL     1       2.693  22.006  18.707  0.00  0.00    +0.125 A 
ATOM     23  O   UNL     1       1.544  22.652  18.324  0.00  0.00    -0.442 OA
ATOM     24  C   UNL     1       3.212  19.684  19.847  0.00  0.00    +0.249 A 
ATOM     25  N   UNL     1       2.661  18.640  20.443  0.00  0.00    -0.210 NA
ATOM     26  C   UNL     1       3.620  17.661  20.396  0.00  0.00    +0.109 A 
ATOM     27  C   UNL     1       4.791  18.220  19.930  0.00  0.00    +0.118 A 
ATOM     28  O   UNL     1       4.549  19.524  19.597  0.00  0.00    -0.442 OA
ATOM     29  C   UNL     1       3.306  16.254  20.823  0.00  0.00    +0.108 C 
ATOM     30  C   UNL     1       2.193  15.553  19.952  0.00  0.00    +0.014 C 
ATOM     31  C   UNL     1       0.798  16.242  20.111  0.00  0.00    +0.061 C 
ATOM     32  C   UNL     1      -0.482  15.422  19.822  0.00  0.00    -0.024 C 
ATOM     33  H   UNL     1      -1.289  16.436  18.089  0.00  0.00    +0.030 HD
ATOM     34  H   UNL     1      -1.980  13.483  18.372  0.00  0.00    +0.030 HD
ATOM     35  H   UNL     1      -2.619  14.571  17.180  0.00  0.00    +0.030 HD
ATOM     36  H   UNL     1      -3.208  14.759  20.195  0.00  0.00    +0.074 HD
ATOM     37  H   UNL     1      -4.452  16.323  17.861  0.00  0.00    +0.041 HD
ATOM     38  H   UNL     1      -3.277  17.001  19.016  0.00  0.00    +0.041 HD
ATOM     39  H   UNL     1      -7.205  17.779  20.785  0.00  0.00    +0.074 HD
ATOM     40  H   UNL     1      -5.748  20.460  20.639  0.00  0.00    +0.036 HD
ATOM     41  H   UNL     1      -8.240  19.326  19.280  0.00  0.00    +0.060 HD
ATOM     42  H   UNL     1      -6.216  18.839  17.959  0.00  0.00    +0.033 HD
ATOM     43  H   UNL     1      -7.165  20.051  17.149  0.00  0.00    +0.033 HD
ATOM     44  H   UNL     1      -5.618  21.888  17.822  0.00  0.00    +0.057 HD
ATOM     45  H   UNL     1      -3.912  19.368  18.283  0.00  0.00    +0.067 HD
ATOM     46  H   UNL     1      -1.317  23.834  17.202  0.00  0.00    +0.105 HD
ATOM     47  H   UNL     1       3.626  22.452  18.395  0.00  0.00    +0.105 HD
ATOM     48  H   UNL     1       5.789  17.848  19.754  0.00  0.00    +0.105 HD
ATOM     49  H   UNL     1       2.942  16.288  21.860  0.00  0.00    +0.067 HD
ATOM     50  H   UNL     1       2.512  15.620  18.904  0.00  0.00    +0.035 HD
ATOM     51  H   UNL     1       0.708  16.579  21.153  0.00  0.00    +0.060 HD
ATOM     52  H   UNL     1      -1.268  15.900  20.424  0.00  0.00    +0.029 HD
ATOM     53  H   UNL     1      -0.413  14.405  20.221  0.00  0.00    +0.029 HD
ENDROOT
BRANCH   1  54
ATOM     54  C   UNL     1       0.031  14.938  17.353  0.00  0.00    -0.062 C 
ATOM     55  H   UNL     1       1.042  14.980  17.764  0.00  0.00    +0.023 HD
ATOM     56  H   UNL     1      -0.167  13.915  17.024  0.00  0.00    +0.023 HD
ATOM     57  H   UNL     1       0.027  15.580  16.465  0.00  0.00    +0.023 HD
ENDBRANCH   1  54
BRANCH  30  58
ATOM     58  C   UNL     1       2.142  14.058  20.317  0.00  0.00    -0.057 C 
ATOM     59  H   UNL     1       3.108  13.698  20.680  0.00  0.00    +0.023 HD
ATOM     60  H   UNL     1       1.432  13.862  21.127  0.00  0.00    +0.023 HD
ATOM     61  H   UNL     1       1.846  13.452  19.453  0.00  0.00    +0.023 HD
ENDBRANCH  30  58
BRANCH   9  62
ATOM     62  C   UNL     1      -7.527  20.435  21.821  0.00  0.00    -0.057 C 
ATOM     63  H   UNL     1      -7.023  21.279  22.304  0.00  0.00    +0.023 HD
ATOM     64  H   UNL     1      -7.738  19.682  22.586  0.00  0.00    +0.023 HD
ATOM     65  H   UNL     1      -8.504  20.773  21.467  0.00  0.00    +0.023 HD
ENDBRANCH   9  62
BRANCH   8  66
ATOM     66  C   UNL     1      -5.804  18.071  22.395  0.00  0.00    +0.011 C 
ATOM     67  H   UNL     1      -5.734  19.022  22.936  0.00  0.00    +0.033 HD
ATOM     68  H   UNL     1      -4.783  17.677  22.341  0.00  0.00    +0.033 HD
BRANCH  66  69
ATOM     69  C   UNL     1      -6.705  17.119  23.216  0.00  0.00    +0.064 C 
ATOM     70  H   UNL     1      -6.507  16.087  22.907  0.00  0.00    +0.060 HD
BRANCH  69  71
ATOM     71  C   UNL     1      -6.382  17.243  24.735  0.00  0.00    -0.017 C 
ATOM     72  H   UNL     1      -6.109  16.240  25.089  0.00  0.00    +0.032 HD
BRANCH  71  73
ATOM     73  C   UNL     1      -5.200  18.179  25.010  0.00  0.00    -0.060 C 
ATOM     74  H   UNL     1      -5.426  18.861  25.834  0.00  0.00    +0.023 HD
ATOM     75  H   UNL     1      -4.952  18.782  24.130  0.00  0.00    +0.023 HD
ATOM     76  H   UNL     1      -4.305  17.620  25.301  0.00  0.00    +0.023 HD
ENDBRANCH  71  73
BRANCH  71  77
ATOM     77  C   UNL     1      -7.629  17.684  25.537  0.00  0.00    -0.041 C 
ATOM     78  H   UNL     1      -7.451  18.658  26.008  0.00  0.00    +0.027 HD
ATOM     79  H   UNL     1      -8.458  17.820  24.832  0.00  0.00    +0.027 HD
BRANCH  77  80
ATOM     80  C   UNL     1      -8.083  16.644  26.567  0.00  0.00    +0.007 C 
ATOM     81  H   UNL     1      -8.037  17.043  27.584  0.00  0.00    +0.034 HD
ATOM     82  H   UNL     1      -7.404  15.783  26.543  0.00  0.00    +0.034 HD
BRANCH  80  83
ATOM     83  C   UNL     1      -9.467  16.080  26.289  0.00  0.00    +0.139 C 
ATOM     84  O   UNL     1     -10.477  16.747  26.516  0.00  0.00    -0.297 OA
BRANCH  83  85
ATOM     85  C   UNL     1      -9.540  14.722  25.588  0.00  0.00    +0.041 C 
ATOM     86  H   UNL     1      -9.031  14.828  24.623  0.00  0.00    +0.040 HD
BRANCH  85  87
ATOM     87  C   UNL     1     -11.022  14.429  25.357  0.00  0.00    -0.053 C 
ATOM     88  H   UNL     1     -11.528  15.257  24.857  0.00  0.00    +0.024 HD
ATOM     89  H   UNL     1     -11.156  13.528  24.750  0.00  0.00    +0.024 HD
ATOM     90  H   UNL     1     -11.544  14.263  26.306  0.00  0.00    +0.024 HD
ENDBRANCH  85  87
BRANCH  85  91
ATOM     91  C   UNL     1      -8.803  13.648  26.424  0.00  0.00    +0.074 C 
ATOM     92  H   UNL     1      -8.182  14.140  27.186  0.00  0.00    +0.061 HD
BRANCH  91  93
ATOM     93  C   UNL     1      -9.752  12.656  27.166  0.00  0.00    +0.003 C 
ATOM     94  H   UNL     1     -10.713  12.646  26.638  0.00  0.00    +0.037 HD
BRANCH  93  95
ATOM     95  C   UNL     1     -10.045  13.130  28.595  0.00  0.00    -0.057 C 
ATOM     96  H   UNL     1      -9.745  12.368  29.322  0.00  0.00    +0.024 HD
ATOM     97  H   UNL     1     -11.107  13.345  28.749  0.00  0.00    +0.024 HD
ATOM     98  H   UNL     1      -9.486  14.045  28.824  0.00  0.00    +0.024 HD
ENDBRANCH  93  95
BRANCH  93  99
ATOM     99  C   UNL     1      -9.193  11.245  27.232  0.00  0.00    -0.065 C 
ATOM    100  C   UNL     1      -9.485  10.379  28.214  0.00  0.00    -0.005 C 
ATOM    101  H   UNL     1      -8.522  10.987  26.416  0.00  0.00    +0.059 HD
ATOM    102  H   UNL     1     -10.165  10.697  29.004  0.00  0.00    +0.078 HD
BRANCH 100 103
ATOM    103  N   UNL     1      -9.021   9.081  28.355  0.00  0.00    -0.284 N 
ATOM    104  C   UNL     1      -8.560   8.274  27.319  0.00  0.00    +0.206 C 
ATOM    105  O   UNL     1      -8.163   7.118  27.428  0.00  0.00    -0.279 OA
ATOM    106  H   UNL     1      -8.575   8.759  26.333  0.00  0.00    +0.126 HD
BRANCH 103 107
ATOM    107  C   UNL     1      -9.019   8.515  29.702  0.00  0.00    +0.007 C 
ATOM    108  H   UNL     1      -8.589   9.252  30.389  0.00  0.00    +0.043 HD
ATOM    109  H   UNL     1     -10.026   8.266  30.044  0.00  0.00    +0.043 HD
ATOM    110  H   UNL     1      -8.411   7.605  29.711  0.00  0.00    +0.043 HD
ENDBRANCH 103 107
ENDBRANCH 100 103
ENDBRANCH  93  99
ENDBRANCH  91  93
BRANCH  91 111
ATOM    111  O   UNL     1      -7.977  12.886  25.520  0.00  0.00    -0.379 OA
BRANCH 111 112
ATOM    112  C   UNL     1      -7.519  13.642  24.405  0.00  0.00    +0.037 C 
ATOM    113  H   UNL     1      -6.711  13.084  23.923  0.00  0.00    +0.052 HD
ATOM    114  H   UNL     1      -8.321  13.786  23.676  0.00  0.00    +0.052 HD
ATOM    115  H   UNL     1      -7.127  14.612  24.730  0.00  0.00    +0.052 HD
ENDBRANCH 111 112
ENDBRANCH  91 111
ENDBRANCH  85  91
ENDBRANCH  83  85
ENDBRANCH  80  83
ENDBRANCH  77  80
ENDBRANCH  71  77
ENDBRANCH  69  71
BRANCH  69 116
ATOM    116  O   UNL     1      -8.071  17.468  22.969  0.00  0.00    -0.379 OA
BRANCH 116 117
ATOM    117  C   UNL     1      -8.824  16.411  22.384  0.00  0.00    +0.037 C 
ATOM    118  H   UNL     1      -8.992  15.641  23.144  0.00  0.00    +0.052 HD
ATOM    119  H   UNL     1      -8.283  15.963  21.545  0.00  0.00    +0.052 HD
ATOM    120  H   UNL     1      -9.792  16.787  22.044  0.00  0.00    +0.052 HD
ENDBRANCH 116 117
ENDBRANCH  69 116
ENDBRANCH  66  69
ENDBRANCH   8  66
BRANCH  31 121
ATOM    121  O   UNL     1       0.721  17.392  19.272  0.00  0.00    -0.391 OA
ATOM    122  H   UNL     1      -0.163  17.797  19.417  0.00  0.00    +0.210 HD
ENDBRANCH  31 121
BRANCH  29 123
ATOM    123  O   UNL     1       4.508  15.455  20.763  0.00  0.00    -0.373 OA
BRANCH 123 124
ATOM    124  C   UNL     1       5.188  15.401  22.010  0.00  0.00    +0.037 C 
ATOM    125  H   UNL     1       4.513  14.959  22.747  0.00  0.00    +0.052 HD
ATOM    126  H   UNL     1       6.085  14.781  21.940  0.00  0.00    +0.052 HD
ATOM    127  H   UNL     1       5.448  16.409  22.341  0.00  0.00    +0.052 HD
ENDBRANCH 123 124
ENDBRANCH  29 123
BRANCH  10 128
ATOM    128  O   UNL     1      -7.988  21.381  19.292  0.00  0.00    -0.379 OA
BRANCH 128 129
ATOM    129  C   UNL     1      -9.088  21.521  18.403  0.00  0.00    +0.037 C 
ATOM    130  H   UNL     1      -9.439  20.547  18.053  0.00  0.00    +0.052 HD
ATOM    131  H   UNL     1      -8.751  22.095  17.535  0.00  0.00    +0.052 HD
ATOM    132  H   UNL     1      -9.905  22.067  18.883  0.00  0.00    +0.052 HD
ENDBRANCH 128 129
ENDBRANCH  10 128
BRANCH   3 133
ATOM    133  O   UNL     1      -4.512  13.883  18.824  0.00  0.00    -0.447 OA
BRANCH 133 134
ATOM    134  C   UNL     1      -4.550  12.784  19.611  0.00  0.00    +0.398 C 
ATOM    135  O   UNL     1      -4.842  11.652  19.267  0.00  0.00    -0.227 OA
ATOM    136  N   UNL     1      -4.221  13.118  20.878  0.00  0.00    -0.295 N 
ATOM    137  H   UNL     1      -3.943  14.064  21.086  0.00  0.00    +0.148 HD
ATOM    138  H   UNL     1      -4.179  12.396  21.581  0.00  0.00    +0.148 HD
ENDBRANCH 133 134
ENDBRANCH   3 133
TORSDOF 29
ENDMDL
MODEL 6
REMARK VINA RESULT:      -5.0      5.407     11.613
REMARK  Name = Kabiramide C_conf2
REMARK  29 active torsions:
REMARK  status: ('A' for Active; 'I' for Inactive)
REMARK    1  A    between atoms: C_1  and  C_2
REMARK    2  A    between atoms: C_4  and  O_64
REMARK    3  A    between atoms: C_9  and  C_41
REMARK    4  A    between atoms: C_10  and  C_40
REMARK    5  A    between atoms: C_11  and  O_38
REMARK    6  A    between atoms: C_30  and  O_36
REMARK    7  A    between atoms: C_31  and  C_35
REMARK    8  A    between atoms: C_32  and  O_34
REMARK    9  A    between atoms: O_36  and  C_37
REMARK   10  A    between atoms: O_38  and  C_39
REMARK   11  A    between atoms: C_41  and  C_42
REMARK   12  A    between atoms: C_42  and  C_43
REMARK   13  A    between atoms: C_42  and  O_62
REMARK   14  A    between atoms: C_43  and  C_44
REMARK   15  A    between atoms: C_43  and  C_45
REMARK   16  A    between atoms: C_45  and  C_46
REMARK   17  A    between atoms: C_46  and  C_47
REMARK   18  A    between atoms: C_47  and  C_49
REMARK   19  A    between atoms: C_49  and  C_50
REMARK   20  A    between atoms: C_49  and  C_51
REMARK   21  A    between atoms: C_51  and  C_52
REMARK   22  A    between atoms: C_51  and  O_60
REMARK   23  A    between atoms: C_52  and  C_53
REMARK   24  A    between atoms: C_52  and  C_54
REMARK   25  A    between atoms: C_55  and  N_56
REMARK   26  A    between atoms: N_56  and  C_57
REMARK   27  A    between atoms: O_60  and  C_61
REMARK   28  A    between atoms: O_62  and  C_63
REMARK   29  A    between atoms: O_64  and  C_65
REMARK                            x       y       z     vdW  Elec       q    Type
REMARK                         _______ _______ _______ _____ _____    ______ ____
ROOT
ATOM      1  C   UNL     1     -11.034   7.449  14.237  0.00  0.00    -0.038 C 
ATOM      2  C   UNL     1     -11.263   7.322  15.758  0.00  0.00    -0.012 C 
ATOM      3  C   UNL     1     -10.553   8.342  16.676  0.00  0.00    +0.115 C 
ATOM      4  C   UNL     1     -11.015   9.782  16.421  0.00  0.00    +0.082 C 
ATOM      5  C   UNL     1     -10.265  10.777  17.280  0.00  0.00    +0.311 C 
ATOM      6  O   UNL     1      -9.811  10.552  18.393  0.00  0.00    -0.251 OA
ATOM      7  O   UNL     1     -10.224  12.001  16.663  0.00  0.00    -0.461 OA
ATOM      8  C   UNL     1      -9.473  13.028  17.348  0.00  0.00    +0.110 C 
ATOM      9  C   UNL     1      -9.936  14.445  16.867  0.00  0.00    +0.020 C 
ATOM     10  C   UNL     1     -11.399  14.788  17.318  0.00  0.00    +0.068 C 
ATOM     11  C   UNL     1     -12.520  14.005  16.593  0.00  0.00    -0.008 C 
ATOM     12  C   UNL     1     -12.536  14.209  15.097  0.00  0.00    -0.077 C 
ATOM     13  C   UNL     1     -12.190  13.232  14.250  0.00  0.00    -0.003 C 
ATOM     14  C   UNL     1     -12.111  13.381  12.843  0.00  0.00    +0.220 A 
ATOM     15  N   UNL     1     -11.353  12.605  12.091  0.00  0.00    -0.205 NA
ATOM     16  C   UNL     1     -11.637  12.948  10.797  0.00  0.00    +0.164 A 
ATOM     17  C   UNL     1     -12.525  13.986  10.782  0.00  0.00    +0.125 A 
ATOM     18  O   UNL     1     -12.823  14.296  12.081  0.00  0.00    -0.443 OA
ATOM     19  C   UNL     1     -11.055  12.146   9.598  0.00  0.00    +0.250 A 
ATOM     20  N   UNL     1     -10.190  11.177   9.809  0.00  0.00    -0.203 NA
ATOM     21  C   UNL     1     -10.111  10.522   8.611  0.00  0.00    +0.164 A 
ATOM     22  C   UNL     1     -10.828  11.199   7.663  0.00  0.00    +0.125 A 
ATOM     23  O   UNL     1     -11.422  12.274   8.277  0.00  0.00    -0.442 OA
ATOM     24  C   UNL     1      -9.413   9.139   8.509  0.00  0.00    +0.249 A 
ATOM     25  N   UNL     1      -8.801   8.625   9.562  0.00  0.00    -0.210 NA
ATOM     26  C   UNL     1      -8.626   7.301   9.255  0.00  0.00    +0.109 A 
ATOM     27  C   UNL     1      -8.982   7.108   7.937  0.00  0.00    +0.118 A 
ATOM     28  O   UNL     1      -9.466   8.285   7.440  0.00  0.00    -0.442 OA
ATOM     29  C   UNL     1      -8.113   6.332  10.286  0.00  0.00    +0.108 C 
ATOM     30  C   UNL     1      -9.054   6.173  11.541  0.00  0.00    +0.014 C 
ATOM     31  C   UNL     1      -9.150   7.492  12.377  0.00  0.00    +0.061 C 
ATOM     32  C   UNL     1      -9.528   7.406  13.876  0.00  0.00    -0.024 C 
ATOM     33  H   UNL     1     -11.443   8.415  13.918  0.00  0.00    +0.030 HD
ATOM     34  H   UNL     1     -10.976   6.307  16.067  0.00  0.00    +0.030 HD
ATOM     35  H   UNL     1     -12.340   7.375  15.965  0.00  0.00    +0.030 HD
ATOM     36  H   UNL     1      -9.463   8.288  16.564  0.00  0.00    +0.074 HD
ATOM     37  H   UNL     1     -12.080   9.895  16.651  0.00  0.00    +0.041 HD
ATOM     38  H   UNL     1     -10.848  10.046  15.373  0.00  0.00    +0.041 HD
ATOM     39  H   UNL     1      -9.702  12.972  18.422  0.00  0.00    +0.074 HD
ATOM     40  H   UNL     1      -9.906  14.480  15.772  0.00  0.00    +0.036 HD
ATOM     41  H   UNL     1     -11.472  14.583  18.395  0.00  0.00    +0.060 HD
ATOM     42  H   UNL     1     -12.458  12.941  16.843  0.00  0.00    +0.033 HD
ATOM     43  H   UNL     1     -13.500  14.329  16.963  0.00  0.00    +0.033 HD
ATOM     44  H   UNL     1     -12.803  15.199  14.733  0.00  0.00    +0.057 HD
ATOM     45  H   UNL     1     -11.881  12.264  14.629  0.00  0.00    +0.067 HD
ATOM     46  H   UNL     1     -13.024  14.564  10.019  0.00  0.00    +0.105 HD
ATOM     47  H   UNL     1     -11.054  11.055   6.616  0.00  0.00    +0.105 HD
ATOM     48  H   UNL     1      -8.987   6.258   7.272  0.00  0.00    +0.105 HD
ATOM     49  H   UNL     1      -7.142   6.702  10.644  0.00  0.00    +0.067 HD
ATOM     50  H   UNL     1     -10.052   5.910  11.166  0.00  0.00    +0.035 HD
ATOM     51  H   UNL     1      -8.166   7.981  12.345  0.00  0.00    +0.060 HD
ATOM     52  H   UNL     1      -9.085   8.301  14.333  0.00  0.00    +0.029 HD
ATOM     53  H   UNL     1      -9.029   6.569  14.374  0.00  0.00    +0.029 HD
ENDROOT
BRANCH   1  54
ATOM     54  C   UNL     1     -11.849   6.362  13.531  0.00  0.00    -0.062 C 
ATOM     55  H   UNL     1     -12.690   6.784  12.977  0.00  0.00    +0.023 HD
ATOM     56  H   UNL     1     -11.231   5.786  12.838  0.00  0.00    +0.023 HD
ATOM     57  H   UNL     1     -12.274   5.662  14.260  0.00  0.00    +0.023 HD
ENDBRANCH   1  54
BRANCH  30  58
ATOM     58  C   UNL     1      -8.559   4.988  12.390  0.00  0.00    -0.057 C 
ATOM     59  H   UNL     1      -7.478   4.855  12.306  0.00  0.00    +0.023 HD
ATOM     60  H   UNL     1      -8.755   5.143  13.456  0.00  0.00    +0.023 HD
ATOM     61  H   UNL     1      -9.050   4.056  12.087  0.00  0.00    +0.023 HD
ENDBRANCH  30  58
BRANCH   9  62
ATOM     62  C   UNL     1      -8.976  15.543  17.374  0.00  0.00    -0.057 C 
ATOM     63  H   UNL     1      -8.269  15.136  18.104  0.00  0.00    +0.023 HD
ATOM     64  H   UNL     1      -9.519  16.367  17.847  0.00  0.00    +0.023 HD
ATOM     65  H   UNL     1      -8.408  15.997  16.558  0.00  0.00    +0.023 HD
ENDBRANCH   9  62
BRANCH   8  66
ATOM     66  C   UNL     1      -7.955  12.749  17.183  0.00  0.00    +0.011 C 
ATOM     67  H   UNL     1      -7.501  13.602  16.664  0.00  0.00    +0.033 HD
ATOM     68  H   UNL     1      -7.833  11.889  16.513  0.00  0.00    +0.033 HD
BRANCH  66  69
ATOM     69  C   UNL     1      -7.176  12.519  18.499  0.00  0.00    +0.064 C 
ATOM     70  H   UNL     1      -7.049  11.442  18.654  0.00  0.00    +0.060 HD
BRANCH  69  71
ATOM     71  C   UNL     1      -5.763  13.170  18.414  0.00  0.00    -0.017 C 
ATOM     72  H   UNL     1      -5.658  13.825  19.289  0.00  0.00    +0.032 HD
BRANCH  71  73
ATOM     73  C   UNL     1      -4.635  12.133  18.461  0.00  0.00    -0.060 C 
ATOM     74  H   UNL     1      -3.856  12.437  19.164  0.00  0.00    +0.023 HD
ATOM     75  H   UNL     1      -4.172  11.998  17.478  0.00  0.00    +0.023 HD
ATOM     76  H   UNL     1      -5.002  11.158  18.800  0.00  0.00    +0.023 HD
ENDBRANCH  71  73
BRANCH  71  77
ATOM     77  C   UNL     1      -5.633  14.064  17.159  0.00  0.00    -0.041 C 
ATOM     78  H   UNL     1      -5.521  13.443  16.262  0.00  0.00    +0.027 HD
ATOM     79  H   UNL     1      -6.570  14.623  17.040  0.00  0.00    +0.027 HD
BRANCH  77  80
ATOM     80  C   UNL     1      -4.506  15.095  17.266  0.00  0.00    +0.007 C 
ATOM     81  H   UNL     1      -4.342  15.608  16.313  0.00  0.00    +0.034 HD
ATOM     82  H   UNL     1      -3.565  14.586  17.506  0.00  0.00    +0.034 HD
BRANCH  80  83
ATOM     83  C   UNL     1      -4.716  16.111  18.377  0.00  0.00    +0.139 C 
ATOM     84  O   UNL     1      -5.796  16.690  18.507  0.00  0.00    -0.297 OA
BRANCH  83  85
ATOM     85  C   UNL     1      -3.589  16.270  19.399  0.00  0.00    +0.041 C 
ATOM     86  H   UNL     1      -4.046  16.224  20.395  0.00  0.00    +0.040 HD
BRANCH  85  87
ATOM     87  C   UNL     1      -2.988  17.658  19.174  0.00  0.00    -0.053 C 
ATOM     88  H   UNL     1      -1.912  17.611  18.993  0.00  0.00    +0.024 HD
ATOM     89  H   UNL     1      -3.458  18.158  18.322  0.00  0.00    +0.024 HD
ATOM     90  H   UNL     1      -3.136  18.298  20.051  0.00  0.00    +0.024 HD
ENDBRANCH  85  87
BRANCH  85  91
ATOM     91  C   UNL     1      -2.575  15.110  19.263  0.00  0.00    +0.074 C 
ATOM     92  H   UNL     1      -2.957  14.372  18.544  0.00  0.00    +0.061 HD
BRANCH  91  93
ATOM     93  C   UNL     1      -1.162  15.552  18.771  0.00  0.00    +0.003 C 
ATOM     94  H   UNL     1      -1.139  16.649  18.743  0.00  0.00    +0.037 HD
BRANCH  93  95
ATOM     95  C   UNL     1      -0.898  15.075  17.337  0.00  0.00    -0.057 C 
ATOM     96  H   UNL     1      -1.840  14.951  16.793  0.00  0.00    +0.024 HD
ATOM     97  H   UNL     1      -0.364  14.120  17.312  0.00  0.00    +0.024 HD
ATOM     98  H   UNL     1      -0.291  15.806  16.789  0.00  0.00    +0.024 HD
ENDBRANCH  93  95
BRANCH  93  99
ATOM     99  C   UNL     1      -0.042  15.042  19.661  0.00  0.00    -0.065 C 
ATOM    100  C   UNL     1       1.025  14.374  19.198  0.00  0.00    -0.005 C 
ATOM    101  H   UNL     1      -0.174  15.256  20.719  0.00  0.00    +0.059 HD
ATOM    102  H   UNL     1       1.101  14.192  18.126  0.00  0.00    +0.078 HD
BRANCH 100 103
ATOM    103  N   UNL     1       2.086  13.873  19.935  0.00  0.00    -0.284 N 
ATOM    104  C   UNL     1       3.169  13.171  19.413  0.00  0.00    +0.206 C 
ATOM    105  O   UNL     1       4.105  12.708  20.058  0.00  0.00    -0.279 OA
ATOM    106  H   UNL     1       3.137  13.044  18.322  0.00  0.00    +0.126 HD
BRANCH 103 107
ATOM    107  C   UNL     1       2.062  14.099  21.378  0.00  0.00    +0.007 C 
ATOM    108  H   UNL     1       1.027  14.014  21.727  0.00  0.00    +0.043 HD
ATOM    109  H   UNL     1       2.672  13.372  21.919  0.00  0.00    +0.043 HD
ATOM    110  H   UNL     1       2.441  15.104  21.594  0.00  0.00    +0.043 HD
ENDBRANCH 103 107
ENDBRANCH 100 103
ENDBRANCH  93  99
ENDBRANCH  91  93
BRANCH  91 111
ATOM    111  O   UNL     1      -2.427  14.508  20.566  0.00  0.00    -0.379 OA
BRANCH 111 112
ATOM    112  C   UNL     1      -3.570  14.679  21.397  0.00  0.00    +0.037 C 
ATOM    113  H   UNL     1      -3.267  15.247  22.281  0.00  0.00    +0.052 HD
ATOM    114  H   UNL     1      -4.349  15.241  20.876  0.00  0.00    +0.052 HD
ATOM    115  H   UNL     1      -3.959  13.708  21.723  0.00  0.00    +0.052 HD
ENDBRANCH 111 112
ENDBRANCH  91 111
ENDBRANCH  85  91
ENDBRANCH  83  85
ENDBRANCH  80  83
ENDBRANCH  77  80
ENDBRANCH  71  77
ENDBRANCH  69  71
BRANCH  69 116
ATOM    116  O   UNL     1      -7.925  13.099  19.572  0.00  0.00    -0.379 OA
BRANCH 116 117
ATOM    117  C   UNL     1      -7.123  13.861  20.469  0.00  0.00    +0.037 C 
ATOM    118  H   UNL     1      -7.668  14.772  20.735  0.00  0.00    +0.052 HD
ATOM    119  H   UNL     1      -6.174  14.144  20.003  0.00  0.00    +0.052 HD
ATOM    120  H   UNL     1      -6.933  13.286  21.379  0.00  0.00    +0.052 HD
ENDBRANCH 116 117
ENDBRANCH  69 116
ENDBRANCH  66  69
ENDBRANCH   8  66
BRANCH  31 121
ATOM    121  O   UNL     1     -10.097   8.379  11.787  0.00  0.00    -0.391 OA
ATOM    122  H   UNL     1      -9.622   9.214  11.580  0.00  0.00    +0.210 HD
ENDBRANCH  31 121
BRANCH  29 123
ATOM    123  O   UNL     1      -7.935   5.034   9.678  0.00  0.00    -0.373 OA
BRANCH 123 124
ATOM    124  C   UNL     1      -6.589   4.795   9.288  0.00  0.00    +0.037 C 
ATOM    125  H   UNL     1      -5.963   4.843  10.183  0.00  0.00    +0.052 HD
ATOM    126  H   UNL     1      -6.481   3.806   8.838  0.00  0.00    +0.052 HD
ATOM    127  H   UNL     1      -6.256   5.568   8.592  0.00  0.00    +0.052 HD
ENDBRANCH 123 124
ENDBRANCH  29 123
BRANCH  10 128
ATOM    128  O   UNL     1     -11.622  16.198  17.107  0.00  0.00    -0.379 OA
BRANCH 128 129
ATOM    129  C   UNL     1     -12.554  16.774  18.014  0.00  0.00    +0.037 C 
ATOM    130  H   UNL     1     -12.182  16.735  19.040  0.00  0.00    +0.052 HD
ATOM    131  H   UNL     1     -13.479  16.194  17.962  0.00  0.00    +0.052 HD
ATOM    132  H   UNL     1     -12.776  17.808  17.732  0.00  0.00    +0.052 HD
ENDBRANCH 128 129
ENDBRANCH  10 128
BRANCH   3 133
ATOM    133  O   UNL     1     -10.906   8.004  18.041  0.00  0.00    -0.447 OA
BRANCH 133 134
ATOM    134  C   UNL     1     -10.107   7.099  18.651  0.00  0.00    +0.398 C 
ATOM    135  O   UNL     1     -10.434   5.999  19.059  0.00  0.00    -0.227 OA
ATOM    136  N   UNL     1      -8.857   7.597  18.764  0.00  0.00    -0.295 N 
ATOM    137  H   UNL     1      -8.642   8.496  18.363  0.00  0.00    +0.148 HD
ATOM    138  H   UNL     1      -8.137   7.026  19.177  0.00  0.00    +0.148 HD
ENDBRANCH 133 134
ENDBRANCH   3 133
TORSDOF 29
ENDMDL
MODEL 7
REMARK VINA RESULT:      -4.9      2.537      4.972
REMARK  Name = Kabiramide C_conf2
REMARK  29 active torsions:
REMARK  status: ('A' for Active; 'I' for Inactive)
REMARK    1  A    between atoms: C_1  and  C_2
REMARK    2  A    between atoms: C_4  and  O_64
REMARK    3  A    between atoms: C_9  and  C_41
REMARK    4  A    between atoms: C_10  and  C_40
REMARK    5  A    between atoms: C_11  and  O_38
REMARK    6  A    between atoms: C_30  and  O_36
REMARK    7  A    between atoms: C_31  and  C_35
REMARK    8  A    between atoms: C_32  and  O_34
REMARK    9  A    between atoms: O_36  and  C_37
REMARK   10  A    between atoms: O_38  and  C_39
REMARK   11  A    between atoms: C_41  and  C_42
REMARK   12  A    between atoms: C_42  and  C_43
REMARK   13  A    between atoms: C_42  and  O_62
REMARK   14  A    between atoms: C_43  and  C_44
REMARK   15  A    between atoms: C_43  and  C_45
REMARK   16  A    between atoms: C_45  and  C_46
REMARK   17  A    between atoms: C_46  and  C_47
REMARK   18  A    between atoms: C_47  and  C_49
REMARK   19  A    between atoms: C_49  and  C_50
REMARK   20  A    between atoms: C_49  and  C_51
REMARK   21  A    between atoms: C_51  and  C_52
REMARK   22  A    between atoms: C_51  and  O_60
REMARK   23  A    between atoms: C_52  and  C_53
REMARK   24  A    between atoms: C_52  and  C_54
REMARK   25  A    between atoms: C_55  and  N_56
REMARK   26  A    between atoms: N_56  and  C_57
REMARK   27  A    between atoms: O_60  and  C_61
REMARK   28  A    between atoms: O_62  and  C_63
REMARK   29  A    between atoms: O_64  and  C_65
REMARK                            x       y       z     vdW  Elec       q    Type
REMARK                         _______ _______ _______ _____ _____    ______ ____
ROOT
ATOM      1  C   UNL     1      -9.635  16.815  19.424  0.00  0.00    -0.038 C 
ATOM      2  C   UNL     1     -10.396  16.137  18.266  0.00  0.00    -0.012 C 
ATOM      3  C   UNL     1     -10.055  14.664  17.952  0.00  0.00    +0.115 C 
ATOM      4  C   UNL     1     -10.383  13.724  19.119  0.00  0.00    +0.082 C 
ATOM      5  C   UNL     1      -9.983  12.294  18.823  0.00  0.00    +0.311 C 
ATOM      6  O   UNL     1      -9.960  11.780  17.714  0.00  0.00    -0.251 OA
ATOM      7  O   UNL     1      -9.714  11.625  19.990  0.00  0.00    -0.461 OA
ATOM      8  C   UNL     1      -9.251  10.264  19.844  0.00  0.00    +0.110 C 
ATOM      9  C   UNL     1      -9.498   9.467  21.169  0.00  0.00    +0.020 C 
ATOM     10  C   UNL     1     -11.024   9.238  21.460  0.00  0.00    +0.068 C 
ATOM     11  C   UNL     1     -11.815  10.497  21.887  0.00  0.00    -0.008 C 
ATOM     12  C   UNL     1     -11.292  11.149  23.144  0.00  0.00    -0.077 C 
ATOM     13  C   UNL     1     -10.673  12.335  23.117  0.00  0.00    -0.003 C 
ATOM     14  C   UNL     1     -10.094  12.964  24.247  0.00  0.00    +0.220 A 
ATOM     15  N   UNL     1      -9.122  13.851  24.141  0.00  0.00    -0.205 NA
ATOM     16  C   UNL     1      -8.920  14.334  25.405  0.00  0.00    +0.164 A 
ATOM     17  C   UNL     1      -9.735  13.677  26.283  0.00  0.00    +0.125 A 
ATOM     18  O   UNL     1     -10.477  12.778  25.567  0.00  0.00    -0.443 OA
ATOM     19  C   UNL     1      -7.953  15.521  25.676  0.00  0.00    +0.250 A 
ATOM     20  N   UNL     1      -7.229  16.021  24.697  0.00  0.00    -0.203 NA
ATOM     21  C   UNL     1      -6.731  17.190  25.202  0.00  0.00    +0.164 A 
ATOM     22  C   UNL     1      -7.055  17.301  26.526  0.00  0.00    +0.125 A 
ATOM     23  O   UNL     1      -7.820  16.211  26.861  0.00  0.00    -0.442 OA
ATOM     24  C   UNL     1      -6.054  18.230  24.269  0.00  0.00    +0.249 A 
ATOM     25  N   UNL     1      -5.864  17.951  22.991  0.00  0.00    -0.210 NA
ATOM     26  C   UNL     1      -5.601  19.161  22.402  0.00  0.00    +0.109 A 
ATOM     27  C   UNL     1      -5.462  20.108  23.395  0.00  0.00    +0.118 A 
ATOM     28  O   UNL     1      -5.726  19.518  24.599  0.00  0.00    -0.442 OA
ATOM     29  C   UNL     1      -5.500  19.284  20.906  0.00  0.00    +0.108 C 
ATOM     30  C   UNL     1      -6.830  18.921  20.141  0.00  0.00    +0.014 C 
ATOM     31  C   UNL     1      -7.208  17.411  20.302  0.00  0.00    +0.061 C 
ATOM     32  C   UNL     1      -8.100  16.742  19.228  0.00  0.00    -0.024 C 
ATOM     33  H   UNL     1      -9.894  16.286  20.349  0.00  0.00    +0.030 HD
ATOM     34  H   UNL     1     -10.246  16.737  17.357  0.00  0.00    +0.030 HD
ATOM     35  H   UNL     1     -11.475  16.199  18.459  0.00  0.00    +0.030 HD
ATOM     36  H   UNL     1      -8.997  14.547  17.683  0.00  0.00    +0.074 HD
ATOM     37  H   UNL     1     -11.459  13.721  19.326  0.00  0.00    +0.041 HD
ATOM     38  H   UNL     1      -9.848  14.045  20.017  0.00  0.00    +0.041 HD
ATOM     39  H   UNL     1      -9.850   9.772  19.065  0.00  0.00    +0.074 HD
ATOM     40  H   UNL     1      -9.078  10.028  22.010  0.00  0.00    +0.036 HD
ATOM     41  H   UNL     1     -11.480   8.833  20.546  0.00  0.00    +0.060 HD
ATOM     42  H   UNL     1     -11.856  11.215  21.061  0.00  0.00    +0.033 HD
ATOM     43  H   UNL     1     -12.860  10.230  22.085  0.00  0.00    +0.033 HD
ATOM     44  H   UNL     1     -11.403  10.595  24.075  0.00  0.00    +0.057 HD
ATOM     45  H   UNL     1     -10.528  12.854  22.176  0.00  0.00    +0.067 HD
ATOM     46  H   UNL     1      -9.922  13.723  27.345  0.00  0.00    +0.105 HD
ATOM     47  H   UNL     1      -6.891  18.033  27.303  0.00  0.00    +0.105 HD
ATOM     48  H   UNL     1      -5.234  21.163  23.407  0.00  0.00    +0.105 HD
ATOM     49  H   UNL     1      -4.719  18.591  20.562  0.00  0.00    +0.067 HD
ATOM     50  H   UNL     1      -7.629  19.541  20.568  0.00  0.00    +0.035 HD
ATOM     51  H   UNL     1      -6.275  16.832  20.318  0.00  0.00    +0.060 HD
ATOM     52  H   UNL     1      -7.844  15.675  19.270  0.00  0.00    +0.029 HD
ATOM     53  H   UNL     1      -7.819  17.051  18.215  0.00  0.00    +0.029 HD
ENDROOT
BRANCH   1  54
ATOM     54  C   UNL     1     -10.151  18.249  19.570  0.00  0.00    -0.062 C 
ATOM     55  H   UNL     1     -11.242  18.285  19.595  0.00  0.00    +0.023 HD
ATOM     56  H   UNL     1      -9.768  18.721  20.479  0.00  0.00    +0.023 HD
ATOM     57  H   UNL     1      -9.836  18.863  18.718  0.00  0.00    +0.023 HD
ENDBRANCH   1  54
BRANCH  30  58
ATOM     58  C   UNL     1      -6.682  19.323  18.663  0.00  0.00    -0.057 C 
ATOM     59  H   UNL     1      -7.271  20.213  18.426  0.00  0.00    +0.023 HD
ATOM     60  H   UNL     1      -5.647  19.581  18.415  0.00  0.00    +0.023 HD
ATOM     61  H   UNL     1      -6.996  18.509  18.000  0.00  0.00    +0.023 HD
ENDBRANCH  30  58
BRANCH   9  62
ATOM     62  C   UNL     1      -8.776   8.102  21.138  0.00  0.00    -0.057 C 
ATOM     63  H   UNL     1      -9.337   7.378  20.539  0.00  0.00    +0.023 HD
ATOM     64  H   UNL     1      -8.649   7.689  22.143  0.00  0.00    +0.023 HD
ATOM     65  H   UNL     1      -7.767   8.184  20.726  0.00  0.00    +0.023 HD
ENDBRANCH   9  62
BRANCH   8  66
ATOM     66  C   UNL     1      -7.776  10.274  19.357  0.00  0.00    +0.011 C 
ATOM     67  H   UNL     1      -7.166   9.735  20.092  0.00  0.00    +0.033 HD
ATOM     68  H   UNL     1      -7.417  11.310  19.368  0.00  0.00    +0.033 HD
BRANCH  66  69
ATOM     69  C   UNL     1      -7.532   9.634  17.971  0.00  0.00    +0.064 C 
ATOM     70  H   UNL     1      -7.948  10.290  17.198  0.00  0.00    +0.060 HD
BRANCH  69  71
ATOM     71  C   UNL     1      -6.004   9.479  17.707  0.00  0.00    -0.017 C 
ATOM     72  H   UNL     1      -5.701   8.513  18.134  0.00  0.00    +0.032 HD
BRANCH  71  73
ATOM     73  C   UNL     1      -5.666   9.461  16.212  0.00  0.00    -0.060 C 
ATOM     74  H   UNL     1      -6.457   8.971  15.639  0.00  0.00    +0.023 HD
ATOM     75  H   UNL     1      -4.728   8.929  16.018  0.00  0.00    +0.023 HD
ATOM     76  H   UNL     1      -5.569  10.475  15.811  0.00  0.00    +0.023 HD
ENDBRANCH  71  73
BRANCH  71  77
ATOM     77  C   UNL     1      -5.196  10.574  18.439  0.00  0.00    -0.041 C 
ATOM     78  H   UNL     1      -5.687  10.840  19.383  0.00  0.00    +0.027 HD
ATOM     79  H   UNL     1      -4.215  10.157  18.701  0.00  0.00    +0.027 HD
BRANCH  77  80
ATOM     80  C   UNL     1      -4.939  11.814  17.577  0.00  0.00    +0.007 C 
ATOM     81  H   UNL     1      -5.198  11.632  16.530  0.00  0.00    +0.034 HD
ATOM     82  H   UNL     1      -3.870  12.056  17.592  0.00  0.00    +0.034 HD
BRANCH  80  83
ATOM     83  C   UNL     1      -5.648  13.061  18.081  0.00  0.00    +0.139 C 
ATOM     84  O   UNL     1      -6.780  13.346  17.687  0.00  0.00    -0.297 OA
BRANCH  83  85
ATOM     85  C   UNL     1      -4.960  13.852  19.195  0.00  0.00    +0.041 C 
ATOM     86  H   UNL     1      -4.072  13.283  19.496  0.00  0.00    +0.040 HD
BRANCH  85  87
ATOM     87  C   UNL     1      -5.947  13.915  20.360  0.00  0.00    -0.053 C 
ATOM     88  H   UNL     1      -6.795  14.568  20.141  0.00  0.00    +0.024 HD
ATOM     89  H   UNL     1      -6.334  12.921  20.605  0.00  0.00    +0.024 HD
ATOM     90  H   UNL     1      -5.468  14.309  21.263  0.00  0.00    +0.024 HD
ENDBRANCH  85  87
BRANCH  85  91
ATOM     91  C   UNL     1      -4.510  15.236  18.669  0.00  0.00    +0.074 C 
ATOM     92  H   UNL     1      -5.337  15.952  18.769  0.00  0.00    +0.061 HD
BRANCH  91  93
ATOM     93  C   UNL     1      -3.280  15.835  19.420  0.00  0.00    +0.003 C 
ATOM     94  H   UNL     1      -3.484  15.788  20.497  0.00  0.00    +0.037 HD
BRANCH  93  95
ATOM     95  C   UNL     1      -3.087  17.318  19.077  0.00  0.00    -0.057 C 
ATOM     96  H   UNL     1      -3.065  17.462  17.992  0.00  0.00    +0.024 HD
ATOM     97  H   UNL     1      -2.158  17.719  19.492  0.00  0.00    +0.024 HD
ATOM     98  H   UNL     1      -3.913  17.920  19.475  0.00  0.00    +0.024 HD
ENDBRANCH  93  95
BRANCH  93  99
ATOM     99  C   UNL     1      -1.987  15.098  19.113  0.00  0.00    -0.065 C 
ATOM    100  C   UNL     1      -0.794  15.461  19.609  0.00  0.00    -0.005 C 
ATOM    101  H   UNL     1      -2.101  14.247  18.447  0.00  0.00    +0.059 HD
ATOM    102  H   UNL     1      -0.746  16.324  20.272  0.00  0.00    +0.078 HD
BRANCH 100 103
ATOM    103  N   UNL     1       0.429  14.852  19.381  0.00  0.00    -0.284 N 
ATOM    104  C   UNL     1       0.857  14.336  18.161  0.00  0.00    +0.206 C 
ATOM    105  O   UNL     1       1.931  13.780  17.952  0.00  0.00    -0.279 OA
ATOM    106  H   UNL     1       0.134  14.460  17.344  0.00  0.00    +0.126 HD
BRANCH 103 107
ATOM    107  C   UNL     1       1.341  14.742  20.517  0.00  0.00    +0.007 C 
ATOM    108  H   UNL     1       0.790  14.989  21.432  0.00  0.00    +0.043 HD
ATOM    109  H   UNL     1       1.750  13.734  20.619  0.00  0.00    +0.043 HD
ATOM    110  H   UNL     1       2.170  15.445  20.386  0.00  0.00    +0.043 HD
ENDBRANCH 103 107
ENDBRANCH 100 103
ENDBRANCH  93  99
ENDBRANCH  91  93
BRANCH  91 111
ATOM    111  O   UNL     1      -4.152  15.076  17.280  0.00  0.00    -0.379 OA
BRANCH 111 112
ATOM    112  C   UNL     1      -4.864  15.951  16.412  0.00  0.00    +0.037 C 
ATOM    113  H   UNL     1      -4.175  16.730  16.074  0.00  0.00    +0.052 HD
ATOM    114  H   UNL     1      -5.234  15.413  15.535  0.00  0.00    +0.052 HD
ATOM    115  H   UNL     1      -5.696  16.427  16.941  0.00  0.00    +0.052 HD
ENDBRANCH 111 112
ENDBRANCH  91 111
ENDBRANCH  85  91
ENDBRANCH  83  85
ENDBRANCH  80  83
ENDBRANCH  77  80
ENDBRANCH  71  77
ENDBRANCH  69  71
BRANCH  69 116
ATOM    116  O   UNL     1      -8.172   8.354  17.947  0.00  0.00    -0.379 OA
BRANCH 116 117
ATOM    117  C   UNL     1      -9.057   8.189  16.843  0.00  0.00    +0.037 C 
ATOM    118  H   UNL     1      -9.706   7.330  17.044  0.00  0.00    +0.052 HD
ATOM    119  H   UNL     1      -8.500   7.999  15.920  0.00  0.00    +0.052 HD
ATOM    120  H   UNL     1      -9.677   9.080  16.726  0.00  0.00    +0.052 HD
ENDBRANCH 116 117
ENDBRANCH  69 116
ENDBRANCH  66  69
ENDBRANCH   8  66
BRANCH  31 121
ATOM    121  O   UNL     1      -7.875  17.202  21.545  0.00  0.00    -0.391 OA
ATOM    122  H   UNL     1      -8.556  17.907  21.630  0.00  0.00    +0.210 HD
ENDBRANCH  31 121
BRANCH  29 123
ATOM    123  O   UNL     1      -5.126  20.636  20.560  0.00  0.00    -0.373 OA
BRANCH 123 124
ATOM    124  C   UNL     1      -3.747  20.753  20.236  0.00  0.00    +0.037 C 
ATOM    125  H   UNL     1      -3.280  19.775  20.377  0.00  0.00    +0.052 HD
ATOM    126  H   UNL     1      -3.614  21.059  19.196  0.00  0.00    +0.052 HD
ATOM    127  H   UNL     1      -3.262  21.466  20.907  0.00  0.00    +0.052 HD
ENDBRANCH 123 124
ENDBRANCH  29 123
BRANCH  10 128
ATOM    128  O   UNL     1     -11.145   8.250  22.505  0.00  0.00    -0.379 OA
BRANCH 128 129
ATOM    129  C   UNL     1     -12.308   7.438  22.396  0.00  0.00    +0.037 C 
ATOM    130  H   UNL     1     -12.660   7.390  21.363  0.00  0.00    +0.052 HD
ATOM    131  H   UNL     1     -13.094   7.891  23.006  0.00  0.00    +0.052 HD
ATOM    132  H   UNL     1     -12.111   6.432  22.776  0.00  0.00    +0.052 HD
ENDBRANCH 128 129
ENDBRANCH  10 128
BRANCH   3 133
ATOM    133  O   UNL     1     -10.876  14.266  16.826  0.00  0.00    -0.447 OA
BRANCH 133 134
ATOM    134  C   UNL     1     -10.292  14.352  15.609  0.00  0.00    +0.398 C 
ATOM    135  O   UNL     1     -10.820  14.711  14.572  0.00  0.00    -0.227 OA
ATOM    136  N   UNL     1      -9.002  13.961  15.694  0.00  0.00    -0.295 N 
ATOM    137  H   UNL     1      -8.614  13.720  16.592  0.00  0.00    +0.148 HD
ATOM    138  H   UNL     1      -8.423  13.994  14.869  0.00  0.00    +0.148 HD
ENDBRANCH 133 134
ENDBRANCH   3 133
TORSDOF 29
ENDMDL
MODEL 8
REMARK VINA RESULT:      -4.9      2.425      9.198
REMARK  Name = Kabiramide C_conf2
REMARK  29 active torsions:
REMARK  status: ('A' for Active; 'I' for Inactive)
REMARK    1  A    between atoms: C_1  and  C_2
REMARK    2  A    between atoms: C_4  and  O_64
REMARK    3  A    between atoms: C_9  and  C_41
REMARK    4  A    between atoms: C_10  and  C_40
REMARK    5  A    between atoms: C_11  and  O_38
REMARK    6  A    between atoms: C_30  and  O_36
REMARK    7  A    between atoms: C_31  and  C_35
REMARK    8  A    between atoms: C_32  and  O_34
REMARK    9  A    between atoms: O_36  and  C_37
REMARK   10  A    between atoms: O_38  and  C_39
REMARK   11  A    between atoms: C_41  and  C_42
REMARK   12  A    between atoms: C_42  and  C_43
REMARK   13  A    between atoms: C_42  and  O_62
REMARK   14  A    between atoms: C_43  and  C_44
REMARK   15  A    between atoms: C_43  and  C_45
REMARK   16  A    between atoms: C_45  and  C_46
REMARK   17  A    between atoms: C_46  and  C_47
REMARK   18  A    between atoms: C_47  and  C_49
REMARK   19  A    between atoms: C_49  and  C_50
REMARK   20  A    between atoms: C_49  and  C_51
REMARK   21  A    between atoms: C_51  and  C_52
REMARK   22  A    between atoms: C_51  and  O_60
REMARK   23  A    between atoms: C_52  and  C_53
REMARK   24  A    between atoms: C_52  and  C_54
REMARK   25  A    between atoms: C_55  and  N_56
REMARK   26  A    between atoms: N_56  and  C_57
REMARK   27  A    between atoms: O_60  and  C_61
REMARK   28  A    between atoms: O_62  and  C_63
REMARK   29  A    between atoms: O_64  and  C_65
REMARK                            x       y       z     vdW  Elec       q    Type
REMARK                         _______ _______ _______ _____ _____    ______ ____
ROOT
ATOM      1  C   UNL     1     -10.624  14.158  23.343  0.00  0.00    -0.038 C 
ATOM      2  C   UNL     1     -10.225  15.444  24.098  0.00  0.00    -0.012 C 
ATOM      3  C   UNL     1      -8.850  16.067  23.773  0.00  0.00    +0.115 C 
ATOM      4  C   UNL     1      -8.744  16.528  22.314  0.00  0.00    +0.082 C 
ATOM      5  C   UNL     1      -7.369  17.075  21.992  0.00  0.00    +0.311 C 
ATOM      6  O   UNL     1      -6.627  17.637  22.785  0.00  0.00    -0.251 OA
ATOM      7  O   UNL     1      -7.095  16.915  20.658  0.00  0.00    -0.461 OA
ATOM      8  C   UNL     1      -5.780  17.334  20.230  0.00  0.00    +0.110 C 
ATOM      9  C   UNL     1      -5.779  17.611  18.689  0.00  0.00    +0.020 C 
ATOM     10  C   UNL     1      -6.638  18.865  18.300  0.00  0.00    +0.068 C 
ATOM     11  C   UNL     1      -8.170  18.687  18.424  0.00  0.00    -0.008 C 
ATOM     12  C   UNL     1      -8.726  17.577  17.564  0.00  0.00    -0.077 C 
ATOM     13  C   UNL     1      -9.198  16.444  18.097  0.00  0.00    -0.003 C 
ATOM     14  C   UNL     1      -9.661  15.337  17.345  0.00  0.00    +0.220 A 
ATOM     15  N   UNL     1      -9.678  14.109  17.830  0.00  0.00    -0.205 NA
ATOM     16  C   UNL     1     -10.309  13.344  16.888  0.00  0.00    +0.164 A 
ATOM     17  C   UNL     1     -10.613  14.114  15.800  0.00  0.00    +0.125 A 
ATOM     18  O   UNL     1     -10.184  15.387  16.061  0.00  0.00    -0.443 OA
ATOM     19  C   UNL     1     -10.666  11.855  17.156  0.00  0.00    +0.250 A 
ATOM     20  N   UNL     1     -10.271  11.271  18.268  0.00  0.00    -0.203 NA
ATOM     21  C   UNL     1     -10.976  10.100  18.308  0.00  0.00    +0.164 A 
ATOM     22  C   UNL     1     -11.678   9.939  17.145  0.00  0.00    +0.125 A 
ATOM     23  O   UNL     1     -11.464  11.053  16.371  0.00  0.00    -0.442 OA
ATOM     24  C   UNL     1     -11.016   9.244  19.603  0.00  0.00    +0.249 A 
ATOM     25  N   UNL     1     -10.288   9.591  20.650  0.00  0.00    -0.210 NA
ATOM     26  C   UNL     1     -10.815   8.877  21.696  0.00  0.00    +0.109 A 
ATOM     27  C   UNL     1     -11.734   7.981  21.193  0.00  0.00    +0.118 A 
ATOM     28  O   UNL     1     -11.855   8.189  19.848  0.00  0.00    -0.442 OA
ATOM     29  C   UNL     1     -10.363   9.132  23.108  0.00  0.00    +0.108 C 
ATOM     30  C   UNL     1     -10.666  10.590  23.626  0.00  0.00    +0.014 C 
ATOM     31  C   UNL     1      -9.856  11.674  22.842  0.00  0.00    +0.061 C 
ATOM     32  C   UNL     1      -9.571  13.036  23.521  0.00  0.00    -0.024 C 
ATOM     33  H   UNL     1     -10.695  14.406  22.277  0.00  0.00    +0.030 HD
ATOM     34  H   UNL     1     -10.277  15.241  25.177  0.00  0.00    +0.030 HD
ATOM     35  H   UNL     1     -10.991  16.213  23.927  0.00  0.00    +0.030 HD
ATOM     36  H   UNL     1      -8.034  15.365  23.989  0.00  0.00    +0.074 HD
ATOM     37  H   UNL     1      -9.465  17.326  22.105  0.00  0.00    +0.041 HD
ATOM     38  H   UNL     1      -8.938  15.687  21.643  0.00  0.00    +0.041 HD
ATOM     39  H   UNL     1      -5.540  18.288  20.720  0.00  0.00    +0.074 HD
ATOM     40  H   UNL     1      -6.198  16.744  18.168  0.00  0.00    +0.036 HD
ATOM     41  H   UNL     1      -6.330  19.695  18.952  0.00  0.00    +0.060 HD
ATOM     42  H   UNL     1      -8.449  18.548  19.473  0.00  0.00    +0.033 HD
ATOM     43  H   UNL     1      -8.678  19.608  18.113  0.00  0.00    +0.033 HD
ATOM     44  H   UNL     1      -8.691  17.719  16.486  0.00  0.00    +0.057 HD
ATOM     45  H   UNL     1      -9.183  16.298  19.171  0.00  0.00    +0.067 HD
ATOM     46  H   UNL     1     -11.101  13.951  14.851  0.00  0.00    +0.105 HD
ATOM     47  H   UNL     1     -12.358   9.198  16.749  0.00  0.00    +0.105 HD
ATOM     48  H   UNL     1     -12.363   7.219  21.628  0.00  0.00    +0.105 HD
ATOM     49  H   UNL     1      -9.274   8.986  23.146  0.00  0.00    +0.067 HD
ATOM     50  H   UNL     1     -11.740  10.768  23.482  0.00  0.00    +0.035 HD
ATOM     51  H   UNL     1      -8.871  11.248  22.602  0.00  0.00    +0.060 HD
ATOM     52  H   UNL     1      -8.655  13.407  23.040  0.00  0.00    +0.029 HD
ATOM     53  H   UNL     1      -9.298  12.917  24.574  0.00  0.00    +0.029 HD
ENDROOT
BRANCH   1  54
ATOM     54  C   UNL     1     -12.025  13.741  23.801  0.00  0.00    -0.062 C 
ATOM     55  H   UNL     1     -12.181  12.666  23.695  0.00  0.00    +0.023 HD
ATOM     56  H   UNL     1     -12.203  14.017  24.843  0.00  0.00    +0.023 HD
ATOM     57  H   UNL     1     -12.793  14.231  23.191  0.00  0.00    +0.023 HD
ENDBRANCH   1  54
BRANCH  30  58
ATOM     58  C   UNL     1     -10.393  10.649  25.139  0.00  0.00    -0.057 C 
ATOM     59  H   UNL     1      -9.343  10.864  25.352  0.00  0.00    +0.023 HD
ATOM     60  H   UNL     1     -10.961  11.451  25.623  0.00  0.00    +0.023 HD
ATOM     61  H   UNL     1     -10.662   9.705  25.625  0.00  0.00    +0.023 HD
ENDBRANCH  30  58
BRANCH   9  62
ATOM     62  C   UNL     1      -4.340  17.796  18.160  0.00  0.00    -0.057 C 
ATOM     63  H   UNL     1      -3.649  18.021  18.979  0.00  0.00    +0.023 HD
ATOM     64  H   UNL     1      -4.278  18.608  17.430  0.00  0.00    +0.023 HD
ATOM     65  H   UNL     1      -3.979  16.906  17.638  0.00  0.00    +0.023 HD
ENDBRANCH   9  62
BRANCH   8  66
ATOM     66  C   UNL     1      -4.731  16.292  20.704  0.00  0.00    +0.011 C 
ATOM     67  H   UNL     1      -4.496  16.493  21.757  0.00  0.00    +0.033 HD
ATOM     68  H   UNL     1      -3.802  16.461  20.149  0.00  0.00    +0.033 HD
BRANCH  66  69
ATOM     69  C   UNL     1      -5.166  14.813  20.587  0.00  0.00    +0.064 C 
ATOM     70  H   UNL     1      -6.248  14.772  20.420  0.00  0.00    +0.060 HD
BRANCH  69  71
ATOM     71  C   UNL     1      -4.460  14.134  19.374  0.00  0.00    -0.017 C 
ATOM     72  H   UNL     1      -5.004  14.444  18.472  0.00  0.00    +0.032 HD
BRANCH  71  73
ATOM     73  C   UNL     1      -3.000  14.575  19.223  0.00  0.00    -0.060 C 
ATOM     74  H   UNL     1      -2.824  15.521  19.741  0.00  0.00    +0.023 HD
ATOM     75  H   UNL     1      -2.728  14.709  18.171  0.00  0.00    +0.023 HD
ATOM     76  H   UNL     1      -2.313  13.844  19.661  0.00  0.00    +0.023 HD
ENDBRANCH  71  73
BRANCH  71  77
ATOM     77  C   UNL     1      -4.562  12.594  19.459  0.00  0.00    -0.041 C 
ATOM     78  H   UNL     1      -3.956  12.130  18.671  0.00  0.00    +0.027 HD
ATOM     79  H   UNL     1      -4.130  12.275  20.416  0.00  0.00    +0.027 HD
BRANCH  77  80
ATOM     80  C   UNL     1      -6.005  12.080  19.425  0.00  0.00    +0.007 C 
ATOM     81  H   UNL     1      -6.719  12.882  19.639  0.00  0.00    +0.034 HD
ATOM     82  H   UNL     1      -6.145  11.327  20.210  0.00  0.00    +0.034 HD
BRANCH  80  83
ATOM     83  C   UNL     1      -6.372  11.388  18.123  0.00  0.00    +0.139 C 
ATOM     84  O   UNL     1      -7.039  11.969  17.265  0.00  0.00    -0.297 OA
BRANCH  83  85
ATOM     85  C   UNL     1      -5.760  10.009  17.869  0.00  0.00    +0.041 C 
ATOM     86  H   UNL     1      -5.051   9.815  18.683  0.00  0.00    +0.040 HD
BRANCH  85  87
ATOM     87  C   UNL     1      -5.006  10.103  16.543  0.00  0.00    -0.053 C 
ATOM     88  H   UNL     1      -4.008   9.664  16.610  0.00  0.00    +0.024 HD
ATOM     89  H   UNL     1      -5.551   9.595  15.742  0.00  0.00    +0.024 HD
ATOM     90  H   UNL     1      -4.875  11.147  16.237  0.00  0.00    +0.024 HD
ENDBRANCH  85  87
BRANCH  85  91
ATOM     91  C   UNL     1      -6.861   8.921  17.898  0.00  0.00    +0.074 C 
ATOM     92  H   UNL     1      -7.806   9.366  18.238  0.00  0.00    +0.061 HD
BRANCH  91  93
ATOM     93  C   UNL     1      -7.131   8.252  16.515  0.00  0.00    +0.003 C 
ATOM     94  H   UNL     1      -6.300   8.505  15.846  0.00  0.00    +0.037 HD
BRANCH  93  95
ATOM     95  C   UNL     1      -8.402   8.813  15.864  0.00  0.00    -0.057 C 
ATOM     96  H   UNL     1      -9.203   8.910  16.604  0.00  0.00    +0.024 HD
ATOM     97  H   UNL     1      -8.765   8.176  15.052  0.00  0.00    +0.024 HD
ATOM     98  H   UNL     1      -8.216   9.809  15.443  0.00  0.00    +0.024 HD
ENDBRANCH  93  95
BRANCH  93  99
ATOM     99  C   UNL     1      -7.266   6.741  16.608  0.00  0.00    -0.065 C 
ATOM    100  C   UNL     1      -8.432   6.092  16.464  0.00  0.00    -0.005 C 
ATOM    101  H   UNL     1      -6.335   6.217  16.810  0.00  0.00    +0.059 HD
ATOM    102  H   UNL     1      -9.330   6.675  16.261  0.00  0.00    +0.078 HD
BRANCH 100 103
ATOM    103  N   UNL     1      -8.646   4.726  16.536  0.00  0.00    -0.284 N 
ATOM    104  C   UNL     1      -7.707   3.746  16.226  0.00  0.00    +0.206 C 
ATOM    105  O   UNL     1      -7.890   2.533  16.269  0.00  0.00    -0.279 OA
ATOM    106  H   UNL     1      -6.730   4.143  15.918  0.00  0.00    +0.126 HD
BRANCH 103 107
ATOM    107  C   UNL     1      -9.967   4.279  16.969  0.00  0.00    +0.007 C 
ATOM    108  H   UNL     1     -10.587   4.111  16.081  0.00  0.00    +0.043 HD
ATOM    109  H   UNL     1      -9.920   3.350  17.542  0.00  0.00    +0.043 HD
ATOM    110  H   UNL     1     -10.424   5.053  17.594  0.00  0.00    +0.043 HD
ENDBRANCH 103 107
ENDBRANCH 100 103
ENDBRANCH  93  99
ENDBRANCH  91  93
BRANCH  91 111
ATOM    111  O   UNL     1      -6.431   7.894  18.816  0.00  0.00    -0.379 OA
BRANCH 111 112
ATOM    112  C   UNL     1      -7.241   7.810  19.984  0.00  0.00    +0.037 C 
ATOM    113  H   UNL     1      -7.460   8.828  20.320  0.00  0.00    +0.052 HD
ATOM    114  H   UNL     1      -8.186   7.307  19.767  0.00  0.00    +0.052 HD
ATOM    115  H   UNL     1      -6.710   7.285  20.785  0.00  0.00    +0.052 HD
ENDBRANCH 111 112
ENDBRANCH  91 111
ENDBRANCH  85  91
ENDBRANCH  83  85
ENDBRANCH  80  83
ENDBRANCH  77  80
ENDBRANCH  71  77
ENDBRANCH  69  71
BRANCH  69 116
ATOM    116  O   UNL     1      -4.817  14.142  21.802  0.00  0.00    -0.379 OA
BRANCH 116 117
ATOM    117  C   UNL     1      -5.925  13.947  22.675  0.00  0.00    +0.037 C 
ATOM    118  H   UNL     1      -5.639  14.278  23.679  0.00  0.00    +0.052 HD
ATOM    119  H   UNL     1      -6.205  12.890  22.722  0.00  0.00    +0.052 HD
ATOM    120  H   UNL     1      -6.776  14.542  22.336  0.00  0.00    +0.052 HD
ENDBRANCH 116 117
ENDBRANCH  69 116
ENDBRANCH  66  69
ENDBRANCH   8  66
BRANCH  31 121
ATOM    121  O   UNL     1     -10.510  11.982  21.613  0.00  0.00    -0.391 OA
ATOM    122  H   UNL     1     -10.295  12.917  21.397  0.00  0.00    +0.210 HD
ENDBRANCH  31 121
BRANCH  29 123
ATOM    123  O   UNL     1     -11.002   8.187  23.994  0.00  0.00    -0.373 OA
BRANCH 123 124
ATOM    124  C   UNL     1     -10.132   7.136  24.390  0.00  0.00    +0.037 C 
ATOM    125  H   UNL     1     -10.410   6.236  23.834  0.00  0.00    +0.052 HD
ATOM    126  H   UNL     1      -9.092   7.381  24.162  0.00  0.00    +0.052 HD
ATOM    127  H   UNL     1     -10.248   6.931  25.457  0.00  0.00    +0.052 HD
ENDBRANCH 123 124
ENDBRANCH  29 123
BRANCH  10 128
ATOM    128  O   UNL     1      -6.332  19.223  16.936  0.00  0.00    -0.379 OA
BRANCH 128 129
ATOM    129  C   UNL     1      -6.597  20.585  16.625  0.00  0.00    +0.037 C 
ATOM    130  H   UNL     1      -6.232  20.840  15.627  0.00  0.00    +0.052 HD
ATOM    131  H   UNL     1      -6.069  21.207  17.352  0.00  0.00    +0.052 HD
ATOM    132  H   UNL     1      -7.668  20.795  16.701  0.00  0.00    +0.052 HD
ENDBRANCH 128 129
ENDBRANCH  10 128
BRANCH   3 133
ATOM    133  O   UNL     1      -8.703  17.238  24.614  0.00  0.00    -0.447 OA
BRANCH 133 134
ATOM    134  C   UNL     1      -8.067  17.043  25.792  0.00  0.00    +0.398 C 
ATOM    135  O   UNL     1      -8.473  17.356  26.898  0.00  0.00    -0.227 OA
ATOM    136  N   UNL     1      -6.876  16.445  25.574  0.00  0.00    -0.295 N 
ATOM    137  H   UNL     1      -6.622  16.170  24.640  0.00  0.00    +0.148 HD
ATOM    138  H   UNL     1      -6.293  16.210  26.363  0.00  0.00    +0.148 HD
ENDBRANCH 133 134
ENDBRANCH   3 133
TORSDOF 29
ENDMDL
MODEL 9
REMARK VINA RESULT:      -4.9      4.409      7.027
REMARK  Name = Kabiramide C_conf2
REMARK  29 active torsions:
REMARK  status: ('A' for Active; 'I' for Inactive)
REMARK    1  A    between atoms: C_1  and  C_2
REMARK    2  A    between atoms: C_4  and  O_64
REMARK    3  A    between atoms: C_9  and  C_41
REMARK    4  A    between atoms: C_10  and  C_40
REMARK    5  A    between atoms: C_11  and  O_38
REMARK    6  A    between atoms: C_30  and  O_36
REMARK    7  A    between atoms: C_31  and  C_35
REMARK    8  A    between atoms: C_32  and  O_34
REMARK    9  A    between atoms: O_36  and  C_37
REMARK   10  A    between atoms: O_38  and  C_39
REMARK   11  A    between atoms: C_41  and  C_42
REMARK   12  A    between atoms: C_42  and  C_43
REMARK   13  A    between atoms: C_42  and  O_62
REMARK   14  A    between atoms: C_43  and  C_44
REMARK   15  A    between atoms: C_43  and  C_45
REMARK   16  A    between atoms: C_45  and  C_46
REMARK   17  A    between atoms: C_46  and  C_47
REMARK   18  A    between atoms: C_47  and  C_49
REMARK   19  A    between atoms: C_49  and  C_50
REMARK   20  A    between atoms: C_49  and  C_51
REMARK   21  A    between atoms: C_51  and  C_52
REMARK   22  A    between atoms: C_51  and  O_60
REMARK   23  A    between atoms: C_52  and  C_53
REMARK   24  A    between atoms: C_52  and  C_54
REMARK   25  A    between atoms: C_55  and  N_56
REMARK   26  A    between atoms: N_56  and  C_57
REMARK   27  A    between atoms: O_60  and  C_61
REMARK   28  A    between atoms: O_62  and  C_63
REMARK   29  A    between atoms: O_64  and  C_65
REMARK                            x       y       z     vdW  Elec       q    Type
REMARK                         _______ _______ _______ _____ _____    ______ ____
ROOT
ATOM      1  C   UNL     1      -8.791  20.004  20.428  0.00  0.00    -0.038 C 
ATOM      2  C   UNL     1      -8.875  19.970  18.887  0.00  0.00    -0.012 C 
ATOM      3  C   UNL     1      -7.799  19.160  18.130  0.00  0.00    +0.115 C 
ATOM      4  C   UNL     1      -7.845  17.665  18.468  0.00  0.00    +0.082 C 
ATOM      5  C   UNL     1      -6.745  16.893  17.771  0.00  0.00    +0.311 C 
ATOM      6  O   UNL     1      -6.254  17.182  16.688  0.00  0.00    -0.251 OA
ATOM      7  O   UNL     1      -6.417  15.776  18.493  0.00  0.00    -0.461 OA
ATOM      8  C   UNL     1      -5.327  14.984  17.972  0.00  0.00    +0.110 C 
ATOM      9  C   UNL     1      -5.405  13.524  18.531  0.00  0.00    +0.020 C 
ATOM     10  C   UNL     1      -6.644  12.732  17.982  0.00  0.00    +0.068 C 
ATOM     11  C   UNL     1      -8.018  13.182  18.531  0.00  0.00    -0.008 C 
ATOM     12  C   UNL     1      -8.142  13.068  20.032  0.00  0.00    -0.077 C 
ATOM     13  C   UNL     1      -8.195  14.150  20.817  0.00  0.00    -0.003 C 
ATOM     14  C   UNL     1      -8.234  14.111  22.233  0.00  0.00    +0.220 A 
ATOM     15  N   UNL     1      -7.826  15.121  22.979  0.00  0.00    -0.205 NA
ATOM     16  C   UNL     1      -8.141  14.783  24.268  0.00  0.00    +0.164 A 
ATOM     17  C   UNL     1      -8.682  13.528  24.294  0.00  0.00    +0.125 A 
ATOM     18  O   UNL     1      -8.728  13.069  23.005  0.00  0.00    -0.443 OA
ATOM     19  C   UNL     1      -7.958  15.788  25.439  0.00  0.00    +0.250 A 
ATOM     20  N   UNL     1      -7.396  16.959  25.224  0.00  0.00    -0.203 NA
ATOM     21  C   UNL     1      -7.648  17.674  26.362  0.00  0.00    +0.164 A 
ATOM     22  C   UNL     1      -8.238  16.868  27.297  0.00  0.00    +0.125 A 
ATOM     23  O   UNL     1      -8.417  15.631  26.728  0.00  0.00    -0.442 OA
ATOM     24  C   UNL     1      -7.402  19.206  26.405  0.00  0.00    +0.249 A 
ATOM     25  N   UNL     1      -6.852  19.819  25.371  0.00  0.00    -0.210 NA
ATOM     26  C   UNL     1      -7.108  21.151  25.575  0.00  0.00    +0.109 A 
ATOM     27  C   UNL     1      -7.651  21.303  26.833  0.00  0.00    +0.118 A 
ATOM     28  O   UNL     1      -7.822  20.064  27.386  0.00  0.00    -0.442 OA
ATOM     29  C   UNL     1      -6.789  22.168  24.514  0.00  0.00    +0.108 C 
ATOM     30  C   UNL     1      -7.588  21.966  23.170  0.00  0.00    +0.014 C 
ATOM     31  C   UNL     1      -7.198  20.634  22.447  0.00  0.00    +0.061 C 
ATOM     32  C   UNL     1      -7.415  20.518  20.919  0.00  0.00    -0.024 C 
ATOM     33  H   UNL     1      -8.932  18.980  20.792  0.00  0.00    +0.030 HD
ATOM     34  H   UNL     1      -8.864  21.005  18.518  0.00  0.00    +0.030 HD
ATOM     35  H   UNL     1      -9.859  19.584  18.589  0.00  0.00    +0.030 HD
ATOM     36  H   UNL     1      -6.792  19.545  18.336  0.00  0.00    +0.074 HD
ATOM     37  H   UNL     1      -8.797  17.224  18.153  0.00  0.00    +0.041 HD
ATOM     38  H   UNL     1      -7.726  17.523  19.545  0.00  0.00    +0.041 HD
ATOM     39  H   UNL     1      -5.440  14.908  16.881  0.00  0.00    +0.074 HD
ATOM     40  H   UNL     1      -5.489  13.561  19.623  0.00  0.00    +0.036 HD
ATOM     41  H   UNL     1      -6.652  12.844  16.889  0.00  0.00    +0.060 HD
ATOM     42  H   UNL     1      -8.243  14.200  18.195  0.00  0.00    +0.033 HD
ATOM     43  H   UNL     1      -8.812  12.559  18.103  0.00  0.00    +0.033 HD
ATOM     44  H   UNL     1      -8.147  12.066  20.455  0.00  0.00    +0.057 HD
ATOM     45  H   UNL     1      -8.142  15.142  20.384  0.00  0.00    +0.067 HD
ATOM     46  H   UNL     1      -9.072  12.871  25.056  0.00  0.00    +0.105 HD
ATOM     47  H   UNL     1      -8.612  16.997  28.302  0.00  0.00    +0.105 HD
ATOM     48  H   UNL     1      -7.979  22.148  27.418  0.00  0.00    +0.105 HD
ATOM     49  H   UNL     1      -5.718  22.087  24.279  0.00  0.00    +0.067 HD
ATOM     50  H   UNL     1      -8.655  21.938  23.428  0.00  0.00    +0.035 HD
ATOM     51  H   UNL     1      -6.125  20.466  22.611  0.00  0.00    +0.060 HD
ATOM     52  H   UNL     1      -6.681  19.772  20.584  0.00  0.00    +0.029 HD
ATOM     53  H   UNL     1      -7.129  21.436  20.396  0.00  0.00    +0.029 HD
ENDROOT
BRANCH   1  54
ATOM     54  C   UNL     1      -9.963  20.834  20.959  0.00  0.00    -0.062 C 
ATOM     55  H   UNL     1      -9.682  21.878  21.112  0.00  0.00    +0.023 HD
ATOM     56  H   UNL     1     -10.818  20.801  20.279  0.00  0.00    +0.023 HD
ATOM     57  H   UNL     1     -10.297  20.454  21.932  0.00  0.00    +0.023 HD
ENDBRANCH   1  54
BRANCH  30  58
ATOM     58  C   UNL     1      -7.370  23.195  22.269  0.00  0.00    -0.057 C 
ATOM     59  H   UNL     1      -6.431  23.704  22.501  0.00  0.00    +0.023 HD
ATOM     60  H   UNL     1      -7.299  22.916  21.213  0.00  0.00    +0.023 HD
ATOM     61  H   UNL     1      -8.191  23.912  22.376  0.00  0.00    +0.023 HD
ENDBRANCH  30  58
BRANCH   9  62
ATOM     62  C   UNL     1      -4.115  12.737  18.211  0.00  0.00    -0.057 C 
ATOM     63  H   UNL     1      -4.213  12.197  17.264  0.00  0.00    +0.023 HD
ATOM     64  H   UNL     1      -3.879  12.011  18.995  0.00  0.00    +0.023 HD
ATOM     65  H   UNL     1      -3.242  13.393  18.147  0.00  0.00    +0.023 HD
ENDBRANCH   9  62
BRANCH   8  66
ATOM     66  C   UNL     1      -3.985  15.715  18.248  0.00  0.00    +0.011 C 
ATOM     67  H   UNL     1      -3.833  16.466  17.464  0.00  0.00    +0.033 HD
ATOM     68  H   UNL     1      -3.169  14.993  18.137  0.00  0.00    +0.033 HD
BRANCH  66  69
ATOM     69  C   UNL     1      -3.889  16.428  19.617  0.00  0.00    +0.064 C 
ATOM     70  H   UNL     1      -4.848  16.330  20.138  0.00  0.00    +0.060 HD
BRANCH  69  71
ATOM     71  C   UNL     1      -2.787  15.767  20.498  0.00  0.00    -0.017 C 
ATOM     72  H   UNL     1      -2.393  16.549  21.161  0.00  0.00    +0.032 HD
BRANCH  71  73
ATOM     73  C   UNL     1      -3.336  14.635  21.374  0.00  0.00    -0.060 C 
ATOM     74  H   UNL     1      -4.137  14.998  22.022  0.00  0.00    +0.023 HD
ATOM     75  H   UNL     1      -2.555  14.205  22.010  0.00  0.00    +0.023 HD
ATOM     76  H   UNL     1      -3.762  13.830  20.768  0.00  0.00    +0.023 HD
ENDBRANCH  71  73
BRANCH  71  77
ATOM     77  C   UNL     1      -1.606  15.267  19.634  0.00  0.00    -0.041 C 
ATOM     78  H   UNL     1      -1.791  14.240  19.297  0.00  0.00    +0.027 HD
ATOM     79  H   UNL     1      -1.556  15.890  18.732  0.00  0.00    +0.027 HD
BRANCH  77  80
ATOM     80  C   UNL     1      -0.250  15.387  20.337  0.00  0.00    +0.007 C 
ATOM     81  H   UNL     1      -0.182  14.707  21.191  0.00  0.00    +0.034 HD
ATOM     82  H   UNL     1      -0.134  16.400  20.740  0.00  0.00    +0.034 HD
BRANCH  80  83
ATOM     83  C   UNL     1       0.936  15.180  19.408  0.00  0.00    +0.139 C 
ATOM     84  O   UNL     1       0.846  15.432  18.205  0.00  0.00    -0.297 OA
BRANCH  83  85
ATOM     85  C   UNL     1       2.267  14.789  20.052  0.00  0.00    +0.041 C 
ATOM     86  H   UNL     1       2.841  14.235  19.300  0.00  0.00    +0.040 HD
BRANCH  85  87
ATOM     87  C   UNL     1       1.931  13.866  21.223  0.00  0.00    -0.053 C 
ATOM     88  H   UNL     1       2.260  12.841  21.041  0.00  0.00    +0.024 HD
ATOM     89  H   UNL     1       2.398  14.216  22.149  0.00  0.00    +0.024 HD
ATOM     90  H   UNL     1       0.850  13.827  21.397  0.00  0.00    +0.024 HD
ENDBRANCH  85  87
BRANCH  85  91
ATOM     91  C   UNL     1       3.060  16.057  20.450  0.00  0.00    +0.074 C 
ATOM     92  H   UNL     1       3.018  16.188  21.540  0.00  0.00    +0.061 HD
BRANCH  91  93
ATOM     93  C   UNL     1       4.566  16.020  20.043  0.00  0.00    +0.003 C 
ATOM     94  H   UNL     1       4.807  16.968  19.546  0.00  0.00    +0.037 HD
BRANCH  93  95
ATOM     95  C   UNL     1       4.839  14.911  19.019  0.00  0.00    -0.057 C 
ATOM     96  H   UNL     1       5.154  13.991  19.523  0.00  0.00    +0.024 HD
ATOM     97  H   UNL     1       5.619  15.191  18.305  0.00  0.00    +0.024 HD
ATOM     98  H   UNL     1       3.933  14.680  18.444  0.00  0.00    +0.024 HD
ENDBRANCH  93  95
BRANCH  93  99
ATOM     99  C   UNL     1       5.493  15.817  21.229  0.00  0.00    -0.065 C 
ATOM    100  C   UNL     1       5.120  16.018  22.502  0.00  0.00    -0.005 C 
ATOM    101  H   UNL     1       6.498  15.497  20.967  0.00  0.00    +0.059 HD
ATOM    102  H   UNL     1       4.097  16.338  22.701  0.00  0.00    +0.078 HD
BRANCH 100 103
ATOM    103  N   UNL     1       5.896  15.861  23.639  0.00  0.00    -0.284 N 
ATOM    104  C   UNL     1       5.552  15.096  24.750  0.00  0.00    +0.206 C 
ATOM    105  O   UNL     1       6.223  14.963  25.768  0.00  0.00    -0.279 OA
ATOM    106  H   UNL     1       4.582  14.587  24.659  0.00  0.00    +0.126 HD
BRANCH 103 107
ATOM    107  C   UNL     1       7.179  16.558  23.673  0.00  0.00    +0.007 C 
ATOM    108  H   UNL     1       7.939  15.872  24.063  0.00  0.00    +0.043 HD
ATOM    109  H   UNL     1       7.491  16.895  22.681  0.00  0.00    +0.043 HD
ATOM    110  H   UNL     1       7.100  17.431  24.329  0.00  0.00    +0.043 HD
ENDBRANCH 103 107
ENDBRANCH 100 103
ENDBRANCH  93  99
ENDBRANCH  91  93
BRANCH  91 111
ATOM    111  O   UNL     1       2.445  17.180  19.787  0.00  0.00    -0.379 OA
BRANCH 111 112
ATOM    112  C   UNL     1       2.966  18.436  20.208  0.00  0.00    +0.037 C 
ATOM    113  H   UNL     1       3.801  18.247  20.889  0.00  0.00    +0.052 HD
ATOM    114  H   UNL     1       3.339  19.008  19.355  0.00  0.00    +0.052 HD
ATOM    115  H   UNL     1       2.203  19.011  20.743  0.00  0.00    +0.052 HD
ENDBRANCH 111 112
ENDBRANCH  91 111
ENDBRANCH  85  91
ENDBRANCH  83  85
ENDBRANCH  80  83
ENDBRANCH  77  80
ENDBRANCH  71  77
ENDBRANCH  69  71
BRANCH  69 116
ATOM    116  O   UNL     1      -3.578  17.806  19.387  0.00  0.00    -0.379 OA
BRANCH 116 117
ATOM    117  C   UNL     1      -4.448  18.701  20.072  0.00  0.00    +0.037 C 
ATOM    118  H   UNL     1      -5.023  18.132  20.810  0.00  0.00    +0.052 HD
ATOM    119  H   UNL     1      -5.147  19.177  19.376  0.00  0.00    +0.052 HD
ATOM    120  H   UNL     1      -3.864  19.464  20.591  0.00  0.00    +0.052 HD
ENDBRANCH 116 117
ENDBRANCH  69 116
ENDBRANCH  66  69
ENDBRANCH   8  66
BRANCH  31 121
ATOM    121  O   UNL     1      -7.905  19.539  23.024  0.00  0.00    -0.391 OA
ATOM    122  H   UNL     1      -8.402  19.100  22.298  0.00  0.00    +0.210 HD
ENDBRANCH  31 121
BRANCH  29 123
ATOM    123  O   UNL     1      -7.068  23.493  25.020  0.00  0.00    -0.373 OA
BRANCH 123 124
ATOM    124  C   UNL     1      -5.894  24.173  25.442  0.00  0.00    +0.037 C 
ATOM    125  H   UNL     1      -6.089  24.609  26.426  0.00  0.00    +0.052 HD
ATOM    126  H   UNL     1      -5.051  23.484  25.525  0.00  0.00    +0.052 HD
ATOM    127  H   UNL     1      -5.657  24.982  24.747  0.00  0.00    +0.052 HD
ENDBRANCH 123 124
ENDBRANCH  29 123
BRANCH  10 128
ATOM    128  O   UNL     1      -6.466  11.334  18.293  0.00  0.00    -0.379 OA
BRANCH 128 129
ATOM    129  C   UNL     1      -7.210  10.459  17.456  0.00  0.00    +0.037 C 
ATOM    130  H   UNL     1      -8.136  10.140  17.940  0.00  0.00    +0.052 HD
ATOM    131  H   UNL     1      -6.599   9.572  17.266  0.00  0.00    +0.052 HD
ATOM    132  H   UNL     1      -7.430  10.939  16.497  0.00  0.00    +0.052 HD
ENDBRANCH 128 129
ENDBRANCH  10 128
BRANCH   3 133
ATOM    133  O   UNL     1      -8.080  19.298  16.715  0.00  0.00    -0.447 OA
BRANCH 133 134
ATOM    134  C   UNL     1      -7.466  20.328  16.089  0.00  0.00    +0.398 C 
ATOM    135  O   UNL     1      -7.970  21.391  15.771  0.00  0.00    -0.227 OA
ATOM    136  N   UNL     1      -6.177  20.009  15.842  0.00  0.00    -0.295 N 
ATOM    137  H   UNL     1      -5.810  19.132  16.173  0.00  0.00    +0.148 HD
ATOM    138  H   UNL     1      -5.579  20.690  15.400  0.00  0.00    +0.148 HD
ENDBRANCH 133 134
ENDBRANCH   3 133
TORSDOF 29
ENDMDL
MODEL 10
REMARK VINA RESULT:      -4.9      6.261     12.718
REMARK  Name = Kabiramide C_conf2
REMARK  29 active torsions:
REMARK  status: ('A' for Active; 'I' for Inactive)
REMARK    1  A    between atoms: C_1  and  C_2
REMARK    2  A    between atoms: C_4  and  O_64
REMARK    3  A    between atoms: C_9  and  C_41
REMARK    4  A    between atoms: C_10  and  C_40
REMARK    5  A    between atoms: C_11  and  O_38
REMARK    6  A    between atoms: C_30  and  O_36
REMARK    7  A    between atoms: C_31  and  C_35
REMARK    8  A    between atoms: C_32  and  O_34
REMARK    9  A    between atoms: O_36  and  C_37
REMARK   10  A    between atoms: O_38  and  C_39
REMARK   11  A    between atoms: C_41  and  C_42
REMARK   12  A    between atoms: C_42  and  C_43
REMARK   13  A    between atoms: C_42  and  O_62
REMARK   14  A    between atoms: C_43  and  C_44
REMARK   15  A    between atoms: C_43  and  C_45
REMARK   16  A    between atoms: C_45  and  C_46
REMARK   17  A    between atoms: C_46  and  C_47
REMARK   18  A    between atoms: C_47  and  C_49
REMARK   19  A    between atoms: C_49  and  C_50
REMARK   20  A    between atoms: C_49  and  C_51
REMARK   21  A    between atoms: C_51  and  C_52
REMARK   22  A    between atoms: C_51  and  O_60
REMARK   23  A    between atoms: C_52  and  C_53
REMARK   24  A    between atoms: C_52  and  C_54
REMARK   25  A    between atoms: C_55  and  N_56
REMARK   26  A    between atoms: N_56  and  C_57
REMARK   27  A    between atoms: O_60  and  C_61
REMARK   28  A    between atoms: O_62  and  C_63
REMARK   29  A    between atoms: O_64  and  C_65
REMARK                            x       y       z     vdW  Elec       q    Type
REMARK                         _______ _______ _______ _____ _____    ______ ____
ROOT
ATOM      1  C   UNL     1      -9.755   3.709  12.637  0.00  0.00    -0.038 C 
ATOM      2  C   UNL     1      -9.782   3.268  14.115  0.00  0.00    -0.012 C 
ATOM      3  C   UNL     1      -9.160   4.222  15.158  0.00  0.00    +0.115 C 
ATOM      4  C   UNL     1      -9.893   5.568  15.232  0.00  0.00    +0.082 C 
ATOM      5  C   UNL     1      -9.234   6.518  16.210  0.00  0.00    +0.311 C 
ATOM      6  O   UNL     1      -8.622   6.187  17.216  0.00  0.00    -0.251 OA
ATOM      7  O   UNL     1      -9.478   7.817  15.848  0.00  0.00    -0.461 OA
ATOM      8  C   UNL     1      -8.844   8.829  16.662  0.00  0.00    +0.110 C 
ATOM      9  C   UNL     1      -9.599  10.193  16.511  0.00  0.00    +0.020 C 
ATOM     10  C   UNL     1     -11.038  10.159  17.136  0.00  0.00    +0.068 C 
ATOM     11  C   UNL     1     -12.081   9.318  16.361  0.00  0.00    -0.008 C 
ATOM     12  C   UNL     1     -12.305   9.782  14.942  0.00  0.00    -0.077 C 
ATOM     13  C   UNL     1     -11.894   9.061  13.892  0.00  0.00    -0.003 C 
ATOM     14  C   UNL     1     -12.005   9.474  12.542  0.00  0.00    +0.220 A 
ATOM     15  N   UNL     1     -11.215   9.008  11.593  0.00  0.00    -0.205 NA
ATOM     16  C   UNL     1     -11.701   9.518  10.419  0.00  0.00    +0.164 A 
ATOM     17  C   UNL     1     -12.753  10.350  10.682  0.00  0.00    +0.125 A 
ATOM     18  O   UNL     1     -12.948  10.357  12.036  0.00  0.00    -0.443 OA
ATOM     19  C   UNL     1     -11.130   9.074   9.043  0.00  0.00    +0.250 A 
ATOM     20  N   UNL     1     -10.091   8.268   8.987  0.00  0.00    -0.203 NA
ATOM     21  C   UNL     1     -10.038   7.869   7.680  0.00  0.00    +0.164 A 
ATOM     22  C   UNL     1     -10.967   8.554   6.945  0.00  0.00    +0.125 A 
ATOM     23  O   UNL     1     -11.664   9.366   7.807  0.00  0.00    -0.442 OA
ATOM     24  C   UNL     1      -9.126   6.689   7.249  0.00  0.00    +0.249 A 
ATOM     25  N   UNL     1      -8.317   6.121   8.127  0.00  0.00    -0.210 NA
ATOM     26  C   UNL     1      -7.950   4.933   7.549  0.00  0.00    +0.109 A 
ATOM     27  C   UNL     1      -8.416   4.917   6.252  0.00  0.00    +0.118 A 
ATOM     28  O   UNL     1      -9.153   6.048   6.039  0.00  0.00    -0.442 OA
ATOM     29  C   UNL     1      -7.161   3.912   8.322  0.00  0.00    +0.108 C 
ATOM     30  C   UNL     1      -7.908   3.350   9.591  0.00  0.00    +0.014 C 
ATOM     31  C   UNL     1      -8.135   4.452  10.678  0.00  0.00    +0.061 C 
ATOM     32  C   UNL     1      -8.318   4.025  12.155  0.00  0.00    -0.024 C 
ATOM     33  H   UNL     1     -10.361   4.620  12.550  0.00  0.00    +0.030 HD
ATOM     34  H   UNL     1      -9.289   2.289  14.192  0.00  0.00    +0.030 HD
ATOM     35  H   UNL     1     -10.821   3.074  14.413  0.00  0.00    +0.030 HD
ATOM     36  H   UNL     1      -8.098   4.402  14.951  0.00  0.00    +0.074 HD
ATOM     37  H   UNL     1     -10.928   5.430  15.565  0.00  0.00    +0.041 HD
ATOM     38  H   UNL     1      -9.896   6.045  14.249  0.00  0.00    +0.041 HD
ATOM     39  H   UNL     1      -8.935   8.536  17.717  0.00  0.00    +0.074 HD
ATOM     40  H   UNL     1      -9.702  10.430  15.446  0.00  0.00    +0.036 HD
ATOM     41  H   UNL     1     -10.950   9.752  18.153  0.00  0.00    +0.060 HD
ATOM     42  H   UNL     1     -11.806   8.259  16.389  0.00  0.00    +0.033 HD
ATOM     43  H   UNL     1     -13.053   9.374  16.866  0.00  0.00    +0.033 HD
ATOM     44  H   UNL     1     -12.780  10.751  14.805  0.00  0.00    +0.057 HD
ATOM     45  H   UNL     1     -11.379   8.119  14.046  0.00  0.00    +0.067 HD
ATOM     46  H   UNL     1     -13.429  10.949  10.091  0.00  0.00    +0.105 HD
ATOM     47  H   UNL     1     -11.283   8.561   5.913  0.00  0.00    +0.105 HD
ATOM     48  H   UNL     1      -8.349   4.216   5.433  0.00  0.00    +0.105 HD
ATOM     49  H   UNL     1      -6.234   4.392   8.669  0.00  0.00    +0.067 HD
ATOM     50  H   UNL     1      -8.881   2.971   9.253  0.00  0.00    +0.035 HD
ATOM     51  H   UNL     1      -7.262   5.119  10.666  0.00  0.00    +0.060 HD
ATOM     52  H   UNL     1      -7.988   4.891  12.744  0.00  0.00    +0.029 HD
ATOM     53  H   UNL     1      -7.626   3.224  12.436  0.00  0.00    +0.029 HD
ENDROOT
BRANCH   1  54
ATOM     54  C   UNL     1     -10.445   2.632  11.795  0.00  0.00    -0.062 C 
ATOM     55  H   UNL     1     -10.178   2.712  10.740  0.00  0.00    +0.023 HD
ATOM     56  H   UNL     1     -10.188   1.628  12.144  0.00  0.00    +0.023 HD
ATOM     57  H   UNL     1     -11.535   2.735  11.853  0.00  0.00    +0.023 HD
ENDBRANCH   1  54
BRANCH  30  58
ATOM     58  C   UNL     1      -7.120   2.149  10.145  0.00  0.00    -0.057 C 
ATOM     59  H   UNL     1      -6.118   2.089   9.711  0.00  0.00    +0.023 HD
ATOM     60  H   UNL     1      -6.967   2.228  11.226  0.00  0.00    +0.023 HD
ATOM     61  H   UNL     1      -7.644   1.208   9.945  0.00  0.00    +0.023 HD
ENDBRANCH  30  58
BRANCH   9  62
ATOM     62  C   UNL     1      -8.794  11.345  17.148  0.00  0.00    -0.057 C 
ATOM     63  H   UNL     1      -8.530  11.110  18.184  0.00  0.00    +0.023 HD
ATOM     64  H   UNL     1      -9.358  12.283  17.145  0.00  0.00    +0.023 HD
ATOM     65  H   UNL     1      -7.874  11.556  16.596  0.00  0.00    +0.023 HD
ENDBRANCH   9  62
BRANCH   8  66
ATOM     66  C   UNL     1      -7.330   8.883  16.324  0.00  0.00    +0.011 C 
ATOM     67  H   UNL     1      -7.104   9.872  15.906  0.00  0.00    +0.033 HD
ATOM     68  H   UNL     1      -7.130   8.164  15.521  0.00  0.00    +0.033 HD
BRANCH  66  69
ATOM     69  C   UNL     1      -6.375   8.638  17.516  0.00  0.00    +0.064 C 
ATOM     70  H   UNL     1      -5.955   7.630  17.433  0.00  0.00    +0.060 HD
BRANCH  69  71
ATOM     71  C   UNL     1      -5.200   9.660  17.489  0.00  0.00    -0.017 C 
ATOM     72  H   UNL     1      -4.307   9.133  17.850  0.00  0.00    +0.032 HD
BRANCH  71  73
ATOM     73  C   UNL     1      -4.904  10.178  16.077  0.00  0.00    -0.060 C 
ATOM     74  H   UNL     1      -5.814  10.204  15.473  0.00  0.00    +0.023 HD
ATOM     75  H   UNL     1      -4.174   9.544  15.561  0.00  0.00    +0.023 HD
ATOM     76  H   UNL     1      -4.511  11.199  16.099  0.00  0.00    +0.023 HD
ENDBRANCH  71  73
BRANCH  71  77
ATOM     77  C   UNL     1      -5.458  10.835  18.460  0.00  0.00    -0.041 C 
ATOM     78  H   UNL     1      -6.454  10.743  18.909  0.00  0.00    +0.027 HD
ATOM     79  H   UNL     1      -4.734  10.764  19.282  0.00  0.00    +0.027 HD
BRANCH  77  80
ATOM     80  C   UNL     1      -5.265  12.209  17.811  0.00  0.00    +0.007 C 
ATOM     81  H   UNL     1      -5.594  12.207  16.768  0.00  0.00    +0.034 HD
ATOM     82  H   UNL     1      -4.198  12.461  17.797  0.00  0.00    +0.034 HD
BRANCH  80  83
ATOM     83  C   UNL     1      -5.942  13.339  18.570  0.00  0.00    +0.139 C 
ATOM     84  O   UNL     1      -6.558  13.118  19.613  0.00  0.00    -0.297 OA
BRANCH  83  85
ATOM     85  C   UNL     1      -5.700  14.762  18.064  0.00  0.00    +0.041 C 
ATOM     86  H   UNL     1      -6.662  15.288  18.104  0.00  0.00    +0.040 HD
BRANCH  85  87
ATOM     87  C   UNL     1      -5.245  14.637  16.610  0.00  0.00    -0.053 C 
ATOM     88  H   UNL     1      -4.324  14.057  16.520  0.00  0.00    +0.024 HD
ATOM     89  H   UNL     1      -6.014  14.158  15.995  0.00  0.00    +0.024 HD
ATOM     90  H   UNL     1      -5.045  15.622  16.173  0.00  0.00    +0.024 HD
ENDBRANCH  85  87
BRANCH  85  91
ATOM     91  C   UNL     1      -4.694  15.494  18.984  0.00  0.00    +0.074 C 
ATOM     92  H   UNL     1      -5.233  15.960  19.819  0.00  0.00    +0.061 HD
BRANCH  91  93
ATOM     93  C   UNL     1      -3.598  14.566  19.594  0.00  0.00    +0.003 C 
ATOM     94  H   UNL     1      -4.003  13.548  19.645  0.00  0.00    +0.037 HD
BRANCH  93  95
ATOM     95  C   UNL     1      -3.264  14.974  21.035  0.00  0.00    -0.057 C 
ATOM     96  H   UNL     1      -2.217  15.285  21.114  0.00  0.00    +0.024 HD
ATOM     97  H   UNL     1      -3.430  14.157  21.744  0.00  0.00    +0.024 HD
ATOM     98  H   UNL     1      -3.886  15.819  21.354  0.00  0.00    +0.024 HD
ENDBRANCH  93  95
BRANCH  93  99
ATOM     99  C   UNL     1      -2.311  14.563  18.786  0.00  0.00    -0.065 C 
ATOM    100  C   UNL     1      -1.121  14.927  19.287  0.00  0.00    -0.005 C 
ATOM    101  H   UNL     1      -2.429  14.245  17.753  0.00  0.00    +0.059 HD
ATOM    102  H   UNL     1      -1.068  15.235  20.331  0.00  0.00    +0.078 HD
BRANCH 100 103
ATOM    103  N   UNL     1       0.095  14.956  18.624  0.00  0.00    -0.284 N 
ATOM    104  C   UNL     1       1.345  14.945  19.235  0.00  0.00    +0.206 C 
ATOM    105  O   UNL     1       2.428  14.988  18.659  0.00  0.00    -0.279 OA
ATOM    106  H   UNL     1       1.307  14.894  20.332  0.00  0.00    +0.126 HD
BRANCH 103 107
ATOM    107  C   UNL     1       0.058  15.007  17.165  0.00  0.00    +0.007 C 
ATOM    108  H   UNL     1      -0.980  14.880  16.837  0.00  0.00    +0.043 HD
ATOM    109  H   UNL     1       0.430  15.959  16.777  0.00  0.00    +0.043 HD
ATOM    110  H   UNL     1       0.673  14.198  16.758  0.00  0.00    +0.043 HD
ENDBRANCH 103 107
ENDBRANCH 100 103
ENDBRANCH  93  99
ENDBRANCH  91  93
BRANCH  91 111
ATOM    111  O   UNL     1      -4.035  16.502  18.189  0.00  0.00    -0.379 OA
BRANCH 111 112
ATOM    112  C   UNL     1      -4.161  17.813  18.728  0.00  0.00    +0.037 C 
ATOM    113  H   UNL     1      -4.767  18.408  18.038  0.00  0.00    +0.052 HD
ATOM    114  H   UNL     1      -4.666  17.789  19.697  0.00  0.00    +0.052 HD
ATOM    115  H   UNL     1      -3.179  18.287  18.827  0.00  0.00    +0.052 HD
ENDBRANCH 111 112
ENDBRANCH  91 111
ENDBRANCH  85  91
ENDBRANCH  83  85
ENDBRANCH  80  83
ENDBRANCH  77  80
ENDBRANCH  71  77
ENDBRANCH  69  71
BRANCH  69 116
ATOM    116  O   UNL     1      -7.124   8.776  18.728  0.00  0.00    -0.379 OA
BRANCH 116 117
ATOM    117  C   UNL     1      -6.866   7.739  19.669  0.00  0.00    +0.037 C 
ATOM    118  H   UNL     1      -6.150   8.111  20.409  0.00  0.00    +0.052 HD
ATOM    119  H   UNL     1      -6.437   6.861  19.177  0.00  0.00    +0.052 HD
ATOM    120  H   UNL     1      -7.791   7.463  20.182  0.00  0.00    +0.052 HD
ENDBRANCH 116 117
ENDBRANCH  69 116
ENDBRANCH  66  69
ENDBRANCH   8  66
BRANCH  31 121
ATOM    121  O   UNL     1      -9.285   5.231  10.354  0.00  0.00    -0.391 OA
ATOM    122  H   UNL     1      -8.981   5.971   9.782  0.00  0.00    +0.210 HD
ENDBRANCH  31 121
BRANCH  29 123
ATOM    123  O   UNL     1      -6.830   2.805   7.456  0.00  0.00    -0.373 OA
BRANCH 123 124
ATOM    124  C   UNL     1      -7.952   1.980   7.173  0.00  0.00    +0.037 C 
ATOM    125  H   UNL     1      -7.642   1.219   6.452  0.00  0.00    +0.052 HD
ATOM    126  H   UNL     1      -8.309   1.481   8.077  0.00  0.00    +0.052 HD
ATOM    127  H   UNL     1      -8.753   2.573   6.726  0.00  0.00    +0.052 HD
ENDBRANCH 123 124
ENDBRANCH  29 123
BRANCH  10 128
ATOM    128  O   UNL     1     -11.527  11.514  17.229  0.00  0.00    -0.379 OA
BRANCH 128 129
ATOM    129  C   UNL     1     -12.433  11.725  18.303  0.00  0.00    +0.037 C 
ATOM    130  H   UNL     1     -11.902  11.955  19.230  0.00  0.00    +0.052 HD
ATOM    131  H   UNL     1     -13.001  10.803  18.453  0.00  0.00    +0.052 HD
ATOM    132  H   UNL     1     -13.136  12.529  18.062  0.00  0.00    +0.052 HD
ENDBRANCH 128 129
ENDBRANCH  10 128
BRANCH   3 133
ATOM    133  O   UNL     1      -9.289   3.582  16.452  0.00  0.00    -0.447 OA
BRANCH 133 134
ATOM    134  C   UNL     1      -8.262   2.784  16.821  0.00  0.00    +0.398 C 
ATOM    135  O   UNL     1      -8.344   1.702  17.376  0.00  0.00    -0.227 OA
ATOM    136  N   UNL     1      -7.089   3.369  16.493  0.00  0.00    -0.295 N 
ATOM    137  H   UNL     1      -7.093   4.243  15.993  0.00  0.00    +0.148 HD
ATOM    138  H   UNL     1      -6.227   2.881  16.682  0.00  0.00    +0.148 HD
ENDBRANCH 133 134
ENDBRANCH   3 133
TORSDOF 29
ENDMDL
