MODEL 1
REMARK VINA RESULT:      -6.6      0.000      0.000
REMARK  Name = Lobophorolide_conf1
REMARK  23 active torsions:
REMARK  status: ('A' for Active; 'I' for Inactive)
REMARK    1  A    between atoms: C_1  and  C_2
REMARK    2  A    between atoms: C_4  and  O_53
REMARK    3  A    between atoms: C_6  and  C_8
REMARK    4  A    between atoms: C_8  and  C_9
REMARK    5  A    between atoms: C_9  and  C_10
REMARK    6  A    between atoms: C_10  and  C_11
REMARK    7  A    between atoms: C_10  and  C_12
REMARK    8  A    between atoms: C_12  and  C_13
REMARK    9  A    between atoms: C_12  and  O_52
REMARK   10  A    between atoms: C_13  and  C_14
REMARK   11  A    between atoms: C_13  and  C_15
REMARK   12  A    between atoms: C_16  and  C_51
REMARK   13  A    between atoms: C_17  and  O_49
REMARK   14  A    between atoms: C_19  and  O_47
REMARK   15  A    between atoms: C_23  and  O_45
REMARK   16  A    between atoms: C_32  and  O_43
REMARK   17  A    between atoms: C_33  and  O_42
REMARK   18  A    between atoms: C_35  and  C_41
REMARK   19  A    between atoms: O_43  and  C_44
REMARK   20  A    between atoms: O_45  and  C_46
REMARK   21  A    between atoms: O_47  and  C_48
REMARK   22  A    between atoms: O_49  and  C_50
REMARK   23  A    between atoms: O_53  and  C_54
REMARK                            x       y       z     vdW  Elec       q    Type
REMARK                         _______ _______ _______ _____ _____    ______ ____
ROOT
ATOM      1  C   UNL     1      -5.595  15.392  19.440  0.00  0.00    +0.113 C 
ATOM      2  C   UNL     1      -6.917  15.941  20.064  0.00  0.00    +0.020 C 
ATOM      3  C   UNL     1      -8.176  15.472  19.238  0.00  0.00    +0.067 C 
ATOM      4  C   UNL     1      -9.487  15.934  19.905  0.00  0.00    +0.003 C 
ATOM      5  C   UNL     1     -10.739  15.161  19.471  0.00  0.00    +0.094 C 
ATOM      6  C   UNL     1     -10.887  13.724  19.988  0.00  0.00    +0.145 C 
ATOM      7  C   UNL     1     -11.968  12.921  19.273  0.00  0.00    +0.083 C 
ATOM      8  O   UNL     1     -10.579  12.723  18.992  0.00  0.00    -0.363 OA
ATOM      9  C   UNL     1     -10.389  13.345  21.389  0.00  0.00    +0.094 C 
ATOM     10  C   UNL     1     -11.034  12.102  22.034  0.00  0.00    +0.003 C 
ATOM     11  C   UNL     1     -10.680  10.713  21.481  0.00  0.00    +0.065 C 
ATOM     12  C   UNL     1     -11.273   9.643  22.430  0.00  0.00    -0.008 C 
ATOM     13  C   UNL     1     -10.658   8.294  22.243  0.00  0.00    -0.083 C 
ATOM     14  C   UNL     1      -9.545   8.142  21.516  0.00  0.00    -0.059 C 
ATOM     15  C   UNL     1      -8.843   9.286  20.831  0.00  0.00    +0.080 C 
ATOM     16  O   UNL     1      -9.260  10.560  21.383  0.00  0.00    -0.369 OA
ATOM     17  C   UNL     1      -9.037   9.265  19.306  0.00  0.00    +0.006 C 
ATOM     18  C   UNL     1      -8.493   8.023  18.566  0.00  0.00    +0.090 C 
ATOM     19  C   UNL     1      -6.955   7.794  18.675  0.00  0.00    +0.100 C 
ATOM     20  C   UNL     1      -6.158   9.061  18.560  0.00  0.00    -0.051 C 
ATOM     21  C   UNL     1      -5.708   9.657  17.438  0.00  0.00    -0.052 C 
ATOM     22  C   UNL     1      -5.128  10.989  17.501  0.00  0.00    -0.052 C 
ATOM     23  C   UNL     1      -5.710  11.976  18.195  0.00  0.00    +0.023 C 
ATOM     24  C   UNL     1      -5.173  13.347  18.232  0.00  0.00    +0.332 C 
ATOM     25  O   UNL     1      -4.333  13.810  17.483  0.00  0.00    -0.246 OA
ATOM     26  O   UNL     1      -5.820  13.974  19.241  0.00  0.00    -0.458 OA
ATOM     27  H   UNL     1      -5.483  15.848  18.448  0.00  0.00    +0.074 HD
ATOM     28  H   UNL     1      -7.044  15.493  21.056  0.00  0.00    +0.036 HD
ATOM     29  H   UNL     1      -8.175  14.376  19.178  0.00  0.00    +0.060 HD
ATOM     30  H   UNL     1      -9.650  16.990  19.652  0.00  0.00    +0.032 HD
ATOM     31  H   UNL     1      -9.383  15.916  20.990  0.00  0.00    +0.032 HD
ATOM     32  H   UNL     1     -10.749  15.120  18.374  0.00  0.00    +0.063 HD
ATOM     33  H   UNL     1     -12.516  12.146  19.787  0.00  0.00    +0.059 HD
ATOM     34  H   UNL     1     -12.568  13.415  18.517  0.00  0.00    +0.059 HD
ATOM     35  H   UNL     1      -9.300  13.222  21.332  0.00  0.00    +0.063 HD
ATOM     36  H   UNL     1     -10.745  12.099  23.092  0.00  0.00    +0.032 HD
ATOM     37  H   UNL     1     -12.126  12.223  22.049  0.00  0.00    +0.032 HD
ATOM     38  H   UNL     1     -11.118  10.587  20.489  0.00  0.00    +0.060 HD
ATOM     39  H   UNL     1     -11.105   9.917  23.479  0.00  0.00    +0.033 HD
ATOM     40  H   UNL     1     -12.358   9.585  22.279  0.00  0.00    +0.033 HD
ATOM     41  H   UNL     1     -11.105   7.439  22.743  0.00  0.00    +0.057 HD
ATOM     42  H   UNL     1      -9.090   7.159  21.423  0.00  0.00    +0.059 HD
ATOM     43  H   UNL     1      -7.776   9.224  21.071  0.00  0.00    +0.064 HD
ATOM     44  H   UNL     1     -10.106   9.342  19.065  0.00  0.00    +0.032 HD
ATOM     45  H   UNL     1      -8.618  10.182  18.870  0.00  0.00    +0.032 HD
ATOM     46  H   UNL     1      -9.009   7.143  18.969  0.00  0.00    +0.063 HD
ATOM     47  H   UNL     1      -6.627   7.073  17.923  0.00  0.00    +0.066 HD
ATOM     48  H   UNL     1      -6.005   9.566  19.517  0.00  0.00    +0.060 HD
ATOM     49  H   UNL     1      -4.227  11.173  16.922  0.00  0.00    +0.062 HD
ATOM     50  H   UNL     1      -6.629  11.818  18.748  0.00  0.00    +0.069 HD
ENDROOT
BRANCH  21  51
ATOM     51  C   UNL     1      -5.825   9.097  16.048  0.00  0.00    -0.040 C 
ATOM     52  H   UNL     1      -6.872   8.899  15.804  0.00  0.00    +0.028 HD
ATOM     53  H   UNL     1      -5.275   8.165  15.910  0.00  0.00    +0.028 HD
ATOM     54  H   UNL     1      -5.432   9.811  15.318  0.00  0.00    +0.028 HD
ENDBRANCH  21  51
BRANCH   2  55
ATOM     55  C   UNL     1      -6.888  17.467  20.212  0.00  0.00    -0.057 C 
ATOM     56  H   UNL     1      -7.226  17.780  21.206  0.00  0.00    +0.023 HD
ATOM     57  H   UNL     1      -7.517  17.947  19.467  0.00  0.00    +0.023 HD
ATOM     58  H   UNL     1      -5.892  17.884  20.051  0.00  0.00    +0.023 HD
ENDBRANCH   2  55
BRANCH   1  59
ATOM     59  C   UNL     1      -4.248  15.570  20.220  0.00  0.00    +0.020 C 
ATOM     60  H   UNL     1      -4.442  16.342  20.973  0.00  0.00    +0.036 HD
BRANCH  59  61
ATOM     61  C   UNL     1      -3.892  14.330  21.051  0.00  0.00    -0.057 C 
ATOM     62  H   UNL     1      -3.091  14.552  21.761  0.00  0.00    +0.023 HD
ATOM     63  H   UNL     1      -4.735  13.918  21.601  0.00  0.00    +0.023 HD
ATOM     64  H   UNL     1      -3.529  13.535  20.392  0.00  0.00    +0.023 HD
ENDBRANCH  59  61
BRANCH  59  65
ATOM     65  C   UNL     1      -3.016  16.075  19.412  0.00  0.00    +0.064 C 
ATOM     66  H   UNL     1      -3.337  16.235  18.373  0.00  0.00    +0.060 HD
BRANCH  65  67
ATOM     67  C   UNL     1      -1.808  15.099  19.355  0.00  0.00    -0.017 C 
ATOM     68  H   UNL     1      -2.122  14.106  19.685  0.00  0.00    +0.032 HD
BRANCH  67  69
ATOM     69  C   UNL     1      -1.280  14.972  17.918  0.00  0.00    -0.060 C 
ATOM     70  H   UNL     1      -2.022  14.485  17.273  0.00  0.00    +0.023 HD
ATOM     71  H   UNL     1      -0.364  14.373  17.890  0.00  0.00    +0.023 HD
ATOM     72  H   UNL     1      -1.064  15.942  17.467  0.00  0.00    +0.023 HD
ENDBRANCH  67  69
BRANCH  67  73
ATOM     73  C   UNL     1      -0.630  15.521  20.270  0.00  0.00    -0.046 C 
ATOM     74  H   UNL     1      -0.941  16.382  20.877  0.00  0.00    +0.027 HD
ATOM     75  H   UNL     1      -0.398  14.716  20.978  0.00  0.00    +0.027 HD
BRANCH  73  76
ATOM     76  C   UNL     1       0.622  15.932  19.488  0.00  0.00    -0.026 C 
ATOM     77  H   UNL     1       0.528  15.663  18.430  0.00  0.00    +0.029 HD
ATOM     78  H   UNL     1       0.730  17.024  19.507  0.00  0.00    +0.029 HD
BRANCH  76  83
ATOM     79  C   UNL     1       3.813  14.063  19.359  0.00  0.00    +0.059 C 
ATOM     80  C   UNL     1       4.067  13.924  20.864  0.00  0.00    -0.000 C 
ATOM     81  C   UNL     1       2.789  13.486  21.571  0.00  0.00    +0.063 C 
ATOM     82  C   UNL     1       1.673  14.514  21.336  0.00  0.00    -0.000 C 
ATOM     83  C   UNL     1       1.907  15.326  20.060  0.00  0.00    +0.061 C 
ATOM     84  O   UNL     1       2.472  14.473  19.059  0.00  0.00    -0.373 OA
ATOM     85  H   UNL     1       3.931  13.076  18.897  0.00  0.00    +0.059 HD
ATOM     86  H   UNL     1       4.882  13.216  21.055  0.00  0.00    +0.032 HD
ATOM     87  H   UNL     1       4.404  14.876  21.298  0.00  0.00    +0.032 HD
ATOM     88  H   UNL     1       2.486  12.509  21.168  0.00  0.00    +0.060 HD
ATOM     89  H   UNL     1       0.720  13.965  21.266  0.00  0.00    +0.032 HD
ATOM     90  H   UNL     1       1.564  15.193  22.193  0.00  0.00    +0.032 HD
ATOM     91  H   UNL     1       2.609  16.148  20.260  0.00  0.00    +0.060 HD
BRANCH  79  92
ATOM     92  C   UNL     1       4.798  15.014  18.695  0.00  0.00    -0.039 C 
ATOM     93  H   UNL     1       5.782  14.549  18.584  0.00  0.00    +0.025 HD
ATOM     94  H   UNL     1       4.429  15.305  17.706  0.00  0.00    +0.025 HD
ATOM     95  H   UNL     1       4.910  15.938  19.272  0.00  0.00    +0.025 HD
ENDBRANCH  79  92
BRANCH  81  96
ATOM     96  O   UNL     1       3.076  13.348  22.968  0.00  0.00    -0.380 OA
BRANCH  96  97
ATOM     97  C   UNL     1       3.884  14.404  23.475  0.00  0.00    +0.037 C 
ATOM     98  H   UNL     1       3.234  15.101  24.008  0.00  0.00    +0.052 HD
ATOM     99  H   UNL     1       4.374  14.941  22.658  0.00  0.00    +0.052 HD
ATOM    100  H   UNL     1       4.630  14.022  24.179  0.00  0.00    +0.052 HD
ENDBRANCH  96  97
ENDBRANCH  81  96
ENDBRANCH  76  83
ENDBRANCH  73  76
ENDBRANCH  67  73
ENDBRANCH  65  67
BRANCH  65 101
ATOM    101  O   UNL     1      -2.594  17.346  19.888  0.00  0.00    -0.391 OA
ATOM    102  H   UNL     1      -3.075  17.532  20.712  0.00  0.00    +0.210 HD
ENDBRANCH  65 101
ENDBRANCH  59  65
ENDBRANCH   1  59
BRANCH  19 103
ATOM    103  O   UNL     1      -6.651   7.225  19.952  0.00  0.00    -0.385 OA
ATOM    104  H   UNL     1      -6.060   7.847  20.410  0.00  0.00    +0.210 HD
ENDBRANCH  19 103
BRANCH  18 105
ATOM    105  O   UNL     1      -8.867   8.181  17.183  0.00  0.00    -0.377 OA
BRANCH 105 106
ATOM    106  C   UNL     1      -9.516   9.419  16.916  0.00  0.00    +0.037 C 
ATOM    107  H   UNL     1      -9.492  10.056  17.806  0.00  0.00    +0.052 HD
ATOM    108  H   UNL     1     -10.549   9.262  16.594  0.00  0.00    +0.052 HD
ATOM    109  H   UNL     1      -8.975   9.925  16.112  0.00  0.00    +0.052 HD
ENDBRANCH 105 106
ENDBRANCH  18 105
BRANCH   9 110
ATOM    110  O   UNL     1     -10.697  14.439  22.279  0.00  0.00    -0.377 OA
BRANCH 110 111
ATOM    111  C   UNL     1     -11.879  14.241  23.047  0.00  0.00    +0.037 C 
ATOM    112  H   UNL     1     -11.686  14.584  24.069  0.00  0.00    +0.052 HD
ATOM    113  H   UNL     1     -12.137  13.179  23.089  0.00  0.00    +0.052 HD
ATOM    114  H   UNL     1     -12.713  14.820  22.647  0.00  0.00    +0.052 HD
ENDBRANCH 110 111
ENDBRANCH   9 110
BRANCH   5 115
ATOM    115  O   UNL     1     -11.917  15.881  19.888  0.00  0.00    -0.377 OA
BRANCH 115 116
ATOM    116  C   UNL     1     -11.645  17.215  20.294  0.00  0.00    +0.037 C 
ATOM    117  H   UNL     1     -10.639  17.472  19.959  0.00  0.00    +0.052 HD
ATOM    118  H   UNL     1     -12.351  17.917  19.848  0.00  0.00    +0.052 HD
ATOM    119  H   UNL     1     -11.676  17.294  21.385  0.00  0.00    +0.052 HD
ENDBRANCH 115 116
ENDBRANCH   5 115
BRANCH   3 120
ATOM    120  O   UNL     1      -8.111  16.069  17.930  0.00  0.00    -0.379 OA
BRANCH 120 121
ATOM    121  C   UNL     1      -8.201  15.127  16.871  0.00  0.00    +0.037 C 
ATOM    122  H   UNL     1      -7.679  14.214  17.181  0.00  0.00    +0.052 HD
ATOM    123  H   UNL     1      -7.722  15.506  15.963  0.00  0.00    +0.052 HD
ATOM    124  H   UNL     1      -9.246  14.871  16.666  0.00  0.00    +0.052 HD
ENDBRANCH 120 121
ENDBRANCH   3 120
TORSDOF 23
ENDMDL
MODEL 2
REMARK VINA RESULT:      -6.5      6.936     12.117
REMARK  Name = Lobophorolide_conf1
REMARK  23 active torsions:
REMARK  status: ('A' for Active; 'I' for Inactive)
REMARK    1  A    between atoms: C_1  and  C_2
REMARK    2  A    between atoms: C_4  and  O_53
REMARK    3  A    between atoms: C_6  and  C_8
REMARK    4  A    between atoms: C_8  and  C_9
REMARK    5  A    between atoms: C_9  and  C_10
REMARK    6  A    between atoms: C_10  and  C_11
REMARK    7  A    between atoms: C_10  and  C_12
REMARK    8  A    between atoms: C_12  and  C_13
REMARK    9  A    between atoms: C_12  and  O_52
REMARK   10  A    between atoms: C_13  and  C_14
REMARK   11  A    between atoms: C_13  and  C_15
REMARK   12  A    between atoms: C_16  and  C_51
REMARK   13  A    between atoms: C_17  and  O_49
REMARK   14  A    between atoms: C_19  and  O_47
REMARK   15  A    between atoms: C_23  and  O_45
REMARK   16  A    between atoms: C_32  and  O_43
REMARK   17  A    between atoms: C_33  and  O_42
REMARK   18  A    between atoms: C_35  and  C_41
REMARK   19  A    between atoms: O_43  and  C_44
REMARK   20  A    between atoms: O_45  and  C_46
REMARK   21  A    between atoms: O_47  and  C_48
REMARK   22  A    between atoms: O_49  and  C_50
REMARK   23  A    between atoms: O_53  and  C_54
REMARK                            x       y       z     vdW  Elec       q    Type
REMARK                         _______ _______ _______ _____ _____    ______ ____
ROOT
ATOM      1  C   UNL     1      -9.581   6.206  15.001  0.00  0.00    +0.113 C 
ATOM      2  C   UNL     1      -9.795   4.847  15.740  0.00  0.00    +0.020 C 
ATOM      3  C   UNL     1     -10.523   3.801  14.812  0.00  0.00    +0.067 C 
ATOM      4  C   UNL     1     -10.651   2.430  15.505  0.00  0.00    +0.003 C 
ATOM      5  C   UNL     1     -10.902   1.248  14.559  0.00  0.00    +0.094 C 
ATOM      6  C   UNL     1      -9.725   0.789  13.688  0.00  0.00    +0.145 C 
ATOM      7  C   UNL     1     -10.125  -0.159  12.563  0.00  0.00    +0.083 C 
ATOM      8  O   UNL     1      -9.830   1.219  12.312  0.00  0.00    -0.363 OA
ATOM      9  C   UNL     1      -8.289   0.849  14.224  0.00  0.00    +0.094 C 
ATOM     10  C   UNL     1      -7.267  -0.095  13.558  0.00  0.00    +0.003 C 
ATOM     11  C   UNL     1      -6.796   0.214  12.129  0.00  0.00    +0.065 C 
ATOM     12  C   UNL     1      -5.626  -0.739  11.784  0.00  0.00    -0.008 C 
ATOM     13  C   UNL     1      -4.821  -0.273  10.614  0.00  0.00    -0.083 C 
ATOM     14  C   UNL     1      -4.973   0.964  10.126  0.00  0.00    -0.059 C 
ATOM     15  C   UNL     1      -5.952   1.961  10.692  0.00  0.00    +0.080 C 
ATOM     16  O   UNL     1      -6.376   1.578  12.024  0.00  0.00    -0.369 OA
ATOM     17  C   UNL     1      -7.168   2.174   9.774  0.00  0.00    +0.006 C 
ATOM     18  C   UNL     1      -6.870   2.732   8.365  0.00  0.00    +0.090 C 
ATOM     19  C   UNL     1      -6.214   4.145   8.325  0.00  0.00    +0.100 C 
ATOM     20  C   UNL     1      -6.799   5.098   9.327  0.00  0.00    -0.051 C 
ATOM     21  C   UNL     1      -7.872   5.899   9.179  0.00  0.00    -0.052 C 
ATOM     22  C   UNL     1      -8.419   6.605  10.326  0.00  0.00    -0.052 C 
ATOM     23  C   UNL     1      -8.617   5.992  11.500  0.00  0.00    +0.023 C 
ATOM     24  C   UNL     1      -9.219   6.668  12.661  0.00  0.00    +0.332 C 
ATOM     25  O   UNL     1      -9.818   7.727  12.645  0.00  0.00    -0.246 OA
ATOM     26  O   UNL     1      -8.988   5.863  13.724  0.00  0.00    -0.458 OA
ATOM     27  H   UNL     1     -10.572   6.632  14.798  0.00  0.00    +0.074 HD
ATOM     28  H   UNL     1      -8.813   4.407  15.949  0.00  0.00    +0.036 HD
ATOM     29  H   UNL     1      -9.942   3.678  13.888  0.00  0.00    +0.060 HD
ATOM     30  H   UNL     1     -11.496   2.474  16.204  0.00  0.00    +0.032 HD
ATOM     31  H   UNL     1      -9.777   2.242  16.129  0.00  0.00    +0.032 HD
ATOM     32  H   UNL     1     -11.724   1.522  13.885  0.00  0.00    +0.063 HD
ATOM     33  H   UNL     1      -9.444  -0.915  12.205  0.00  0.00    +0.059 HD
ATOM     34  H   UNL     1     -11.161  -0.471  12.489  0.00  0.00    +0.059 HD
ATOM     35  H   UNL     1      -7.950   1.891  14.149  0.00  0.00    +0.063 HD
ATOM     36  H   UNL     1      -6.370  -0.097  14.189  0.00  0.00    +0.032 HD
ATOM     37  H   UNL     1      -7.638  -1.128  13.607  0.00  0.00    +0.032 HD
ATOM     38  H   UNL     1      -7.612   0.039  11.425  0.00  0.00    +0.060 HD
ATOM     39  H   UNL     1      -4.928  -0.819  12.627  0.00  0.00    +0.033 HD
ATOM     40  H   UNL     1      -6.019  -1.744  11.591  0.00  0.00    +0.033 HD
ATOM     41  H   UNL     1      -4.076  -0.939  10.189  0.00  0.00    +0.057 HD
ATOM     42  H   UNL     1      -4.352   1.300   9.299  0.00  0.00    +0.059 HD
ATOM     43  H   UNL     1      -5.426   2.910  10.837  0.00  0.00    +0.064 HD
ATOM     44  H   UNL     1      -7.704   1.224   9.639  0.00  0.00    +0.032 HD
ATOM     45  H   UNL     1      -7.908   2.805  10.286  0.00  0.00    +0.032 HD
ATOM     46  H   UNL     1      -6.205   2.020   7.859  0.00  0.00    +0.063 HD
ATOM     47  H   UNL     1      -6.286   4.565   7.319  0.00  0.00    +0.066 HD
ATOM     48  H   UNL     1      -6.308   5.056  10.302  0.00  0.00    +0.060 HD
ATOM     49  H   UNL     1      -8.711   7.642  10.186  0.00  0.00    +0.062 HD
ATOM     50  H   UNL     1      -8.366   4.947  11.646  0.00  0.00    +0.069 HD
ENDROOT
BRANCH  21  51
ATOM     51  C   UNL     1      -8.654   6.082   7.909  0.00  0.00    -0.040 C 
ATOM     52  H   UNL     1      -8.886   5.111   7.461  0.00  0.00    +0.028 HD
ATOM     53  H   UNL     1      -8.126   6.670   7.157  0.00  0.00    +0.028 HD
ATOM     54  H   UNL     1      -9.595   6.599   8.114  0.00  0.00    +0.028 HD
ENDBRANCH  21  51
BRANCH   2  55
ATOM     55  C   UNL     1     -10.546   5.029  17.065  0.00  0.00    -0.057 C 
ATOM     56  H   UNL     1      -9.917   4.766  17.922  0.00  0.00    +0.023 HD
ATOM     57  H   UNL     1     -11.444   4.417  17.095  0.00  0.00    +0.023 HD
ATOM     58  H   UNL     1     -10.897   6.053  17.209  0.00  0.00    +0.023 HD
ENDBRANCH   2  55
BRANCH   1  59
ATOM     59  C   UNL     1      -8.697   7.312  15.672  0.00  0.00    +0.020 C 
ATOM     60  H   UNL     1      -8.096   7.741  14.863  0.00  0.00    +0.036 HD
BRANCH  59  61
ATOM     61  C   UNL     1      -9.534   8.497  16.172  0.00  0.00    -0.057 C 
ATOM     62  H   UNL     1     -10.383   8.684  15.509  0.00  0.00    +0.023 HD
ATOM     63  H   UNL     1      -9.910   8.368  17.185  0.00  0.00    +0.023 HD
ATOM     64  H   UNL     1      -8.923   9.405  16.179  0.00  0.00    +0.023 HD
ENDBRANCH  59  61
BRANCH  59  65
ATOM     65  C   UNL     1      -7.677   6.851  16.755  0.00  0.00    +0.064 C 
ATOM     66  H   UNL     1      -8.229   6.290  17.521  0.00  0.00    +0.060 HD
BRANCH  65  67
ATOM     67  C   UNL     1      -6.929   7.993  17.498  0.00  0.00    -0.017 C 
ATOM     68  H   UNL     1      -7.532   8.904  17.474  0.00  0.00    +0.032 HD
BRANCH  67  69
ATOM     69  C   UNL     1      -6.696   7.621  18.969  0.00  0.00    -0.060 C 
ATOM     70  H   UNL     1      -6.285   8.474  19.525  0.00  0.00    +0.023 HD
ATOM     71  H   UNL     1      -5.987   6.791  19.055  0.00  0.00    +0.023 HD
ATOM     72  H   UNL     1      -7.618   7.333  19.477  0.00  0.00    +0.023 HD
ENDBRANCH  67  69
BRANCH  67  73
ATOM     73  C   UNL     1      -5.560   8.348  16.863  0.00  0.00    -0.046 C 
ATOM     74  H   UNL     1      -4.762   8.098  17.574  0.00  0.00    +0.027 HD
ATOM     75  H   UNL     1      -5.386   7.728  15.975  0.00  0.00    +0.027 HD
BRANCH  73  76
ATOM     76  C   UNL     1      -5.425   9.836  16.518  0.00  0.00    -0.026 C 
ATOM     77  H   UNL     1      -4.457  10.043  16.051  0.00  0.00    +0.029 HD
ATOM     78  H   UNL     1      -6.180  10.114  15.771  0.00  0.00    +0.029 HD
BRANCH  76  83
ATOM     79  C   UNL     1      -7.254  12.191  18.709  0.00  0.00    +0.059 C 
ATOM     80  C   UNL     1      -6.094  12.626  19.610  0.00  0.00    -0.000 C 
ATOM     81  C   UNL     1      -4.866  12.945  18.763  0.00  0.00    +0.063 C 
ATOM     82  C   UNL     1      -4.446  11.711  17.952  0.00  0.00    -0.000 C 
ATOM     83  C   UNL     1      -5.615  10.748  17.734  0.00  0.00    +0.061 C 
ATOM     84  O   UNL     1      -6.814  11.505  17.530  0.00  0.00    -0.373 OA
ATOM     85  H   UNL     1      -7.770  13.090  18.353  0.00  0.00    +0.059 HD
ATOM     86  H   UNL     1      -6.381  13.489  20.222  0.00  0.00    +0.032 HD
ATOM     87  H   UNL     1      -5.833  11.837  20.330  0.00  0.00    +0.032 HD
ATOM     88  H   UNL     1      -5.119  13.770  18.082  0.00  0.00    +0.060 HD
ATOM     89  H   UNL     1      -4.059  12.062  16.982  0.00  0.00    +0.032 HD
ATOM     90  H   UNL     1      -3.612  11.179  18.431  0.00  0.00    +0.032 HD
ATOM     91  H   UNL     1      -5.748  10.110  18.619  0.00  0.00    +0.060 HD
BRANCH  79  92
ATOM     92  C   UNL     1      -8.266  11.330  19.452  0.00  0.00    -0.039 C 
ATOM     93  H   UNL     1      -9.113  11.072  18.809  0.00  0.00    +0.025 HD
ATOM     94  H   UNL     1      -7.790  10.407  19.798  0.00  0.00    +0.025 HD
ATOM     95  H   UNL     1      -8.645  11.841  20.344  0.00  0.00    +0.025 HD
ENDBRANCH  79  92
BRANCH  81  96
ATOM     96  O   UNL     1      -3.816  13.367  19.640  0.00  0.00    -0.380 OA
BRANCH  96  97
ATOM     97  C   UNL     1      -4.281  13.704  20.942  0.00  0.00    +0.037 C 
ATOM     98  H   UNL     1      -4.445  14.784  20.973  0.00  0.00    +0.052 HD
ATOM     99  H   UNL     1      -3.534  13.444  21.697  0.00  0.00    +0.052 HD
ATOM    100  H   UNL     1      -5.230  13.206  21.160  0.00  0.00    +0.052 HD
ENDBRANCH  96  97
ENDBRANCH  81  96
ENDBRANCH  76  83
ENDBRANCH  73  76
ENDBRANCH  67  73
ENDBRANCH  65  67
BRANCH  65 101
ATOM    101  O   UNL     1      -6.742   5.935  16.201  0.00  0.00    -0.391 OA
ATOM    102  H   UNL     1      -5.910   6.414  16.046  0.00  0.00    +0.210 HD
ENDBRANCH  65 101
ENDBRANCH  59  65
ENDBRANCH   1  59
BRANCH  19 103
ATOM    103  O   UNL     1      -4.821   4.027   8.625  0.00  0.00    -0.385 OA
ATOM    104  H   UNL     1      -4.672   4.474   9.476  0.00  0.00    +0.210 HD
ENDBRANCH  19 103
BRANCH  18 105
ATOM    105  O   UNL     1      -8.131   2.758   7.667  0.00  0.00    -0.377 OA
BRANCH 105 106
ATOM    106  C   UNL     1      -9.227   2.340   8.472  0.00  0.00    +0.037 C 
ATOM    107  H   UNL     1     -10.170   2.513   7.942  0.00  0.00    +0.052 HD
ATOM    108  H   UNL     1      -9.235   2.862   9.432  0.00  0.00    +0.052 HD
ATOM    109  H   UNL     1      -9.128   1.268   8.660  0.00  0.00    +0.052 HD
ENDBRANCH 105 106
ENDBRANCH  18 105
BRANCH   9 110
ATOM    110  O   UNL     1      -8.319   0.459  15.614  0.00  0.00    -0.377 OA
BRANCH 110 111
ATOM    111  C   UNL     1      -7.930  -0.892  15.841  0.00  0.00    +0.037 C 
ATOM    112  H   UNL     1      -7.034  -1.095  15.246  0.00  0.00    +0.052 HD
ATOM    113  H   UNL     1      -8.717  -1.579  15.514  0.00  0.00    +0.052 HD
ATOM    114  H   UNL     1      -7.687  -1.063  16.891  0.00  0.00    +0.052 HD
ENDBRANCH 110 111
ENDBRANCH   9 110
BRANCH   5 115
ATOM    115  O   UNL     1     -11.331   0.103  15.323  0.00  0.00    -0.377 OA
BRANCH 115 116
ATOM    116  C   UNL     1     -11.713   0.427  16.652  0.00  0.00    +0.037 C 
ATOM    117  H   UNL     1     -10.933   1.054  17.085  0.00  0.00    +0.052 HD
ATOM    118  H   UNL     1     -12.654   0.979  16.671  0.00  0.00    +0.052 HD
ATOM    119  H   UNL     1     -11.799  -0.483  17.255  0.00  0.00    +0.052 HD
ENDBRANCH 115 116
ENDBRANCH   5 115
BRANCH   3 120
ATOM    120  O   UNL     1     -11.850   4.282  14.535  0.00  0.00    -0.379 OA
BRANCH 120 121
ATOM    121  C   UNL     1     -12.153   4.350  13.149  0.00  0.00    +0.037 C 
ATOM    122  H   UNL     1     -12.315   5.402  12.887  0.00  0.00    +0.052 HD
ATOM    123  H   UNL     1     -13.066   3.792  12.916  0.00  0.00    +0.052 HD
ATOM    124  H   UNL     1     -11.318   3.972  12.550  0.00  0.00    +0.052 HD
ENDBRANCH 120 121
ENDBRANCH   3 120
TORSDOF 23
ENDMDL
MODEL 3
REMARK VINA RESULT:      -6.2      1.695      2.049
REMARK  Name = Lobophorolide_conf1
REMARK  23 active torsions:
REMARK  status: ('A' for Active; 'I' for Inactive)
REMARK    1  A    between atoms: C_1  and  C_2
REMARK    2  A    between atoms: C_4  and  O_53
REMARK    3  A    between atoms: C_6  and  C_8
REMARK    4  A    between atoms: C_8  and  C_9
REMARK    5  A    between atoms: C_9  and  C_10
REMARK    6  A    between atoms: C_10  and  C_11
REMARK    7  A    between atoms: C_10  and  C_12
REMARK    8  A    between atoms: C_12  and  C_13
REMARK    9  A    between atoms: C_12  and  O_52
REMARK   10  A    between atoms: C_13  and  C_14
REMARK   11  A    between atoms: C_13  and  C_15
REMARK   12  A    between atoms: C_16  and  C_51
REMARK   13  A    between atoms: C_17  and  O_49
REMARK   14  A    between atoms: C_19  and  O_47
REMARK   15  A    between atoms: C_23  and  O_45
REMARK   16  A    between atoms: C_32  and  O_43
REMARK   17  A    between atoms: C_33  and  O_42
REMARK   18  A    between atoms: C_35  and  C_41
REMARK   19  A    between atoms: O_43  and  C_44
REMARK   20  A    between atoms: O_45  and  C_46
REMARK   21  A    between atoms: O_47  and  C_48
REMARK   22  A    between atoms: O_49  and  C_50
REMARK   23  A    between atoms: O_53  and  C_54
REMARK                            x       y       z     vdW  Elec       q    Type
REMARK                         _______ _______ _______ _____ _____    ______ ____
ROOT
ATOM      1  C   UNL     1      -6.125  15.117  20.214  0.00  0.00    +0.113 C 
ATOM      2  C   UNL     1      -7.596  15.604  20.405  0.00  0.00    +0.020 C 
ATOM      3  C   UNL     1      -8.467  15.308  19.124  0.00  0.00    +0.067 C 
ATOM      4  C   UNL     1      -9.941  15.702  19.345  0.00  0.00    +0.003 C 
ATOM      5  C   UNL     1     -10.937  15.044  18.381  0.00  0.00    +0.094 C 
ATOM      6  C   UNL     1     -11.220  13.550  18.581  0.00  0.00    +0.145 C 
ATOM      7  C   UNL     1     -11.956  12.901  17.414  0.00  0.00    +0.083 C 
ATOM      8  O   UNL     1     -10.553  12.706  17.617  0.00  0.00    -0.363 OA
ATOM      9  C   UNL     1     -11.243  12.943  19.991  0.00  0.00    +0.094 C 
ATOM     10  C   UNL     1     -12.042  11.635  20.163  0.00  0.00    +0.003 C 
ATOM     11  C   UNL     1     -11.478  10.339  19.564  0.00  0.00    +0.065 C 
ATOM     12  C   UNL     1     -12.341   9.154  20.061  0.00  0.00    -0.008 C 
ATOM     13  C   UNL     1     -11.665   7.831  19.897  0.00  0.00    -0.083 C 
ATOM     14  C   UNL     1     -10.362   7.760  19.598  0.00  0.00    -0.059 C 
ATOM     15  C   UNL     1      -9.493   8.974  19.394  0.00  0.00    +0.080 C 
ATOM     16  O   UNL     1     -10.112  10.159  19.953  0.00  0.00    -0.369 OA
ATOM     17  C   UNL     1      -9.132   9.194  17.916  0.00  0.00    +0.006 C 
ATOM     18  C   UNL     1      -8.328   8.066  17.234  0.00  0.00    +0.090 C 
ATOM     19  C   UNL     1      -6.924   7.775  17.845  0.00  0.00    +0.100 C 
ATOM     20  C   UNL     1      -6.172   9.020  18.218  0.00  0.00    -0.051 C 
ATOM     21  C   UNL     1      -5.368   9.767  17.436  0.00  0.00    -0.052 C 
ATOM     22  C   UNL     1      -4.884  11.055  17.907  0.00  0.00    -0.052 C 
ATOM     23  C   UNL     1      -5.700  11.940  18.494  0.00  0.00    +0.023 C 
ATOM     24  C   UNL     1      -5.248  13.272  18.931  0.00  0.00    +0.332 C 
ATOM     25  O   UNL     1      -4.209  13.819  18.612  0.00  0.00    -0.246 OA
ATOM     26  O   UNL     1      -6.227  13.755  19.730  0.00  0.00    -0.458 OA
ATOM     27  H   UNL     1      -5.680  15.718  19.410  0.00  0.00    +0.074 HD
ATOM     28  H   UNL     1      -8.056  15.012  21.205  0.00  0.00    +0.036 HD
ATOM     29  H   UNL     1      -8.416  14.234  18.899  0.00  0.00    +0.060 HD
ATOM     30  H   UNL     1     -10.031  16.788  19.218  0.00  0.00    +0.032 HD
ATOM     31  H   UNL     1     -10.229  15.513  20.380  0.00  0.00    +0.032 HD
ATOM     32  H   UNL     1     -10.555  15.173  17.360  0.00  0.00    +0.063 HD
ATOM     33  H   UNL     1     -12.629  12.073  17.573  0.00  0.00    +0.059 HD
ATOM     34  H   UNL     1     -12.260  13.523  16.581  0.00  0.00    +0.059 HD
ATOM     35  H   UNL     1     -10.201  12.797  20.306  0.00  0.00    +0.063 HD
ATOM     36  H   UNL     1     -12.148  11.461  21.241  0.00  0.00    +0.032 HD
ATOM     37  H   UNL     1     -13.071  11.787  19.809  0.00  0.00    +0.032 HD
ATOM     38  H   UNL     1     -11.532  10.381  18.474  0.00  0.00    +0.060 HD
ATOM     39  H   UNL     1     -12.564   9.257  21.130  0.00  0.00    +0.033 HD
ATOM     40  H   UNL     1     -13.300   9.153  19.528  0.00  0.00    +0.033 HD
ATOM     41  H   UNL     1     -12.237   6.924  20.066  0.00  0.00    +0.057 HD
ATOM     42  H   UNL     1      -9.878   6.789  19.521  0.00  0.00    +0.059 HD
ATOM     43  H   UNL     1      -8.580   8.842  19.984  0.00  0.00    +0.064 HD
ATOM     44  H   UNL     1     -10.047   9.341  17.327  0.00  0.00    +0.032 HD
ATOM     45  H   UNL     1      -8.610  10.155  17.805  0.00  0.00    +0.032 HD
ATOM     46  H   UNL     1      -8.930   7.150  17.285  0.00  0.00    +0.063 HD
ATOM     47  H   UNL     1      -6.331   7.169  17.155  0.00  0.00    +0.066 HD
ATOM     48  H   UNL     1      -6.382   9.365  19.233  0.00  0.00    +0.060 HD
ATOM     49  H   UNL     1      -3.841  11.299  17.721  0.00  0.00    +0.062 HD
ATOM     50  H   UNL     1      -6.751  11.728  18.653  0.00  0.00    +0.069 HD
ENDROOT
BRANCH  21  51
ATOM     51  C   UNL     1      -4.969   9.433  16.026  0.00  0.00    -0.040 C 
ATOM     52  H   UNL     1      -5.179  10.276  15.361  0.00  0.00    +0.028 HD
ATOM     53  H   UNL     1      -5.489   8.562  15.625  0.00  0.00    +0.028 HD
ATOM     54  H   UNL     1      -3.898   9.215  15.977  0.00  0.00    +0.028 HD
ENDBRANCH  21  51
BRANCH   2  55
ATOM     55  C   UNL     1      -7.662  17.087  20.789  0.00  0.00    -0.057 C 
ATOM     56  H   UNL     1      -7.231  17.724  20.008  0.00  0.00    +0.023 HD
ATOM     57  H   UNL     1      -7.135  17.277  21.720  0.00  0.00    +0.023 HD
ATOM     58  H   UNL     1      -8.684  17.426  20.970  0.00  0.00    +0.023 HD
ENDBRANCH   2  55
BRANCH   1  59
ATOM     59  C   UNL     1      -5.148  15.131  21.439  0.00  0.00    +0.020 C 
ATOM     60  H   UNL     1      -5.570  15.854  22.145  0.00  0.00    +0.036 HD
BRANCH  59  61
ATOM     61  C   UNL     1      -5.172  13.807  22.213  0.00  0.00    -0.057 C 
ATOM     62  H   UNL     1      -5.098  13.981  23.290  0.00  0.00    +0.023 HD
ATOM     63  H   UNL     1      -6.059  13.207  22.022  0.00  0.00    +0.023 HD
ATOM     64  H   UNL     1      -4.312  13.193  21.924  0.00  0.00    +0.023 HD
ENDBRANCH  59  61
BRANCH  59  65
ATOM     65  C   UNL     1      -3.686  15.602  21.181  0.00  0.00    +0.064 C 
ATOM     66  H   UNL     1      -3.391  16.256  22.013  0.00  0.00    +0.060 HD
BRANCH  65  67
ATOM     67  C   UNL     1      -3.467  16.421  19.878  0.00  0.00    -0.017 C 
ATOM     68  H   UNL     1      -3.935  15.905  19.036  0.00  0.00    +0.032 HD
BRANCH  67  69
ATOM     69  C   UNL     1      -4.111  17.810  19.995  0.00  0.00    -0.060 C 
ATOM     70  H   UNL     1      -3.487  18.478  20.602  0.00  0.00    +0.023 HD
ATOM     71  H   UNL     1      -5.096  17.746  20.470  0.00  0.00    +0.023 HD
ATOM     72  H   UNL     1      -4.235  18.295  19.025  0.00  0.00    +0.023 HD
ENDBRANCH  67  69
BRANCH  67  73
ATOM     73  C   UNL     1      -1.973  16.607  19.510  0.00  0.00    -0.046 C 
ATOM     74  H   UNL     1      -1.848  17.574  19.006  0.00  0.00    +0.027 HD
ATOM     75  H   UNL     1      -1.365  16.655  20.422  0.00  0.00    +0.027 HD
BRANCH  73  76
ATOM     76  C   UNL     1      -1.446  15.520  18.566  0.00  0.00    -0.026 C 
ATOM     77  H   UNL     1      -1.979  14.576  18.721  0.00  0.00    +0.029 HD
ATOM     78  H   UNL     1      -1.644  15.805  17.524  0.00  0.00    +0.029 HD
BRANCH  76  83
ATOM     79  C   UNL     1       1.604  13.590  19.382  0.00  0.00    +0.059 C 
ATOM     80  C   UNL     1       2.628  14.729  19.321  0.00  0.00    -0.000 C 
ATOM     81  C   UNL     1       2.100  15.947  20.072  0.00  0.00    +0.063 C 
ATOM     82  C   UNL     1       0.776  16.420  19.452  0.00  0.00    -0.000 C 
ATOM     83  C   UNL     1       0.061  15.289  18.707  0.00  0.00    +0.061 C 
ATOM     84  O   UNL     1       0.251  14.063  19.423  0.00  0.00    -0.373 OA
ATOM     85  H   UNL     1       1.754  13.042  20.319  0.00  0.00    +0.059 HD
ATOM     86  H   UNL     1       3.592  14.405  19.731  0.00  0.00    +0.032 HD
ATOM     87  H   UNL     1       2.839  15.016  18.281  0.00  0.00    +0.032 HD
ATOM     88  H   UNL     1       1.940  15.666  21.121  0.00  0.00    +0.060 HD
ATOM     89  H   UNL     1       0.140  16.797  20.268  0.00  0.00    +0.032 HD
ATOM     90  H   UNL     1       0.930  17.270  18.774  0.00  0.00    +0.032 HD
ATOM     91  H   UNL     1       0.483  15.177  17.698  0.00  0.00    +0.060 HD
BRANCH  79  92
ATOM     92  C   UNL     1       1.767  12.609  18.231  0.00  0.00    -0.039 C 
ATOM     93  H   UNL     1       2.822  12.469  17.977  0.00  0.00    +0.025 HD
ATOM     94  H   UNL     1       1.336  11.639  18.501  0.00  0.00    +0.025 HD
ATOM     95  H   UNL     1       1.232  12.950  17.338  0.00  0.00    +0.025 HD
ENDBRANCH  79  92
BRANCH  81  96
ATOM     96  O   UNL     1       3.094  16.976  20.007  0.00  0.00    -0.380 OA
BRANCH  96  97
ATOM     97  C   UNL     1       4.421  16.474  20.114  0.00  0.00    +0.037 C 
ATOM     98  H   UNL     1       4.810  16.753  21.096  0.00  0.00    +0.052 HD
ATOM     99  H   UNL     1       5.063  16.916  19.347  0.00  0.00    +0.052 HD
ATOM    100  H   UNL     1       4.434  15.383  20.036  0.00  0.00    +0.052 HD
ENDBRANCH  96  97
ENDBRANCH  81  96
ENDBRANCH  76  83
ENDBRANCH  73  76
ENDBRANCH  67  73
ENDBRANCH  65  67
BRANCH  65 101
ATOM    101  O   UNL     1      -2.792  14.498  21.219  0.00  0.00    -0.391 OA
ATOM    102  H   UNL     1      -2.748  14.180  22.136  0.00  0.00    +0.210 HD
ENDBRANCH  65 101
ENDBRANCH  59  65
ENDBRANCH   1  59
BRANCH  19 103
ATOM    103  O   UNL     1      -7.079   7.007  19.041  0.00  0.00    -0.385 OA
ATOM    104  H   UNL     1      -6.279   6.461  19.137  0.00  0.00    +0.210 HD
ENDBRANCH  19 103
BRANCH  18 105
ATOM    105  O   UNL     1      -8.190   8.447  15.851  0.00  0.00    -0.377 OA
BRANCH 105 106
ATOM    106  C   UNL     1      -9.120   9.447  15.449  0.00  0.00    +0.037 C 
ATOM    107  H   UNL     1      -9.561   9.183  14.482  0.00  0.00    +0.052 HD
ATOM    108  H   UNL     1      -8.646  10.429  15.390  0.00  0.00    +0.052 HD
ATOM    109  H   UNL     1      -9.920   9.492  16.194  0.00  0.00    +0.052 HD
ENDBRANCH 105 106
ENDBRANCH  18 105
BRANCH   9 110
ATOM    110  O   UNL     1     -11.875  13.895  20.873  0.00  0.00    -0.377 OA
BRANCH 110 111
ATOM    111  C   UNL     1     -13.243  13.607  21.145  0.00  0.00    +0.037 C 
ATOM    112  H   UNL     1     -13.574  12.830  20.448  0.00  0.00    +0.052 HD
ATOM    113  H   UNL     1     -13.863  14.493  20.985  0.00  0.00    +0.052 HD
ATOM    114  H   UNL     1     -13.372  13.229  22.161  0.00  0.00    +0.052 HD
ENDBRANCH 110 111
ENDBRANCH   9 110
BRANCH   5 115
ATOM    115  O   UNL     1     -12.204  15.727  18.459  0.00  0.00    -0.377 OA
BRANCH 115 116
ATOM    116  C   UNL     1     -12.393  16.680  17.423  0.00  0.00    +0.037 C 
ATOM    117  H   UNL     1     -11.666  16.473  16.637  0.00  0.00    +0.052 HD
ATOM    118  H   UNL     1     -13.395  16.609  16.998  0.00  0.00    +0.052 HD
ATOM    119  H   UNL     1     -12.216  17.692  17.800  0.00  0.00    +0.052 HD
ENDBRANCH 115 116
ENDBRANCH   5 115
BRANCH   3 120
ATOM    120  O   UNL     1      -7.958  16.097  18.034  0.00  0.00    -0.379 OA
BRANCH 120 121
ATOM    121  C   UNL     1      -7.585  15.327  16.901  0.00  0.00    +0.037 C 
ATOM    122  H   UNL     1      -8.202  14.421  16.885  0.00  0.00    +0.052 HD
ATOM    123  H   UNL     1      -6.533  15.026  16.955  0.00  0.00    +0.052 HD
ATOM    124  H   UNL     1      -7.770  15.884  15.975  0.00  0.00    +0.052 HD
ENDBRANCH 120 121
ENDBRANCH   3 120
TORSDOF 23
ENDMDL
MODEL 4
REMARK VINA RESULT:      -5.9      4.287     10.335
REMARK  Name = Lobophorolide_conf1
REMARK  23 active torsions:
REMARK  status: ('A' for Active; 'I' for Inactive)
REMARK    1  A    between atoms: C_1  and  C_2
REMARK    2  A    between atoms: C_4  and  O_53
REMARK    3  A    between atoms: C_6  and  C_8
REMARK    4  A    between atoms: C_8  and  C_9
REMARK    5  A    between atoms: C_9  and  C_10
REMARK    6  A    between atoms: C_10  and  C_11
REMARK    7  A    between atoms: C_10  and  C_12
REMARK    8  A    between atoms: C_12  and  C_13
REMARK    9  A    between atoms: C_12  and  O_52
REMARK   10  A    between atoms: C_13  and  C_14
REMARK   11  A    between atoms: C_13  and  C_15
REMARK   12  A    between atoms: C_16  and  C_51
REMARK   13  A    between atoms: C_17  and  O_49
REMARK   14  A    between atoms: C_19  and  O_47
REMARK   15  A    between atoms: C_23  and  O_45
REMARK   16  A    between atoms: C_32  and  O_43
REMARK   17  A    between atoms: C_33  and  O_42
REMARK   18  A    between atoms: C_35  and  C_41
REMARK   19  A    between atoms: O_43  and  C_44
REMARK   20  A    between atoms: O_45  and  C_46
REMARK   21  A    between atoms: O_47  and  C_48
REMARK   22  A    between atoms: O_49  and  C_50
REMARK   23  A    between atoms: O_53  and  C_54
REMARK                            x       y       z     vdW  Elec       q    Type
REMARK                         _______ _______ _______ _____ _____    ______ ____
ROOT
ATOM      1  C   UNL     1     -11.401   9.977  23.183  0.00  0.00    +0.113 C 
ATOM      2  C   UNL     1     -11.857   9.145  21.942  0.00  0.00    +0.020 C 
ATOM      3  C   UNL     1     -12.034  10.063  20.673  0.00  0.00    +0.067 C 
ATOM      4  C   UNL     1     -12.392   9.232  19.425  0.00  0.00    +0.003 C 
ATOM      5  C   UNL     1     -12.130   9.932  18.085  0.00  0.00    +0.094 C 
ATOM      6  C   UNL     1     -10.665  10.094  17.657  0.00  0.00    +0.145 C 
ATOM      7  C   UNL     1     -10.467  11.063  16.497  0.00  0.00    +0.083 C 
ATOM      8  O   UNL     1     -10.160  11.435  17.844  0.00  0.00    -0.363 OA
ATOM      9  C   UNL     1      -9.630   9.013  17.996  0.00  0.00    +0.094 C 
ATOM     10  C   UNL     1      -8.372   8.964  17.105  0.00  0.00    +0.003 C 
ATOM     11  C   UNL     1      -7.323  10.078  17.243  0.00  0.00    +0.065 C 
ATOM     12  C   UNL     1      -6.077   9.681  16.416  0.00  0.00    -0.008 C 
ATOM     13  C   UNL     1      -4.855  10.455  16.795  0.00  0.00    -0.083 C 
ATOM     14  C   UNL     1      -4.834  11.200  17.906  0.00  0.00    -0.059 C 
ATOM     15  C   UNL     1      -6.011  11.329  18.838  0.00  0.00    +0.080 C 
ATOM     16  O   UNL     1      -6.970  10.265  18.618  0.00  0.00    -0.369 OA
ATOM     17  C   UNL     1      -6.691  12.705  18.736  0.00  0.00    +0.006 C 
ATOM     18  C   UNL     1      -5.818  13.927  19.098  0.00  0.00    +0.090 C 
ATOM     19  C   UNL     1      -5.286  13.964  20.562  0.00  0.00    +0.100 C 
ATOM     20  C   UNL     1      -6.307  13.531  21.574  0.00  0.00    -0.051 C 
ATOM     21  C   UNL     1      -7.237  14.288  22.188  0.00  0.00    -0.052 C 
ATOM     22  C   UNL     1      -8.278  13.660  22.987  0.00  0.00    -0.052 C 
ATOM     23  C   UNL     1      -8.953  12.591  22.547  0.00  0.00    +0.023 C 
ATOM     24  C   UNL     1     -10.046  11.969  23.312  0.00  0.00    +0.332 C 
ATOM     25  O   UNL     1     -10.626  12.457  24.264  0.00  0.00    -0.246 OA
ATOM     26  O   UNL     1     -10.279  10.772  22.725  0.00  0.00    -0.458 OA
ATOM     27  H   UNL     1     -12.214  10.670  23.432  0.00  0.00    +0.074 HD
ATOM     28  H   UNL     1     -11.054   8.447  21.678  0.00  0.00    +0.036 HD
ATOM     29  H   UNL     1     -11.094  10.598  20.485  0.00  0.00    +0.060 HD
ATOM     30  H   UNL     1     -13.463   8.993  19.465  0.00  0.00    +0.032 HD
ATOM     31  H   UNL     1     -11.885   8.267  19.458  0.00  0.00    +0.032 HD
ATOM     32  H   UNL     1     -12.572  10.935  18.135  0.00  0.00    +0.063 HD
ATOM     33  H   UNL     1      -9.661  10.929  15.792  0.00  0.00    +0.059 HD
ATOM     34  H   UNL     1     -11.341  11.513  16.040  0.00  0.00    +0.059 HD
ATOM     35  H   UNL     1      -9.347   9.143  19.048  0.00  0.00    +0.063 HD
ATOM     36  H   UNL     1      -7.857   8.021  17.325  0.00  0.00    +0.032 HD
ATOM     37  H   UNL     1      -8.673   8.872  16.052  0.00  0.00    +0.032 HD
ATOM     38  H   UNL     1      -7.724  11.014  16.850  0.00  0.00    +0.060 HD
ATOM     39  H   UNL     1      -5.831   8.622  16.565  0.00  0.00    +0.033 HD
ATOM     40  H   UNL     1      -6.290   9.817  15.348  0.00  0.00    +0.033 HD
ATOM     41  H   UNL     1      -3.967  10.371  16.176  0.00  0.00    +0.057 HD
ATOM     42  H   UNL     1      -3.924  11.725  18.187  0.00  0.00    +0.059 HD
ATOM     43  H   UNL     1      -5.655  11.166  19.861  0.00  0.00    +0.064 HD
ATOM     44  H   UNL     1      -7.060  12.863  17.713  0.00  0.00    +0.032 HD
ATOM     45  H   UNL     1      -7.612  12.704  19.334  0.00  0.00    +0.032 HD
ATOM     46  H   UNL     1      -4.962  13.939  18.411  0.00  0.00    +0.063 HD
ATOM     47  H   UNL     1      -4.918  14.964  20.803  0.00  0.00    +0.066 HD
ATOM     48  H   UNL     1      -6.307  12.453  21.755  0.00  0.00    +0.060 HD
ATOM     49  H   UNL     1      -8.526  14.120  23.940  0.00  0.00    +0.062 HD
ATOM     50  H   UNL     1      -8.742  12.141  21.583  0.00  0.00    +0.069 HD
ENDROOT
BRANCH  21  51
ATOM     51  C   UNL     1      -7.370  15.779  22.059  0.00  0.00    -0.040 C 
ATOM     52  H   UNL     1      -8.068  16.166  22.807  0.00  0.00    +0.028 HD
ATOM     53  H   UNL     1      -7.731  16.098  21.080  0.00  0.00    +0.028 HD
ATOM     54  H   UNL     1      -6.400  16.261  22.213  0.00  0.00    +0.028 HD
ENDBRANCH  21  51
BRANCH   2  55
ATOM     55  C   UNL     1     -13.132   8.343  22.228  0.00  0.00    -0.057 C 
ATOM     56  H   UNL     1     -13.038   7.305  21.892  0.00  0.00    +0.023 HD
ATOM     57  H   UNL     1     -13.995   8.788  21.739  0.00  0.00    +0.023 HD
ATOM     58  H   UNL     1     -13.387   8.329  23.290  0.00  0.00    +0.023 HD
ENDBRANCH   2  55
BRANCH   1  59
ATOM     59  C   UNL     1     -10.971   9.229  24.491  0.00  0.00    +0.020 C 
ATOM     60  H   UNL     1     -10.270   9.900  24.998  0.00  0.00    +0.036 HD
BRANCH  59  61
ATOM     61  C   UNL     1     -12.131   9.092  25.486  0.00  0.00    -0.057 C 
ATOM     62  H   UNL     1     -13.080   8.944  24.964  0.00  0.00    +0.023 HD
ATOM     63  H   UNL     1     -12.000   8.281  26.199  0.00  0.00    +0.023 HD
ATOM     64  H   UNL     1     -12.225  10.012  26.074  0.00  0.00    +0.023 HD
ENDBRANCH  59  61
BRANCH  59  65
ATOM     65  C   UNL     1     -10.214   7.878  24.325  0.00  0.00    +0.064 C 
ATOM     66  H   UNL     1     -10.799   7.245  23.644  0.00  0.00    +0.060 HD
BRANCH  65  67
ATOM     67  C   UNL     1     -10.017   7.058  25.630  0.00  0.00    -0.017 C 
ATOM     68  H   UNL     1     -10.784   7.334  26.358  0.00  0.00    +0.032 HD
BRANCH  67  69
ATOM     69  C   UNL     1     -10.152   5.554  25.351  0.00  0.00    -0.060 C 
ATOM     70  H   UNL     1      -9.988   4.972  26.267  0.00  0.00    +0.023 HD
ATOM     71  H   UNL     1      -9.417   5.226  24.608  0.00  0.00    +0.023 HD
ATOM     72  H   UNL     1     -11.145   5.286  24.985  0.00  0.00    +0.023 HD
ENDBRANCH  67  69
BRANCH  67  73
ATOM     73  C   UNL     1      -8.647   7.304  26.312  0.00  0.00    -0.046 C 
ATOM     74  H   UNL     1      -8.366   6.408  26.882  0.00  0.00    +0.027 HD
ATOM     75  H   UNL     1      -7.868   7.440  25.552  0.00  0.00    +0.027 HD
BRANCH  73  76
ATOM     76  C   UNL     1      -8.665   8.487  27.287  0.00  0.00    -0.026 C 
ATOM     77  H   UNL     1      -7.683   8.970  27.335  0.00  0.00    +0.029 HD
ATOM     78  H   UNL     1      -9.356   9.259  26.922  0.00  0.00    +0.029 HD
BRANCH  76  83
ATOM     79  C   UNL     1      -9.156   8.963  30.923  0.00  0.00    +0.059 C 
ATOM     80  C   UNL     1      -9.536   7.527  31.301  0.00  0.00    -0.000 C 
ATOM     81  C   UNL     1      -8.579   6.542  30.637  0.00  0.00    +0.063 C 
ATOM     82  C   UNL     1      -8.631   6.698  29.111  0.00  0.00    -0.000 C 
ATOM     83  C   UNL     1      -9.112   8.090  28.696  0.00  0.00    +0.061 C 
ATOM     84  O   UNL     1      -8.586   9.059  29.611  0.00  0.00    -0.373 OA
ATOM     85  H   UNL     1      -8.375   9.305  31.611  0.00  0.00    +0.059 HD
ATOM     86  H   UNL     1      -9.536   7.400  32.390  0.00  0.00    +0.032 HD
ATOM     87  H   UNL     1     -10.563   7.292  30.984  0.00  0.00    +0.032 HD
ATOM     88  H   UNL     1      -7.562   6.750  30.999  0.00  0.00    +0.060 HD
ATOM     89  H   UNL     1      -7.617   6.516  28.720  0.00  0.00    +0.032 HD
ATOM     90  H   UNL     1      -9.270   5.933  28.650  0.00  0.00    +0.032 HD
ATOM     91  H   UNL     1     -10.210   8.135  28.729  0.00  0.00    +0.060 HD
BRANCH  79  92
ATOM     92  C   UNL     1     -10.336   9.918  31.038  0.00  0.00    -0.039 C 
ATOM     93  H   UNL     1     -10.540  10.411  30.082  0.00  0.00    +0.025 HD
ATOM     94  H   UNL     1     -11.231   9.372  31.353  0.00  0.00    +0.025 HD
ATOM     95  H   UNL     1     -10.154  10.686  31.797  0.00  0.00    +0.025 HD
ENDBRANCH  79  92
BRANCH  81  96
ATOM     96  O   UNL     1      -8.956   5.218  31.033  0.00  0.00    -0.380 OA
BRANCH  96  97
ATOM     97  C   UNL     1     -10.366   5.034  31.083  0.00  0.00    +0.037 C 
ATOM     98  H   UNL     1     -10.837   5.907  30.625  0.00  0.00    +0.052 HD
ATOM     99  H   UNL     1     -10.708   4.957  32.119  0.00  0.00    +0.052 HD
ATOM    100  H   UNL     1     -10.665   4.146  30.518  0.00  0.00    +0.052 HD
ENDBRANCH  96  97
ENDBRANCH  81  96
ENDBRANCH  76  83
ENDBRANCH  73  76
ENDBRANCH  67  73
ENDBRANCH  65  67
BRANCH  65 101
ATOM    101  O   UNL     1      -8.962   8.084  23.685  0.00  0.00    -0.391 OA
ATOM    102  H   UNL     1      -8.987   7.632  22.825  0.00  0.00    +0.210 HD
ENDBRANCH  65 101
ENDBRANCH  59  65
ENDBRANCH   1  59
BRANCH  19 103
ATOM    103  O   UNL     1      -4.174  13.074  20.684  0.00  0.00    -0.385 OA
ATOM    104  H   UNL     1      -3.890  13.094  21.614  0.00  0.00    +0.210 HD
ENDBRANCH  19 103
BRANCH  18 105
ATOM    105  O   UNL     1      -6.628  15.091  18.841  0.00  0.00    -0.377 OA
BRANCH 105 106
ATOM    106  C   UNL     1      -5.864  16.276  18.653  0.00  0.00    +0.037 C 
ATOM    107  H   UNL     1      -6.497  17.071  18.245  0.00  0.00    +0.052 HD
ATOM    108  H   UNL     1      -5.012  16.098  17.992  0.00  0.00    +0.052 HD
ATOM    109  H   UNL     1      -5.486  16.601  19.627  0.00  0.00    +0.052 HD
ENDBRANCH 105 106
ENDBRANCH  18 105
BRANCH   9 110
ATOM    110  O   UNL     1     -10.264   7.726  17.831  0.00  0.00    -0.377 OA
BRANCH 110 111
ATOM    111  C   UNL     1      -9.744   6.715  18.688  0.00  0.00    +0.037 C 
ATOM    112  H   UNL     1     -10.295   6.750  19.633  0.00  0.00    +0.052 HD
ATOM    113  H   UNL     1      -8.688   6.899  18.904  0.00  0.00    +0.052 HD
ATOM    114  H   UNL     1      -9.877   5.722  18.254  0.00  0.00    +0.052 HD
ENDBRANCH 110 111
ENDBRANCH   9 110
BRANCH   5 115
ATOM    115  O   UNL     1     -12.799   9.215  17.029  0.00  0.00    -0.377 OA
BRANCH 115 116
ATOM    116  C   UNL     1     -14.047   9.788  16.665  0.00  0.00    +0.037 C 
ATOM    117  H   UNL     1     -14.043  10.833  16.977  0.00  0.00    +0.052 HD
ATOM    118  H   UNL     1     -14.202   9.747  15.586  0.00  0.00    +0.052 HD
ATOM    119  H   UNL     1     -14.866   9.276  17.181  0.00  0.00    +0.052 HD
ENDBRANCH 115 116
ENDBRANCH   5 115
BRANCH   3 120
ATOM    120  O   UNL     1     -13.117  10.978  20.919  0.00  0.00    -0.379 OA
BRANCH 120 121
ATOM    121  C   UNL     1     -12.766  12.340  20.721  0.00  0.00    +0.037 C 
ATOM    122  H   UNL     1     -13.016  12.894  21.634  0.00  0.00    +0.052 HD
ATOM    123  H   UNL     1     -13.329  12.776  19.889  0.00  0.00    +0.052 HD
ATOM    124  H   UNL     1     -11.690  12.442  20.542  0.00  0.00    +0.052 HD
ENDBRANCH 120 121
ENDBRANCH   3 120
TORSDOF 23
ENDMDL
MODEL 5
REMARK VINA RESULT:      -5.9      5.958     10.692
REMARK  Name = Lobophorolide_conf1
REMARK  23 active torsions:
REMARK  status: ('A' for Active; 'I' for Inactive)
REMARK    1  A    between atoms: C_1  and  C_2
REMARK    2  A    between atoms: C_4  and  O_53
REMARK    3  A    between atoms: C_6  and  C_8
REMARK    4  A    between atoms: C_8  and  C_9
REMARK    5  A    between atoms: C_9  and  C_10
REMARK    6  A    between atoms: C_10  and  C_11
REMARK    7  A    between atoms: C_10  and  C_12
REMARK    8  A    between atoms: C_12  and  C_13
REMARK    9  A    between atoms: C_12  and  O_52
REMARK   10  A    between atoms: C_13  and  C_14
REMARK   11  A    between atoms: C_13  and  C_15
REMARK   12  A    between atoms: C_16  and  C_51
REMARK   13  A    between atoms: C_17  and  O_49
REMARK   14  A    between atoms: C_19  and  O_47
REMARK   15  A    between atoms: C_23  and  O_45
REMARK   16  A    between atoms: C_32  and  O_43
REMARK   17  A    between atoms: C_33  and  O_42
REMARK   18  A    between atoms: C_35  and  C_41
REMARK   19  A    between atoms: O_43  and  C_44
REMARK   20  A    between atoms: O_45  and  C_46
REMARK   21  A    between atoms: O_47  and  C_48
REMARK   22  A    between atoms: O_49  and  C_50
REMARK   23  A    between atoms: O_53  and  C_54
REMARK                            x       y       z     vdW  Elec       q    Type
REMARK                         _______ _______ _______ _____ _____    ______ ____
ROOT
ATOM      1  C   UNL     1      -9.218   7.523  16.126  0.00  0.00    +0.113 C 
ATOM      2  C   UNL     1      -9.358   6.325  17.118  0.00  0.00    +0.020 C 
ATOM      3  C   UNL     1     -10.393   5.261  16.585  0.00  0.00    +0.067 C 
ATOM      4  C   UNL     1     -10.463   4.033  17.515  0.00  0.00    +0.003 C 
ATOM      5  C   UNL     1     -11.055   2.770  16.875  0.00  0.00    +0.094 C 
ATOM      6  C   UNL     1     -10.190   2.040  15.841  0.00  0.00    +0.145 C 
ATOM      7  C   UNL     1     -10.950   1.000  15.025  0.00  0.00    +0.083 C 
ATOM      8  O   UNL     1     -10.605   2.276  14.477  0.00  0.00    -0.363 OA
ATOM      9  C   UNL     1      -8.664   1.987  16.000  0.00  0.00    +0.094 C 
ATOM     10  C   UNL     1      -7.939   0.830  15.282  0.00  0.00    +0.003 C 
ATOM     11  C   UNL     1      -7.825   0.864  13.751  0.00  0.00    +0.065 C 
ATOM     12  C   UNL     1      -6.875  -0.274  13.305  0.00  0.00    -0.008 C 
ATOM     13  C   UNL     1      -6.359  -0.092  11.915  0.00  0.00    -0.083 C 
ATOM     14  C   UNL     1      -6.519   1.071  11.271  0.00  0.00    -0.059 C 
ATOM     15  C   UNL     1      -7.224   2.259  11.874  0.00  0.00    +0.080 C 
ATOM     16  O   UNL     1      -7.324   2.132  13.314  0.00  0.00    -0.369 OA
ATOM     17  C   UNL     1      -8.610   2.496  11.251  0.00  0.00    +0.006 C 
ATOM     18  C   UNL     1      -8.635   2.800   9.737  0.00  0.00    +0.090 C 
ATOM     19  C   UNL     1      -7.885   4.094   9.297  0.00  0.00    +0.100 C 
ATOM     20  C   UNL     1      -8.102   5.250  10.230  0.00  0.00    -0.051 C 
ATOM     21  C   UNL     1      -9.100   6.156  10.207  0.00  0.00    -0.052 C 
ATOM     22  C   UNL     1      -9.267   7.086  11.312  0.00  0.00    -0.052 C 
ATOM     23  C   UNL     1      -9.211   6.680  12.587  0.00  0.00    +0.023 C 
ATOM     24  C   UNL     1      -9.429   7.590  13.724  0.00  0.00    +0.332 C 
ATOM     25  O   UNL     1      -9.913   8.706  13.668  0.00  0.00    -0.246 OA
ATOM     26  O   UNL     1      -9.007   6.924  14.823  0.00  0.00    -0.458 OA
ATOM     27  H   UNL     1     -10.185   8.041  16.096  0.00  0.00    +0.074 HD
ATOM     28  H   UNL     1      -8.400   5.794  17.159  0.00  0.00    +0.036 HD
ATOM     29  H   UNL     1     -10.082   4.930  15.585  0.00  0.00    +0.060 HD
ATOM     30  H   UNL     1     -11.092   4.288  18.378  0.00  0.00    +0.032 HD
ATOM     31  H   UNL     1      -9.479   3.823  17.935  0.00  0.00    +0.032 HD
ATOM     32  H   UNL     1     -11.994   3.050  16.381  0.00  0.00    +0.063 HD
ATOM     33  H   UNL     1     -10.456   0.117  14.652  0.00  0.00    +0.059 HD
ATOM     34  H   UNL     1     -11.994   0.820  15.257  0.00  0.00    +0.059 HD
ATOM     35  H   UNL     1      -8.262   2.952  15.667  0.00  0.00    +0.063 HD
ATOM     36  H   UNL     1      -6.913   0.801  15.671  0.00  0.00    +0.032 HD
ATOM     37  H   UNL     1      -8.378  -0.127  15.596  0.00  0.00    +0.032 HD
ATOM     38  H   UNL     1      -8.807   0.699  13.303  0.00  0.00    +0.060 HD
ATOM     39  H   UNL     1      -5.994  -0.323  13.958  0.00  0.00    +0.033 HD
ATOM     40  H   UNL     1      -7.395  -1.236  13.389  0.00  0.00    +0.033 HD
ATOM     41  H   UNL     1      -5.814  -0.905  11.445  0.00  0.00    +0.057 HD
ATOM     42  H   UNL     1      -6.103   1.199  10.275  0.00  0.00    +0.059 HD
ATOM     43  H   UNL     1      -6.593   3.142  11.723  0.00  0.00    +0.064 HD
ATOM     44  H   UNL     1      -9.247   1.616  11.414  0.00  0.00    +0.032 HD
ATOM     45  H   UNL     1      -9.132   3.286  11.807  0.00  0.00    +0.032 HD
ATOM     46  H   UNL     1      -8.190   1.942   9.217  0.00  0.00    +0.063 HD
ATOM     47  H   UNL     1      -8.174   4.370   8.281  0.00  0.00    +0.066 HD
ATOM     48  H   UNL     1      -7.383   5.286  11.052  0.00  0.00    +0.060 HD
ATOM     49  H   UNL     1      -9.489   8.122  11.069  0.00  0.00    +0.062 HD
ATOM     50  H   UNL     1      -9.027   5.643  12.847  0.00  0.00    +0.069 HD
ENDROOT
BRANCH  21  51
ATOM     51  C   UNL     1     -10.162   6.255   9.149  0.00  0.00    -0.040 C 
ATOM     52  H   UNL     1     -10.210   5.329   8.569  0.00  0.00    +0.028 HD
ATOM     53  H   UNL     1      -9.997   7.073   8.446  0.00  0.00    +0.028 HD
ATOM     54  H   UNL     1     -11.140   6.423   9.608  0.00  0.00    +0.028 HD
ENDBRANCH  21  51
BRANCH   2  55
ATOM     55  C   UNL     1      -9.723   6.793  18.532  0.00  0.00    -0.057 C 
ATOM     56  H   UNL     1      -9.917   7.870  18.560  0.00  0.00    +0.023 HD
ATOM     57  H   UNL     1      -8.929   6.566  19.238  0.00  0.00    +0.023 HD
ATOM     58  H   UNL     1     -10.605   6.284  18.925  0.00  0.00    +0.023 HD
ENDBRANCH   2  55
BRANCH   1  59
ATOM     59  C   UNL     1      -8.094   8.588  16.365  0.00  0.00    +0.020 C 
ATOM     60  H   UNL     1      -7.685   8.813  15.374  0.00  0.00    +0.036 HD
BRANCH  59  61
ATOM     61  C   UNL     1      -8.662   9.931  16.839  0.00  0.00    -0.057 C 
ATOM     62  H   UNL     1      -9.606   9.791  17.373  0.00  0.00    +0.023 HD
ATOM     63  H   UNL     1      -7.984  10.489  17.482  0.00  0.00    +0.023 HD
ATOM     64  H   UNL     1      -8.870  10.571  15.975  0.00  0.00    +0.023 HD
ENDBRANCH  59  61
BRANCH  59  65
ATOM     65  C   UNL     1      -6.875   8.157  17.233  0.00  0.00    +0.064 C 
ATOM     66  H   UNL     1      -7.237   7.973  18.254  0.00  0.00    +0.060 HD
BRANCH  65  67
ATOM     67  C   UNL     1      -5.735   9.206  17.352  0.00  0.00    -0.017 C 
ATOM     68  H   UNL     1      -4.911   8.789  17.936  0.00  0.00    +0.032 HD
BRANCH  67  69
ATOM     69  C   UNL     1      -5.189   9.574  15.965  0.00  0.00    -0.060 C 
ATOM     70  H   UNL     1      -4.799   8.686  15.452  0.00  0.00    +0.023 HD
ATOM     71  H   UNL     1      -4.375  10.302  16.045  0.00  0.00    +0.023 HD
ATOM     72  H   UNL     1      -5.957   9.997  15.314  0.00  0.00    +0.023 HD
ENDBRANCH  67  69
BRANCH  67  73
ATOM     73  C   UNL     1      -6.170  10.512  18.066  0.00  0.00    -0.046 C 
ATOM     74  H   UNL     1      -6.582  11.205  17.320  0.00  0.00    +0.027 HD
ATOM     75  H   UNL     1      -6.983  10.301  18.770  0.00  0.00    +0.027 HD
BRANCH  73  76
ATOM     76  C   UNL     1      -5.012  11.225  18.773  0.00  0.00    -0.026 C 
ATOM     77  H   UNL     1      -5.231  11.367  19.837  0.00  0.00    +0.029 HD
ATOM     78  H   UNL     1      -4.112  10.598  18.737  0.00  0.00    +0.029 HD
BRANCH  76  83
ATOM     79  C   UNL     1      -3.577  14.634  18.674  0.00  0.00    +0.059 C 
ATOM     80  C   UNL     1      -4.196  15.114  17.357  0.00  0.00    -0.000 C 
ATOM     81  C   UNL     1      -5.678  14.754  17.315  0.00  0.00    +0.063 C 
ATOM     82  C   UNL     1      -5.858  13.234  17.438  0.00  0.00    -0.000 C 
ATOM     83  C   UNL     1      -4.666  12.574  18.135  0.00  0.00    +0.061 C 
ATOM     84  O   UNL     1      -4.193  13.439  19.173  0.00  0.00    -0.373 OA
ATOM     85  H   UNL     1      -3.754  15.400  19.437  0.00  0.00    +0.059 HD
ATOM     86  H   UNL     1      -4.053  16.194  17.232  0.00  0.00    +0.032 HD
ATOM     87  H   UNL     1      -3.695  14.655  16.492  0.00  0.00    +0.032 HD
ATOM     88  H   UNL     1      -6.181  15.257  18.151  0.00  0.00    +0.060 HD
ATOM     89  H   UNL     1      -6.781  13.051  18.011  0.00  0.00    +0.032 HD
ATOM     90  H   UNL     1      -6.019  12.766  16.457  0.00  0.00    +0.032 HD
ATOM     91  H   UNL     1      -3.852  12.410  17.415  0.00  0.00    +0.060 HD
BRANCH  79  92
ATOM     92  C   UNL     1      -2.074  14.424  18.559  0.00  0.00    -0.039 C 
ATOM     93  H   UNL     1      -1.820  13.881  17.643  0.00  0.00    +0.025 HD
ATOM     94  H   UNL     1      -1.560  15.391  18.551  0.00  0.00    +0.025 HD
ATOM     95  H   UNL     1      -1.682  13.868  19.417  0.00  0.00    +0.025 HD
ENDBRANCH  79  92
BRANCH  81  96
ATOM     96  O   UNL     1      -6.220  15.238  16.080  0.00  0.00    -0.380 OA
BRANCH  96  97
ATOM     97  C   UNL     1      -5.219  15.557  15.121  0.00  0.00    +0.037 C 
ATOM     98  H   UNL     1      -4.953  16.610  15.247  0.00  0.00    +0.052 HD
ATOM     99  H   UNL     1      -5.598  15.414  14.106  0.00  0.00    +0.052 HD
ATOM    100  H   UNL     1      -4.319  14.954  15.279  0.00  0.00    +0.052 HD
ENDBRANCH  96  97
ENDBRANCH  81  96
ENDBRANCH  76  83
ENDBRANCH  73  76
ENDBRANCH  67  73
ENDBRANCH  65  67
BRANCH  65 101
ATOM    101  O   UNL     1      -6.351   6.917  16.777  0.00  0.00    -0.391 OA
ATOM    102  H   UNL     1      -6.753   6.721  15.914  0.00  0.00    +0.210 HD
ENDBRANCH  65 101
ENDBRANCH  59  65
ENDBRANCH   1  59
BRANCH  19 103
ATOM    103  O   UNL     1      -6.478   3.839   9.271  0.00  0.00    -0.385 OA
ATOM    104  H   UNL     1      -6.135   4.030  10.161  0.00  0.00    +0.210 HD
ENDBRANCH  19 103
BRANCH  18 105
ATOM    105  O   UNL     1     -10.025   2.891   9.367  0.00  0.00    -0.377 OA
BRANCH 105 106
ATOM    106  C   UNL     1     -10.249   2.701   7.974  0.00  0.00    +0.037 C 
ATOM    107  H   UNL     1     -10.035   1.663   7.698  0.00  0.00    +0.052 HD
ATOM    108  H   UNL     1      -9.637   3.382   7.378  0.00  0.00    +0.052 HD
ATOM    109  H   UNL     1     -11.302   2.905   7.764  0.00  0.00    +0.052 HD
ENDBRANCH 105 106
ENDBRANCH  18 105
BRANCH   9 110
ATOM    110  O   UNL     1      -8.371   1.808  17.402  0.00  0.00    -0.377 OA
BRANCH 110 111
ATOM    111  C   UNL     1      -8.261   0.445  17.798  0.00  0.00    +0.037 C 
ATOM    112  H   UNL     1      -9.211  -0.053  17.580  0.00  0.00    +0.052 HD
ATOM    113  H   UNL     1      -8.078   0.370  18.874  0.00  0.00    +0.052 HD
ATOM    114  H   UNL     1      -7.474  -0.066  17.241  0.00  0.00    +0.052 HD
ENDBRANCH 110 111
ENDBRANCH   9 110
BRANCH   5 115
ATOM    115  O   UNL     1     -11.376   1.815  17.906  0.00  0.00    -0.377 OA
BRANCH 115 116
ATOM    116  C   UNL     1     -11.366   2.372  19.212  0.00  0.00    +0.037 C 
ATOM    117  H   UNL     1     -11.749   3.392  19.147  0.00  0.00    +0.052 HD
ATOM    118  H   UNL     1     -12.003   1.804  19.891  0.00  0.00    +0.052 HD
ATOM    119  H   UNL     1     -10.344   2.412  19.601  0.00  0.00    +0.052 HD
ENDBRANCH 115 116
ENDBRANCH   5 115
BRANCH   3 120
ATOM    120  O   UNL     1     -11.697   5.867  16.556  0.00  0.00    -0.379 OA
BRANCH 120 121
ATOM    121  C   UNL     1     -12.340   5.771  15.293  0.00  0.00    +0.037 C 
ATOM    122  H   UNL     1     -11.731   6.307  14.557  0.00  0.00    +0.052 HD
ATOM    123  H   UNL     1     -13.334   6.231  15.319  0.00  0.00    +0.052 HD
ATOM    124  H   UNL     1     -12.418   4.725  14.976  0.00  0.00    +0.052 HD
ENDBRANCH 120 121
ENDBRANCH   3 120
TORSDOF 23
ENDMDL
MODEL 6
REMARK VINA RESULT:      -5.9      6.894     12.387
REMARK  Name = Lobophorolide_conf1
REMARK  23 active torsions:
REMARK  status: ('A' for Active; 'I' for Inactive)
REMARK    1  A    between atoms: C_1  and  C_2
REMARK    2  A    between atoms: C_4  and  O_53
REMARK    3  A    between atoms: C_6  and  C_8
REMARK    4  A    between atoms: C_8  and  C_9
REMARK    5  A    between atoms: C_9  and  C_10
REMARK    6  A    between atoms: C_10  and  C_11
REMARK    7  A    between atoms: C_10  and  C_12
REMARK    8  A    between atoms: C_12  and  C_13
REMARK    9  A    between atoms: C_12  and  O_52
REMARK   10  A    between atoms: C_13  and  C_14
REMARK   11  A    between atoms: C_13  and  C_15
REMARK   12  A    between atoms: C_16  and  C_51
REMARK   13  A    between atoms: C_17  and  O_49
REMARK   14  A    between atoms: C_19  and  O_47
REMARK   15  A    between atoms: C_23  and  O_45
REMARK   16  A    between atoms: C_32  and  O_43
REMARK   17  A    between atoms: C_33  and  O_42
REMARK   18  A    between atoms: C_35  and  C_41
REMARK   19  A    between atoms: O_43  and  C_44
REMARK   20  A    between atoms: O_45  and  C_46
REMARK   21  A    between atoms: O_47  and  C_48
REMARK   22  A    between atoms: O_49  and  C_50
REMARK   23  A    between atoms: O_53  and  C_54
REMARK                            x       y       z     vdW  Elec       q    Type
REMARK                         _______ _______ _______ _____ _____    ______ ____
ROOT
ATOM      1  C   UNL     1     -10.003   5.752  15.435  0.00  0.00    +0.113 C 
ATOM      2  C   UNL     1     -10.166   4.257  15.855  0.00  0.00    +0.020 C 
ATOM      3  C   UNL     1     -10.818   3.406  14.699  0.00  0.00    +0.067 C 
ATOM      4  C   UNL     1     -10.894   1.913  15.075  0.00  0.00    +0.003 C 
ATOM      5  C   UNL     1     -11.062   0.956  13.887  0.00  0.00    +0.094 C 
ATOM      6  C   UNL     1      -9.844   0.749  12.978  0.00  0.00    +0.145 C 
ATOM      7  C   UNL     1     -10.169   0.052  11.662  0.00  0.00    +0.083 C 
ATOM      8  O   UNL     1      -9.937   1.463  11.725  0.00  0.00    -0.363 OA
ATOM      9  C   UNL     1      -8.425   0.754  13.563  0.00  0.00    +0.094 C 
ATOM     10  C   UNL     1      -7.342   0.023  12.744  0.00  0.00    +0.003 C 
ATOM     11  C   UNL     1      -6.853   0.656  11.433  0.00  0.00    +0.065 C 
ATOM     12  C   UNL     1      -5.629  -0.147  10.929  0.00  0.00    -0.008 C 
ATOM     13  C   UNL     1      -4.821   0.598   9.916  0.00  0.00    -0.083 C 
ATOM     14  C   UNL     1      -5.024   1.903   9.702  0.00  0.00    -0.059 C 
ATOM     15  C   UNL     1      -6.065   2.709  10.436  0.00  0.00    +0.080 C 
ATOM     16  O   UNL     1      -6.500   2.027  11.639  0.00  0.00    -0.369 OA
ATOM     17  C   UNL     1      -7.268   3.063   9.546  0.00  0.00    +0.006 C 
ATOM     18  C   UNL     1      -6.965   3.927   8.301  0.00  0.00    +0.090 C 
ATOM     19  C   UNL     1      -6.380   5.342   8.589  0.00  0.00    +0.100 C 
ATOM     20  C   UNL     1      -7.035   6.027   9.753  0.00  0.00    -0.051 C 
ATOM     21  C   UNL     1      -8.144   6.793   9.746  0.00  0.00    -0.052 C 
ATOM     22  C   UNL     1      -8.753   7.209  11.000  0.00  0.00    -0.052 C 
ATOM     23  C   UNL     1      -8.947   6.346  12.006  0.00  0.00    +0.023 C 
ATOM     24  C   UNL     1      -9.609   6.727  13.264  0.00  0.00    +0.332 C 
ATOM     25  O   UNL     1     -10.260   7.737  13.457  0.00  0.00    -0.246 OA
ATOM     26  O   UNL     1      -9.363   5.721  14.135  0.00  0.00    -0.458 OA
ATOM     27  H   UNL     1     -11.009   6.167  15.296  0.00  0.00    +0.074 HD
ATOM     28  H   UNL     1      -9.168   3.825  15.998  0.00  0.00    +0.036 HD
ATOM     29  H   UNL     1     -10.210   3.513  13.790  0.00  0.00    +0.060 HD
ATOM     30  H   UNL     1     -11.756   1.767  15.738  0.00  0.00    +0.032 HD
ATOM     31  H   UNL     1     -10.026   1.632  15.672  0.00  0.00    +0.032 HD
ATOM     32  H   UNL     1     -11.881   1.334  13.261  0.00  0.00    +0.063 HD
ATOM     33  H   UNL     1      -9.443  -0.578  11.173  0.00  0.00    +0.059 HD
ATOM     34  H   UNL     1     -11.186  -0.281  11.488  0.00  0.00    +0.059 HD
ATOM     35  H   UNL     1      -8.137   1.801  13.727  0.00  0.00    +0.063 HD
ATOM     36  H   UNL     1      -6.461  -0.077  13.390  0.00  0.00    +0.032 HD
ATOM     37  H   UNL     1      -7.662  -1.011  12.556  0.00  0.00    +0.032 HD
ATOM     38  H   UNL     1      -7.642   0.603  10.680  0.00  0.00    +0.060 HD
ATOM     39  H   UNL     1      -4.948  -0.378  11.758  0.00  0.00    +0.033 HD
ATOM     40  H   UNL     1      -5.967  -1.102  10.510  0.00  0.00    +0.033 HD
ATOM     41  H   UNL     1      -4.034   0.073   9.382  0.00  0.00    +0.057 HD
ATOM     42  H   UNL     1      -4.401   2.437   8.989  0.00  0.00    +0.059 HD
ATOM     43  H   UNL     1      -5.591   3.626  10.801  0.00  0.00    +0.064 HD
ATOM     44  H   UNL     1      -7.752   2.143   9.190  0.00  0.00    +0.032 HD
ATOM     45  H   UNL     1      -8.050   3.535  10.156  0.00  0.00    +0.032 HD
ATOM     46  H   UNL     1      -6.253   3.372   7.676  0.00  0.00    +0.063 HD
ATOM     47  H   UNL     1      -6.449   5.967   7.696  0.00  0.00    +0.066 HD
ATOM     48  H   UNL     1      -6.566   5.796  10.713  0.00  0.00    +0.060 HD
ATOM     49  H   UNL     1      -9.093   8.238  11.077  0.00  0.00    +0.062 HD
ATOM     50  H   UNL     1      -8.647   5.307  11.931  0.00  0.00    +0.069 HD
ENDROOT
BRANCH  21  51
ATOM     51  C   UNL     1      -8.904   7.214   8.519  0.00  0.00    -0.040 C 
ATOM     52  H   UNL     1      -8.212   7.516   7.728  0.00  0.00    +0.028 HD
ATOM     53  H   UNL     1      -9.583   8.049   8.697  0.00  0.00    +0.028 HD
ATOM     54  H   UNL     1      -9.510   6.384   8.147  0.00  0.00    +0.028 HD
ENDBRANCH  21  51
BRANCH   2  55
ATOM     55  C   UNL     1     -10.956   4.112  17.162  0.00  0.00    -0.057 C 
ATOM     56  H   UNL     1     -10.405   3.521  17.901  0.00  0.00    +0.023 HD
ATOM     57  H   UNL     1     -11.918   3.639  16.989  0.00  0.00    +0.023 HD
ATOM     58  H   UNL     1     -11.193   5.077  17.615  0.00  0.00    +0.023 HD
ENDBRANCH   2  55
BRANCH   1  59
ATOM     59  C   UNL     1      -9.192   6.723  16.359  0.00  0.00    +0.020 C 
ATOM     60  H   UNL     1      -9.051   6.184  17.303  0.00  0.00    +0.036 HD
BRANCH  59  61
ATOM     61  C   UNL     1      -7.762   6.946  15.850  0.00  0.00    -0.057 C 
ATOM     62  H   UNL     1      -7.180   7.537  16.563  0.00  0.00    +0.023 HD
ATOM     63  H   UNL     1      -7.223   6.023  15.648  0.00  0.00    +0.023 HD
ATOM     64  H   UNL     1      -7.786   7.506  14.910  0.00  0.00    +0.023 HD
ENDBRANCH  59  61
BRANCH  59  65
ATOM     65  C   UNL     1      -9.866   8.073  16.743  0.00  0.00    +0.064 C 
ATOM     66  H   UNL     1      -9.249   8.885  16.336  0.00  0.00    +0.060 HD
BRANCH  65  67
ATOM     67  C   UNL     1     -10.001   8.343  18.268  0.00  0.00    -0.017 C 
ATOM     68  H   UNL     1     -11.057   8.386  18.542  0.00  0.00    +0.032 HD
BRANCH  67  69
ATOM     69  C   UNL     1      -9.350   7.213  19.079  0.00  0.00    -0.060 C 
ATOM     70  H   UNL     1      -9.328   6.281  18.500  0.00  0.00    +0.023 HD
ATOM     71  H   UNL     1      -9.908   7.023  20.002  0.00  0.00    +0.023 HD
ATOM     72  H   UNL     1      -8.316   7.436  19.349  0.00  0.00    +0.023 HD
ENDBRANCH  67  69
BRANCH  67  73
ATOM     73  C   UNL     1      -9.370   9.687  18.714  0.00  0.00    -0.046 C 
ATOM     74  H   UNL     1     -10.105  10.247  19.307  0.00  0.00    +0.027 HD
ATOM     75  H   UNL     1      -8.518   9.499  19.379  0.00  0.00    +0.027 HD
BRANCH  73  76
ATOM     76  C   UNL     1      -8.951  10.575  17.537  0.00  0.00    -0.026 C 
ATOM     77  H   UNL     1      -9.180  10.091  16.581  0.00  0.00    +0.029 HD
ATOM     78  H   UNL     1      -9.537  11.504  17.545  0.00  0.00    +0.029 HD
BRANCH  76  83
ATOM     79  C   UNL     1      -5.306   9.939  17.524  0.00  0.00    +0.059 C 
ATOM     80  C   UNL     1      -4.820  11.336  17.924  0.00  0.00    -0.000 C 
ATOM     81  C   UNL     1      -5.644  11.860  19.096  0.00  0.00    +0.063 C 
ATOM     82  C   UNL     1      -7.130  11.928  18.712  0.00  0.00    -0.000 C 
ATOM     83  C   UNL     1      -7.469  10.958  17.577  0.00  0.00    +0.061 C 
ATOM     84  O   UNL     1      -6.711   9.755  17.746  0.00  0.00    -0.373 OA
ATOM     85  H   UNL     1      -4.807   9.203  18.165  0.00  0.00    +0.059 HD
ATOM     86  H   UNL     1      -3.753  11.318  18.173  0.00  0.00    +0.032 HD
ATOM     87  H   UNL     1      -4.908  12.041  17.085  0.00  0.00    +0.032 HD
ATOM     88  H   UNL     1      -5.510  11.177  19.947  0.00  0.00    +0.060 HD
ATOM     89  H   UNL     1      -7.719  11.681  19.610  0.00  0.00    +0.032 HD
ATOM     90  H   UNL     1      -7.426  12.947  18.430  0.00  0.00    +0.032 HD
ATOM     91  H   UNL     1      -7.208  11.406  16.608  0.00  0.00    +0.060 HD
BRANCH  79  92
ATOM     92  C   UNL     1      -4.971   9.606  16.077  0.00  0.00    -0.039 C 
ATOM     93  H   UNL     1      -5.880   9.466  15.483  0.00  0.00    +0.025 HD
ATOM     94  H   UNL     1      -4.380  10.415  15.634  0.00  0.00    +0.025 HD
ATOM     95  H   UNL     1      -4.362   8.699  16.007  0.00  0.00    +0.025 HD
ENDBRANCH  79  92
BRANCH  81  96
ATOM     96  O   UNL     1      -5.144  13.154  19.450  0.00  0.00    -0.380 OA
BRANCH  96  97
ATOM     97  C   UNL     1      -4.816  13.951  18.318  0.00  0.00    +0.037 C 
ATOM     98  H   UNL     1      -5.352  13.549  17.454  0.00  0.00    +0.052 HD
ATOM     99  H   UNL     1      -3.743  13.906  18.113  0.00  0.00    +0.052 HD
ATOM    100  H   UNL     1      -5.131  14.989  18.464  0.00  0.00    +0.052 HD
ENDBRANCH  96  97
ENDBRANCH  81  96
ENDBRANCH  76  83
ENDBRANCH  73  76
ENDBRANCH  67  73
ENDBRANCH  65  67
BRANCH  65 101
ATOM    101  O   UNL     1     -11.134   8.194  16.113  0.00  0.00    -0.391 OA
ATOM    102  H   UNL     1     -11.443   7.301  15.886  0.00  0.00    +0.210 HD
ENDBRANCH  65 101
ENDBRANCH  59  65
ENDBRANCH   1  59
BRANCH  19 103
ATOM    103  O   UNL     1      -4.990   5.223   8.904  0.00  0.00    -0.385 OA
ATOM    104  H   UNL     1      -4.659   6.120   9.085  0.00  0.00    +0.210 HD
ENDBRANCH  19 103
BRANCH  18 105
ATOM    105  O   UNL     1      -8.208   4.048   7.583  0.00  0.00    -0.377 OA
BRANCH 105 106
ATOM    106  C   UNL     1      -9.301   3.419   8.242  0.00  0.00    +0.037 C 
ATOM    107  H   UNL     1      -9.593   2.511   7.704  0.00  0.00    +0.052 HD
ATOM    108  H   UNL     1     -10.156   4.096   8.325  0.00  0.00    +0.052 HD
ATOM    109  H   UNL     1      -8.981   3.138   9.249  0.00  0.00    +0.052 HD
ENDBRANCH 105 106
ENDBRANCH  18 105
BRANCH   9 110
ATOM    110  O   UNL     1      -8.468   0.070  14.834  0.00  0.00    -0.377 OA
BRANCH 110 111
ATOM    111  C   UNL     1      -8.032  -1.284  14.774  0.00  0.00    +0.037 C 
ATOM    112  H   UNL     1      -7.227  -1.417  15.504  0.00  0.00    +0.052 HD
ATOM    113  H   UNL     1      -7.633  -1.516  13.782  0.00  0.00    +0.052 HD
ATOM    114  H   UNL     1      -8.840  -1.972  15.030  0.00  0.00    +0.052 HD
ENDBRANCH 110 111
ENDBRANCH   9 110
BRANCH   5 115
ATOM    115  O   UNL     1     -11.452  -0.345  14.371  0.00  0.00    -0.377 OA
BRANCH 115 116
ATOM    116  C   UNL     1     -11.863  -0.339  15.730  0.00  0.00    +0.037 C 
ATOM    117  H   UNL     1     -11.208   0.340  16.278  0.00  0.00    +0.052 HD
ATOM    118  H   UNL     1     -12.891   0.010  15.832  0.00  0.00    +0.052 HD
ATOM    119  H   UNL     1     -11.762  -1.340  16.163  0.00  0.00    +0.052 HD
ENDBRANCH 115 116
ENDBRANCH   5 115
BRANCH   3 120
ATOM    120  O   UNL     1     -12.161   3.877  14.488  0.00  0.00    -0.379 OA
BRANCH 120 121
ATOM    121  C   UNL     1     -12.435   4.231  13.140  0.00  0.00    +0.037 C 
ATOM    122  H   UNL     1     -11.492   4.528  12.666  0.00  0.00    +0.052 HD
ATOM    123  H   UNL     1     -13.129   5.076  13.086  0.00  0.00    +0.052 HD
ATOM    124  H   UNL     1     -12.840   3.375  12.589  0.00  0.00    +0.052 HD
ENDBRANCH 120 121
ENDBRANCH   3 120
TORSDOF 23
ENDMDL
MODEL 7
REMARK VINA RESULT:      -5.7      4.676     10.681
REMARK  Name = Lobophorolide_conf1
REMARK  23 active torsions:
REMARK  status: ('A' for Active; 'I' for Inactive)
REMARK    1  A    between atoms: C_1  and  C_2
REMARK    2  A    between atoms: C_4  and  O_53
REMARK    3  A    between atoms: C_6  and  C_8
REMARK    4  A    between atoms: C_8  and  C_9
REMARK    5  A    between atoms: C_9  and  C_10
REMARK    6  A    between atoms: C_10  and  C_11
REMARK    7  A    between atoms: C_10  and  C_12
REMARK    8  A    between atoms: C_12  and  C_13
REMARK    9  A    between atoms: C_12  and  O_52
REMARK   10  A    between atoms: C_13  and  C_14
REMARK   11  A    between atoms: C_13  and  C_15
REMARK   12  A    between atoms: C_16  and  C_51
REMARK   13  A    between atoms: C_17  and  O_49
REMARK   14  A    between atoms: C_19  and  O_47
REMARK   15  A    between atoms: C_23  and  O_45
REMARK   16  A    between atoms: C_32  and  O_43
REMARK   17  A    between atoms: C_33  and  O_42
REMARK   18  A    between atoms: C_35  and  C_41
REMARK   19  A    between atoms: O_43  and  C_44
REMARK   20  A    between atoms: O_45  and  C_46
REMARK   21  A    between atoms: O_47  and  C_48
REMARK   22  A    between atoms: O_49  and  C_50
REMARK   23  A    between atoms: O_53  and  C_54
REMARK                            x       y       z     vdW  Elec       q    Type
REMARK                         _______ _______ _______ _____ _____    ______ ____
ROOT
ATOM      1  C   UNL     1     -11.780   8.661  22.092  0.00  0.00    +0.113 C 
ATOM      2  C   UNL     1     -11.686   7.537  21.013  0.00  0.00    +0.020 C 
ATOM      3  C   UNL     1     -11.888   8.120  19.562  0.00  0.00    +0.067 C 
ATOM      4  C   UNL     1     -11.702   7.029  18.489  0.00  0.00    +0.003 C 
ATOM      5  C   UNL     1     -11.412   7.555  17.076  0.00  0.00    +0.094 C 
ATOM      6  C   UNL     1     -10.022   8.154  16.825  0.00  0.00    +0.145 C 
ATOM      7  C   UNL     1      -9.914   8.933  15.520  0.00  0.00    +0.083 C 
ATOM      8  O   UNL     1     -10.020   9.598  16.783  0.00  0.00    -0.363 OA
ATOM      9  C   UNL     1      -8.787   7.575  17.528  0.00  0.00    +0.094 C 
ATOM     10  C   UNL     1      -7.427   7.833  16.848  0.00  0.00    +0.003 C 
ATOM     11  C   UNL     1      -6.839   9.252  16.881  0.00  0.00    +0.065 C 
ATOM     12  C   UNL     1      -5.392   9.195  16.336  0.00  0.00    -0.008 C 
ATOM     13  C   UNL     1      -4.584  10.399  16.699  0.00  0.00    -0.083 C 
ATOM     14  C   UNL     1      -5.026  11.270  17.614  0.00  0.00    -0.059 C 
ATOM     15  C   UNL     1      -6.346  11.122  18.327  0.00  0.00    +0.080 C 
ATOM     16  O   UNL     1      -6.849   9.767  18.216  0.00  0.00    -0.369 OA
ATOM     17  C   UNL     1      -7.394  12.134  17.837  0.00  0.00    +0.006 C 
ATOM     18  C   UNL     1      -7.049  13.626  18.039  0.00  0.00    +0.090 C 
ATOM     19  C   UNL     1      -6.864  14.080  19.518  0.00  0.00    +0.100 C 
ATOM     20  C   UNL     1      -7.875  13.481  20.452  0.00  0.00    -0.051 C 
ATOM     21  C   UNL     1      -9.101  13.948  20.755  0.00  0.00    -0.052 C 
ATOM     22  C   UNL     1     -10.026  13.129  21.524  0.00  0.00    -0.052 C 
ATOM     23  C   UNL     1     -10.220  11.835  21.240  0.00  0.00    +0.023 C 
ATOM     24  C   UNL     1     -11.188  10.997  21.967  0.00  0.00    +0.332 C 
ATOM     25  O   UNL     1     -12.073  11.393  22.702  0.00  0.00    -0.246 OA
ATOM     26  O   UNL     1     -10.903   9.718  21.628  0.00  0.00    -0.458 OA
ATOM     27  H   UNL     1     -12.805   9.053  22.073  0.00  0.00    +0.074 HD
ATOM     28  H   UNL     1     -10.666   7.135  21.019  0.00  0.00    +0.036 HD
ATOM     29  H   UNL     1     -11.150   8.915  19.391  0.00  0.00    +0.060 HD
ATOM     30  H   UNL     1     -12.625   6.437  18.434  0.00  0.00    +0.032 HD
ATOM     31  H   UNL     1     -10.931   6.324  18.799  0.00  0.00    +0.032 HD
ATOM     32  H   UNL     1     -12.153   8.332  16.846  0.00  0.00    +0.063 HD
ATOM     33  H   UNL     1      -8.983   8.982  14.977  0.00  0.00    +0.059 HD
ATOM     34  H   UNL     1     -10.776   8.967  14.862  0.00  0.00    +0.059 HD
ATOM     35  H   UNL     1      -8.778   7.962  18.555  0.00  0.00    +0.063 HD
ATOM     36  H   UNL     1      -6.692   7.180  17.336  0.00  0.00    +0.032 HD
ATOM     37  H   UNL     1      -7.464   7.475  15.810  0.00  0.00    +0.032 HD
ATOM     38  H   UNL     1      -7.430   9.912  16.243  0.00  0.00    +0.060 HD
ATOM     39  H   UNL     1      -4.856   8.329  16.745  0.00  0.00    +0.033 HD
ATOM     40  H   UNL     1      -5.417   9.076  15.246  0.00  0.00    +0.033 HD
ATOM     41  H   UNL     1      -3.610  10.537  16.239  0.00  0.00    +0.057 HD
ATOM     42  H   UNL     1      -4.408  12.120  17.894  0.00  0.00    +0.059 HD
ATOM     43  H   UNL     1      -6.170  11.259  19.399  0.00  0.00    +0.064 HD
ATOM     44  H   UNL     1      -7.580  11.987  16.764  0.00  0.00    +0.032 HD
ATOM     45  H   UNL     1      -8.368  11.903  18.291  0.00  0.00    +0.032 HD
ATOM     46  H   UNL     1      -6.122  13.831  17.489  0.00  0.00    +0.063 HD
ATOM     47  H   UNL     1      -6.891  15.171  19.583  0.00  0.00    +0.066 HD
ATOM     48  H   UNL     1      -7.567  12.516  20.862  0.00  0.00    +0.060 HD
ATOM     49  H   UNL     1     -10.595  13.617  22.310  0.00  0.00    +0.062 HD
ATOM     50  H   UNL     1      -9.687  11.342  20.434  0.00  0.00    +0.069 HD
ENDROOT
BRANCH  21  51
ATOM     51  C   UNL     1      -9.675  15.256  20.288  0.00  0.00    -0.040 C 
ATOM     52  H   UNL     1     -10.385  15.091  19.472  0.00  0.00    +0.028 HD
ATOM     53  H   UNL     1      -8.919  15.955  19.927  0.00  0.00    +0.028 HD
ATOM     54  H   UNL     1     -10.203  15.752  21.107  0.00  0.00    +0.028 HD
ENDBRANCH  21  51
BRANCH   2  55
ATOM     55  C   UNL     1     -12.668   6.393  21.292  0.00  0.00    -0.057 C 
ATOM     56  H   UNL     1     -12.823   5.771  20.403  0.00  0.00    +0.023 HD
ATOM     57  H   UNL     1     -13.632   6.773  21.618  0.00  0.00    +0.023 HD
ATOM     58  H   UNL     1     -12.333   5.742  22.101  0.00  0.00    +0.023 HD
ENDBRANCH   2  55
BRANCH   1  59
ATOM     59  C   UNL     1     -11.407   8.330  23.578  0.00  0.00    +0.020 C 
ATOM     60  H   UNL     1     -11.110   9.284  24.028  0.00  0.00    +0.036 HD
BRANCH  59  61
ATOM     61  C   UNL     1     -12.630   7.904  24.400  0.00  0.00    -0.057 C 
ATOM     62  H   UNL     1     -13.530   8.427  24.064  0.00  0.00    +0.023 HD
ATOM     63  H   UNL     1     -12.824   6.834  24.370  0.00  0.00    +0.023 HD
ATOM     64  H   UNL     1     -12.478   8.164  25.453  0.00  0.00    +0.023 HD
ENDBRANCH  59  61
BRANCH  59  65
ATOM     65  C   UNL     1     -10.209   7.364  23.815  0.00  0.00    +0.064 C 
ATOM     66  H   UNL     1     -10.279   6.553  23.077  0.00  0.00    +0.060 HD
BRANCH  65  67
ATOM     67  C   UNL     1     -10.163   6.686  25.212  0.00  0.00    -0.017 C 
ATOM     68  H   UNL     1     -10.944   7.106  25.851  0.00  0.00    +0.032 HD
BRANCH  67  69
ATOM     69  C   UNL     1     -10.414   5.176  25.091  0.00  0.00    -0.060 C 
ATOM     70  H   UNL     1     -10.394   4.861  24.040  0.00  0.00    +0.023 HD
ATOM     71  H   UNL     1     -11.393   4.909  25.505  0.00  0.00    +0.023 HD
ATOM     72  H   UNL     1      -9.656   4.585  25.608  0.00  0.00    +0.023 HD
ENDBRANCH  67  69
BRANCH  67  73
ATOM     73  C   UNL     1      -8.819   6.897  25.956  0.00  0.00    -0.046 C 
ATOM     74  H   UNL     1      -7.993   6.769  25.244  0.00  0.00    +0.027 HD
ATOM     75  H   UNL     1      -8.751   7.929  26.322  0.00  0.00    +0.027 HD
BRANCH  73  76
ATOM     76  C   UNL     1      -8.603   5.901  27.101  0.00  0.00    -0.026 C 
ATOM     77  H   UNL     1      -9.318   5.074  27.040  0.00  0.00    +0.029 HD
ATOM     78  H   UNL     1      -7.610   5.441  27.011  0.00  0.00    +0.029 HD
BRANCH  76  83
ATOM     79  C   UNL     1     -10.075   6.553  30.432  0.00  0.00    +0.059 C 
ATOM     80  C   UNL     1      -9.234   7.771  30.829  0.00  0.00    -0.000 C 
ATOM     81  C   UNL     1      -9.156   8.754  29.665  0.00  0.00    +0.063 C 
ATOM     82  C   UNL     1      -8.525   8.077  28.440  0.00  0.00    -0.000 C 
ATOM     83  C   UNL     1      -8.690   6.555  28.483  0.00  0.00    +0.061 C 
ATOM     84  O   UNL     1      -9.971   6.238  29.038  0.00  0.00    -0.373 OA
ATOM     85  H   UNL     1     -11.131   6.793  30.604  0.00  0.00    +0.059 HD
ATOM     86  H   UNL     1      -9.648   8.254  31.722  0.00  0.00    +0.032 HD
ATOM     87  H   UNL     1      -8.213   7.473  31.111  0.00  0.00    +0.032 HD
ATOM     88  H   UNL     1     -10.175   9.087  29.424  0.00  0.00    +0.060 HD
ATOM     89  H   UNL     1      -9.016   8.485  27.542  0.00  0.00    +0.032 HD
ATOM     90  H   UNL     1      -7.462   8.332  28.342  0.00  0.00    +0.032 HD
ATOM     91  H   UNL     1      -7.911   6.110  29.119  0.00  0.00    +0.060 HD
BRANCH  79  92
ATOM     92  C   UNL     1      -9.732   5.323  31.261  0.00  0.00    -0.039 C 
ATOM     93  H   UNL     1     -10.578   4.631  31.310  0.00  0.00    +0.025 HD
ATOM     94  H   UNL     1      -8.874   4.804  30.821  0.00  0.00    +0.025 HD
ATOM     95  H   UNL     1      -9.442   5.598  32.281  0.00  0.00    +0.025 HD
ENDBRANCH  79  92
BRANCH  81  96
ATOM     96  O   UNL     1      -8.381   9.883  30.085  0.00  0.00    -0.380 OA
BRANCH  96  97
ATOM     97  C   UNL     1      -8.063   9.853  31.472  0.00  0.00    +0.037 C 
ATOM     98  H   UNL     1      -8.554   8.982  31.913  0.00  0.00    +0.052 HD
ATOM     99  H   UNL     1      -8.435  10.752  31.972  0.00  0.00    +0.052 HD
ATOM    100  H   UNL     1      -6.984   9.754  31.624  0.00  0.00    +0.052 HD
ENDBRANCH  96  97
ENDBRANCH  81  96
ENDBRANCH  76  83
ENDBRANCH  73  76
ENDBRANCH  67  73
ENDBRANCH  65  67
BRANCH  65 101
ATOM    101  O   UNL     1      -8.977   8.024  23.552  0.00  0.00    -0.391 OA
ATOM    102  H   UNL     1      -8.363   7.810  24.275  0.00  0.00    +0.210 HD
ENDBRANCH  65 101
ENDBRANCH  59  65
ENDBRANCH   1  59
BRANCH  19 103
ATOM    103  O   UNL     1      -5.574  13.670  19.980  0.00  0.00    -0.385 OA
ATOM    104  H   UNL     1      -5.707  12.896  20.553  0.00  0.00    +0.210 HD
ENDBRANCH  19 103
BRANCH  18 105
ATOM    105  O   UNL     1      -8.119  14.373  17.427  0.00  0.00    -0.377 OA
BRANCH 105 106
ATOM    106  C   UNL     1      -9.138  13.547  16.876  0.00  0.00    +0.037 C 
ATOM    107  H   UNL     1      -9.018  12.517  17.228  0.00  0.00    +0.052 HD
ATOM    108  H   UNL     1      -9.123  13.574  15.784  0.00  0.00    +0.052 HD
ATOM    109  H   UNL     1     -10.107  13.919  17.219  0.00  0.00    +0.052 HD
ENDBRANCH 105 106
ENDBRANCH  18 105
BRANCH   9 110
ATOM    110  O   UNL     1      -8.929   6.139  17.564  0.00  0.00    -0.377 OA
BRANCH 110 111
ATOM    111  C   UNL     1      -8.245   5.467  16.511  0.00  0.00    +0.037 C 
ATOM    112  H   UNL     1      -7.718   4.608  16.939  0.00  0.00    +0.052 HD
ATOM    113  H   UNL     1      -7.503   6.126  16.052  0.00  0.00    +0.052 HD
ATOM    114  H   UNL     1      -8.944   5.096  15.759  0.00  0.00    +0.052 HD
ENDBRANCH 110 111
ENDBRANCH   9 110
BRANCH   5 115
ATOM    115  O   UNL     1     -11.591   6.490  16.121  0.00  0.00    -0.377 OA
BRANCH 115 116
ATOM    116  C   UNL     1     -12.870   6.498  15.504  0.00  0.00    +0.037 C 
ATOM    117  H   UNL     1     -13.625   6.500  16.291  0.00  0.00    +0.052 HD
ATOM    118  H   UNL     1     -13.007   7.387  14.887  0.00  0.00    +0.052 HD
ATOM    119  H   UNL     1     -13.006   5.596  14.898  0.00  0.00    +0.052 HD
ENDBRANCH 115 116
ENDBRANCH   5 115
BRANCH   3 120
ATOM    120  O   UNL     1     -13.232   8.621  19.454  0.00  0.00    -0.379 OA
BRANCH 120 121
ATOM    121  C   UNL     1     -13.303   9.969  19.013  0.00  0.00    +0.037 C 
ATOM    122  H   UNL     1     -14.193  10.428  19.460  0.00  0.00    +0.052 HD
ATOM    123  H   UNL     1     -13.396  10.024  17.924  0.00  0.00    +0.052 HD
ATOM    124  H   UNL     1     -12.423  10.533  19.345  0.00  0.00    +0.052 HD
ENDBRANCH 120 121
ENDBRANCH   3 120
TORSDOF 23
ENDMDL
MODEL 8
REMARK VINA RESULT:      -5.6      2.839      4.415
REMARK  Name = Lobophorolide_conf1
REMARK  23 active torsions:
REMARK  status: ('A' for Active; 'I' for Inactive)
REMARK    1  A    between atoms: C_1  and  C_2
REMARK    2  A    between atoms: C_4  and  O_53
REMARK    3  A    between atoms: C_6  and  C_8
REMARK    4  A    between atoms: C_8  and  C_9
REMARK    5  A    between atoms: C_9  and  C_10
REMARK    6  A    between atoms: C_10  and  C_11
REMARK    7  A    between atoms: C_10  and  C_12
REMARK    8  A    between atoms: C_12  and  C_13
REMARK    9  A    between atoms: C_12  and  O_52
REMARK   10  A    between atoms: C_13  and  C_14
REMARK   11  A    between atoms: C_13  and  C_15
REMARK   12  A    between atoms: C_16  and  C_51
REMARK   13  A    between atoms: C_17  and  O_49
REMARK   14  A    between atoms: C_19  and  O_47
REMARK   15  A    between atoms: C_23  and  O_45
REMARK   16  A    between atoms: C_32  and  O_43
REMARK   17  A    between atoms: C_33  and  O_42
REMARK   18  A    between atoms: C_35  and  C_41
REMARK   19  A    between atoms: O_43  and  C_44
REMARK   20  A    between atoms: O_45  and  C_46
REMARK   21  A    between atoms: O_47  and  C_48
REMARK   22  A    between atoms: O_49  and  C_50
REMARK   23  A    between atoms: O_53  and  C_54
REMARK                            x       y       z     vdW  Elec       q    Type
REMARK                         _______ _______ _______ _____ _____    ______ ____
ROOT
ATOM      1  C   UNL     1      -8.221  15.767  17.898  0.00  0.00    +0.113 C 
ATOM      2  C   UNL     1      -9.776  15.770  18.039  0.00  0.00    +0.020 C 
ATOM      3  C   UNL     1     -10.438  14.700  17.089  0.00  0.00    +0.067 C 
ATOM      4  C   UNL     1     -11.964  14.635  17.295  0.00  0.00    +0.003 C 
ATOM      5  C   UNL     1     -12.630  13.347  16.791  0.00  0.00    +0.094 C 
ATOM      6  C   UNL     1     -12.384  12.069  17.603  0.00  0.00    +0.145 C 
ATOM      7  C   UNL     1     -12.800  10.792  16.883  0.00  0.00    +0.083 C 
ATOM      8  O   UNL     1     -11.426  11.177  16.991  0.00  0.00    -0.363 OA
ATOM      9  C   UNL     1     -12.250  12.131  19.131  0.00  0.00    +0.094 C 
ATOM     10  C   UNL     1     -12.551  10.828  19.899  0.00  0.00    +0.003 C 
ATOM     11  C   UNL     1     -11.547   9.669  19.812  0.00  0.00    +0.065 C 
ATOM     12  C   UNL     1     -11.963   8.584  20.834  0.00  0.00    -0.008 C 
ATOM     13  C   UNL     1     -10.863   7.620  21.141  0.00  0.00    -0.083 C 
ATOM     14  C   UNL     1      -9.606   7.868  20.754  0.00  0.00    -0.059 C 
ATOM     15  C   UNL     1      -9.206   9.102  19.986  0.00  0.00    +0.080 C 
ATOM     16  O   UNL     1     -10.221  10.132  20.088  0.00  0.00    -0.369 OA
ATOM     17  C   UNL     1      -8.886   8.797  18.514  0.00  0.00    +0.006 C 
ATOM     18  C   UNL     1      -7.712   7.826  18.257  0.00  0.00    +0.090 C 
ATOM     19  C   UNL     1      -6.321   8.298  18.774  0.00  0.00    +0.100 C 
ATOM     20  C   UNL     1      -6.064   9.758  18.532  0.00  0.00    -0.051 C 
ATOM     21  C   UNL     1      -5.541  10.335  17.433  0.00  0.00    -0.052 C 
ATOM     22  C   UNL     1      -5.554  11.783  17.291  0.00  0.00    -0.052 C 
ATOM     23  C   UNL     1      -6.649  12.505  17.560  0.00  0.00    +0.023 C 
ATOM     24  C   UNL     1      -6.707  13.964  17.375  0.00  0.00    +0.332 C 
ATOM     25  O   UNL     1      -5.911  14.641  16.750  0.00  0.00    -0.246 OA
ATOM     26  O   UNL     1      -7.824  14.378  18.015  0.00  0.00    -0.458 OA
ATOM     27  H   UNL     1      -7.982  16.092  16.877  0.00  0.00    +0.074 HD
ATOM     28  H   UNL     1     -10.033  15.447  19.054  0.00  0.00    +0.036 HD
ATOM     29  H   UNL     1     -10.008  13.713  17.308  0.00  0.00    +0.060 HD
ATOM     30  H   UNL     1     -12.422  15.473  16.753  0.00  0.00    +0.032 HD
ATOM     31  H   UNL     1     -12.210  14.807  18.343  0.00  0.00    +0.032 HD
ATOM     32  H   UNL     1     -12.277  13.161  15.768  0.00  0.00    +0.063 HD
ATOM     33  H   UNL     1     -13.149   9.932  17.434  0.00  0.00    +0.059 HD
ATOM     34  H   UNL     1     -13.269  10.874  15.909  0.00  0.00    +0.059 HD
ATOM     35  H   UNL     1     -11.236  12.484  19.361  0.00  0.00    +0.063 HD
ATOM     36  H   UNL     1     -12.631  11.091  20.962  0.00  0.00    +0.032 HD
ATOM     37  H   UNL     1     -13.553  10.468  19.630  0.00  0.00    +0.032 HD
ATOM     38  H   UNL     1     -11.569   9.236  18.810  0.00  0.00    +0.060 HD
ATOM     39  H   UNL     1     -12.250   9.039  21.790  0.00  0.00    +0.033 HD
ATOM     40  H   UNL     1     -12.839   8.044  20.456  0.00  0.00    +0.033 HD
ATOM     41  H   UNL     1     -11.090   6.730  21.722  0.00  0.00    +0.057 HD
ATOM     42  H   UNL     1      -8.812   7.175  21.020  0.00  0.00    +0.059 HD
ATOM     43  H   UNL     1      -8.328   9.537  20.475  0.00  0.00    +0.064 HD
ATOM     44  H   UNL     1      -9.771   8.373  18.020  0.00  0.00    +0.032 HD
ATOM     45  H   UNL     1      -8.726   9.739  17.970  0.00  0.00    +0.032 HD
ATOM     46  H   UNL     1      -7.960   6.870  18.737  0.00  0.00    +0.063 HD
ATOM     47  H   UNL     1      -5.527   7.697  18.325  0.00  0.00    +0.066 HD
ATOM     48  H   UNL     1      -6.422  10.401  19.340  0.00  0.00    +0.060 HD
ATOM     49  H   UNL     1      -4.655  12.259  16.910  0.00  0.00    +0.062 HD
ATOM     50  H   UNL     1      -7.566  12.041  17.906  0.00  0.00    +0.069 HD
ENDROOT
BRANCH  21  51
ATOM     51  C   UNL     1      -4.994   9.601  16.240  0.00  0.00    -0.040 C 
ATOM     52  H   UNL     1      -4.064   9.090  16.501  0.00  0.00    +0.028 HD
ATOM     53  H   UNL     1      -4.782  10.254  15.392  0.00  0.00    +0.028 HD
ATOM     54  H   UNL     1      -5.713   8.853  15.894  0.00  0.00    +0.028 HD
ENDBRANCH  21  51
BRANCH   2  55
ATOM     55  C   UNL     1     -10.370  17.164  17.801  0.00  0.00    -0.057 C 
ATOM     56  H   UNL     1     -11.319  17.293  18.334  0.00  0.00    +0.023 HD
ATOM     57  H   UNL     1     -10.541  17.344  16.743  0.00  0.00    +0.023 HD
ATOM     58  H   UNL     1      -9.697  17.964  18.118  0.00  0.00    +0.023 HD
ENDBRANCH   2  55
BRANCH   1  59
ATOM     59  C   UNL     1      -7.360  16.611  18.899  0.00  0.00    +0.020 C 
ATOM     60  H   UNL     1      -6.403  16.083  18.982  0.00  0.00    +0.036 HD
BRANCH  59  61
ATOM     61  C   UNL     1      -6.973  17.978  18.319  0.00  0.00    -0.057 C 
ATOM     62  H   UNL     1      -7.279  18.060  17.272  0.00  0.00    +0.023 HD
ATOM     63  H   UNL     1      -7.394  18.818  18.868  0.00  0.00    +0.023 HD
ATOM     64  H   UNL     1      -5.886  18.099  18.349  0.00  0.00    +0.023 HD
ENDBRANCH  59  61
BRANCH  59  65
ATOM     65  C   UNL     1      -7.890  16.750  20.356  0.00  0.00    +0.064 C 
ATOM     66  H   UNL     1      -8.958  17.003  20.303  0.00  0.00    +0.060 HD
BRANCH  65  67
ATOM     67  C   UNL     1      -7.216  17.860  21.210  0.00  0.00    -0.017 C 
ATOM     68  H   UNL     1      -6.804  18.630  20.553  0.00  0.00    +0.032 HD
BRANCH  67  69
ATOM     69  C   UNL     1      -8.242  18.530  22.136  0.00  0.00    -0.060 C 
ATOM     70  H   UNL     1      -9.160  18.775  21.587  0.00  0.00    +0.023 HD
ATOM     71  H   UNL     1      -7.841  19.460  22.554  0.00  0.00    +0.023 HD
ATOM     72  H   UNL     1      -8.536  17.885  22.966  0.00  0.00    +0.023 HD
ENDBRANCH  67  69
BRANCH  67  73
ATOM     73  C   UNL     1      -6.042  17.341  22.079  0.00  0.00    -0.046 C 
ATOM     74  H   UNL     1      -6.017  17.908  23.019  0.00  0.00    +0.027 HD
ATOM     75  H   UNL     1      -6.214  16.294  22.356  0.00  0.00    +0.027 HD
BRANCH  73  76
ATOM     76  C   UNL     1      -4.676  17.504  21.403  0.00  0.00    -0.026 C 
ATOM     77  H   UNL     1      -4.641  18.423  20.808  0.00  0.00    +0.029 HD
ATOM     78  H   UNL     1      -3.894  17.615  22.165  0.00  0.00    +0.029 HD
BRANCH  76  83
ATOM     79  C   UNL     1      -3.875  13.961  20.698  0.00  0.00    +0.059 C 
ATOM     80  C   UNL     1      -3.367  14.114  19.260  0.00  0.00    -0.000 C 
ATOM     81  C   UNL     1      -2.406  15.295  19.169  0.00  0.00    +0.063 C 
ATOM     82  C   UNL     1      -3.113  16.589  19.600  0.00  0.00    -0.000 C 
ATOM     83  C   UNL     1      -4.301  16.308  20.523  0.00  0.00    +0.061 C 
ATOM     84  O   UNL     1      -3.975  15.214  21.388  0.00  0.00    -0.373 OA
ATOM     85  H   UNL     1      -3.143  13.371  21.261  0.00  0.00    +0.059 HD
ATOM     86  H   UNL     1      -2.885  13.190  18.919  0.00  0.00    +0.032 HD
ATOM     87  H   UNL     1      -4.200  14.279  18.561  0.00  0.00    +0.032 HD
ATOM     88  H   UNL     1      -1.552  15.099  19.831  0.00  0.00    +0.060 HD
ATOM     89  H   UNL     1      -2.372  17.219  20.118  0.00  0.00    +0.032 HD
ATOM     90  H   UNL     1      -3.447  17.173  18.732  0.00  0.00    +0.032 HD
ATOM     91  H   UNL     1      -5.184  16.035  19.928  0.00  0.00    +0.060 HD
BRANCH  79  92
ATOM     92  C   UNL     1      -5.212  13.237  20.760  0.00  0.00    -0.039 C 
ATOM     93  H   UNL     1      -6.045  13.946  20.798  0.00  0.00    +0.025 HD
ATOM     94  H   UNL     1      -5.333  12.596  19.881  0.00  0.00    +0.025 HD
ATOM     95  H   UNL     1      -5.270  12.581  21.636  0.00  0.00    +0.025 HD
ENDBRANCH  79  92
BRANCH  81  96
ATOM     96  O   UNL     1      -1.941  15.389  17.817  0.00  0.00    -0.380 OA
BRANCH  96  97
ATOM     97  C   UNL     1      -0.600  14.940  17.660  0.00  0.00    +0.037 C 
ATOM     98  H   UNL     1      -0.628  13.886  17.373  0.00  0.00    +0.052 HD
ATOM     99  H   UNL     1      -0.050  15.030  18.601  0.00  0.00    +0.052 HD
ATOM    100  H   UNL     1      -0.091  15.498  16.868  0.00  0.00    +0.052 HD
ENDBRANCH  96  97
ENDBRANCH  81  96
ENDBRANCH  76  83
ENDBRANCH  73  76
ENDBRANCH  67  73
ENDBRANCH  65  67
BRANCH  65 101
ATOM    101  O   UNL     1      -7.819  15.503  21.034  0.00  0.00    -0.391 OA
ATOM    102  H   UNL     1      -8.181  15.627  21.928  0.00  0.00    +0.210 HD
ENDBRANCH  65 101
ENDBRANCH  59  65
ENDBRANCH   1  59
BRANCH  19 103
ATOM    103  O   UNL     1      -6.246   8.091  20.187  0.00  0.00    -0.385 OA
ATOM    104  H   UNL     1      -6.166   8.967  20.602  0.00  0.00    +0.210 HD
ENDBRANCH  19 103
BRANCH  18 105
ATOM    105  O   UNL     1      -7.662   7.623  16.831  0.00  0.00    -0.377 OA
BRANCH 105 106
ATOM    106  C   UNL     1      -7.825   6.261  16.452  0.00  0.00    +0.037 C 
ATOM    107  H   UNL     1      -8.279   6.200  15.457  0.00  0.00    +0.052 HD
ATOM    108  H   UNL     1      -8.436   5.718  17.177  0.00  0.00    +0.052 HD
ATOM    109  H   UNL     1      -6.838   5.793  16.411  0.00  0.00    +0.052 HD
ENDBRANCH 105 106
ENDBRANCH  18 105
BRANCH   9 110
ATOM    110  O   UNL     1     -13.209  13.093  19.621  0.00  0.00    -0.377 OA
BRANCH 110 111
ATOM    111  C   UNL     1     -14.379  12.505  20.180  0.00  0.00    +0.037 C 
ATOM    112  H   UNL     1     -14.449  12.811  21.228  0.00  0.00    +0.052 HD
ATOM    113  H   UNL     1     -14.314  11.413  20.149  0.00  0.00    +0.052 HD
ATOM    114  H   UNL     1     -15.278  12.848  19.665  0.00  0.00    +0.052 HD
ENDBRANCH 110 111
ENDBRANCH   9 110
BRANCH   5 115
ATOM    115  O   UNL     1     -14.058  13.537  16.728  0.00  0.00    -0.377 OA
BRANCH 115 116
ATOM    116  C   UNL     1     -14.448  14.899  16.826  0.00  0.00    +0.037 C 
ATOM    117  H   UNL     1     -14.072  15.423  15.946  0.00  0.00    +0.052 HD
ATOM    118  H   UNL     1     -15.534  14.999  16.853  0.00  0.00    +0.052 HD
ATOM    119  H   UNL     1     -14.006  15.359  17.716  0.00  0.00    +0.052 HD
ENDBRANCH 115 116
ENDBRANCH   5 115
BRANCH   3 120
ATOM    120  O   UNL     1     -10.192  15.086  15.725  0.00  0.00    -0.379 OA
BRANCH 120 121
ATOM    121  C   UNL     1     -10.082  13.986  14.833  0.00  0.00    +0.037 C 
ATOM    122  H   UNL     1      -9.980  13.072  15.429  0.00  0.00    +0.052 HD
ATOM    123  H   UNL     1      -9.198  14.082  14.195  0.00  0.00    +0.052 HD
ATOM    124  H   UNL     1     -10.983  13.895  14.217  0.00  0.00    +0.052 HD
ENDBRANCH 120 121
ENDBRANCH   3 120
TORSDOF 23
ENDMDL
MODEL 9
REMARK VINA RESULT:      -5.6      4.022      5.976
REMARK  Name = Lobophorolide_conf1
REMARK  23 active torsions:
REMARK  status: ('A' for Active; 'I' for Inactive)
REMARK    1  A    between atoms: C_1  and  C_2
REMARK    2  A    between atoms: C_4  and  O_53
REMARK    3  A    between atoms: C_6  and  C_8
REMARK    4  A    between atoms: C_8  and  C_9
REMARK    5  A    between atoms: C_9  and  C_10
REMARK    6  A    between atoms: C_10  and  C_11
REMARK    7  A    between atoms: C_10  and  C_12
REMARK    8  A    between atoms: C_12  and  C_13
REMARK    9  A    between atoms: C_12  and  O_52
REMARK   10  A    between atoms: C_13  and  C_14
REMARK   11  A    between atoms: C_13  and  C_15
REMARK   12  A    between atoms: C_16  and  C_51
REMARK   13  A    between atoms: C_17  and  O_49
REMARK   14  A    between atoms: C_19  and  O_47
REMARK   15  A    between atoms: C_23  and  O_45
REMARK   16  A    between atoms: C_32  and  O_43
REMARK   17  A    between atoms: C_33  and  O_42
REMARK   18  A    between atoms: C_35  and  C_41
REMARK   19  A    between atoms: O_43  and  C_44
REMARK   20  A    between atoms: O_45  and  C_46
REMARK   21  A    between atoms: O_47  and  C_48
REMARK   22  A    between atoms: O_49  and  C_50
REMARK   23  A    between atoms: O_53  and  C_54
REMARK                            x       y       z     vdW  Elec       q    Type
REMARK                         _______ _______ _______ _____ _____    ______ ____
ROOT
ATOM      1  C   UNL     1      -6.982  15.367  20.586  0.00  0.00    +0.113 C 
ATOM      2  C   UNL     1      -8.517  15.623  20.722  0.00  0.00    +0.020 C 
ATOM      3  C   UNL     1      -9.284  15.204  19.410  0.00  0.00    +0.067 C 
ATOM      4  C   UNL     1     -10.808  15.367  19.576  0.00  0.00    +0.003 C 
ATOM      5  C   UNL     1     -11.657  14.570  18.576  0.00  0.00    +0.094 C 
ATOM      6  C   UNL     1     -11.716  13.049  18.768  0.00  0.00    +0.145 C 
ATOM      7  C   UNL     1     -12.301  12.301  17.575  0.00  0.00    +0.083 C 
ATOM      8  O   UNL     1     -10.893  12.321  17.830  0.00  0.00    -0.363 OA
ATOM      9  C   UNL     1     -11.698  12.440  20.176  0.00  0.00    +0.094 C 
ATOM     10  C   UNL     1     -12.295  11.025  20.320  0.00  0.00    +0.003 C 
ATOM     11  C   UNL     1     -11.518   9.832  19.744  0.00  0.00    +0.065 C 
ATOM     12  C   UNL     1     -12.208   8.528  20.210  0.00  0.00    -0.008 C 
ATOM     13  C   UNL     1     -11.333   7.324  20.074  0.00  0.00    -0.083 C 
ATOM     14  C   UNL     1     -10.025   7.453  19.823  0.00  0.00    -0.059 C 
ATOM     15  C   UNL     1      -9.343   8.786  19.650  0.00  0.00    +0.080 C 
ATOM     16  O   UNL     1     -10.156   9.861  20.184  0.00  0.00    -0.369 OA
ATOM     17  C   UNL     1      -8.965   9.066  18.186  0.00  0.00    +0.006 C 
ATOM     18  C   UNL     1      -7.974   8.075  17.536  0.00  0.00    +0.090 C 
ATOM     19  C   UNL     1      -6.566   7.999  18.199  0.00  0.00    +0.100 C 
ATOM     20  C   UNL     1      -6.027   9.342  18.598  0.00  0.00    -0.051 C 
ATOM     21  C   UNL     1      -5.318  10.207  17.846  0.00  0.00    -0.052 C 
ATOM     22  C   UNL     1      -5.053  11.551  18.333  0.00  0.00    -0.052 C 
ATOM     23  C   UNL     1      -6.015  12.300  18.888  0.00  0.00    +0.023 C 
ATOM     24  C   UNL     1      -5.788  13.682  19.340  0.00  0.00    +0.332 C 
ATOM     25  O   UNL     1      -4.834  14.383  19.058  0.00  0.00    -0.246 OA
ATOM     26  O   UNL     1      -6.859  14.007  20.101  0.00  0.00    -0.458 OA
ATOM     27  H   UNL     1      -6.605  16.032  19.799  0.00  0.00    +0.074 HD
ATOM     28  H   UNL     1      -8.911  14.965  21.505  0.00  0.00    +0.036 HD
ATOM     29  H   UNL     1      -9.063  14.151  19.188  0.00  0.00    +0.060 HD
ATOM     30  H   UNL     1     -11.059  16.428  19.444  0.00  0.00    +0.032 HD
ATOM     31  H   UNL     1     -11.102  15.132  20.599  0.00  0.00    +0.032 HD
ATOM     32  H   UNL     1     -11.261  14.760  17.570  0.00  0.00    +0.063 HD
ATOM     33  H   UNL     1     -12.846  11.379  17.710  0.00  0.00    +0.059 HD
ATOM     34  H   UNL     1     -12.665  12.874  16.730  0.00  0.00    +0.059 HD
ATOM     35  H   UNL     1     -10.659  12.453  20.530  0.00  0.00    +0.063 HD
ATOM     36  H   UNL     1     -12.412  10.832  21.394  0.00  0.00    +0.032 HD
ATOM     37  H   UNL     1     -13.321  11.020  19.928  0.00  0.00    +0.032 HD
ATOM     38  H   UNL     1     -11.537   9.870  18.653  0.00  0.00    +0.060 HD
ATOM     39  H   UNL     1     -12.483   8.591  21.271  0.00  0.00    +0.033 HD
ATOM     40  H   UNL     1     -13.135   8.383  19.643  0.00  0.00    +0.033 HD
ATOM     41  H   UNL     1     -11.766   6.339  20.222  0.00  0.00    +0.057 HD
ATOM     42  H   UNL     1      -9.395   6.568  19.766  0.00  0.00    +0.059 HD
ATOM     43  H   UNL     1      -8.443   8.792  20.274  0.00  0.00    +0.064 HD
ATOM     44  H   UNL     1      -9.870   9.073  17.563  0.00  0.00    +0.032 HD
ATOM     45  H   UNL     1      -8.592  10.095  18.094  0.00  0.00    +0.032 HD
ATOM     46  H   UNL     1      -8.432   7.078  17.566  0.00  0.00    +0.063 HD
ATOM     47  H   UNL     1      -5.863   7.493  17.532  0.00  0.00    +0.066 HD
ATOM     48  H   UNL     1      -6.324   9.647  19.604  0.00  0.00    +0.060 HD
ATOM     49  H   UNL     1      -4.054  11.952  18.186  0.00  0.00    +0.062 HD
ATOM     50  H   UNL     1      -7.027  11.929  19.008  0.00  0.00    +0.069 HD
ENDROOT
BRANCH  21  51
ATOM     51  C   UNL     1      -4.821   9.944  16.452  0.00  0.00    -0.040 C 
ATOM     52  H   UNL     1      -5.008  10.810  15.811  0.00  0.00    +0.028 HD
ATOM     53  H   UNL     1      -5.292   9.080  15.981  0.00  0.00    +0.028 HD
ATOM     54  H   UNL     1      -3.744   9.752  16.464  0.00  0.00    +0.028 HD
ENDBRANCH  21  51
BRANCH   2  55
ATOM     55  C   UNL     1      -8.822  17.077  21.101  0.00  0.00    -0.057 C 
ATOM     56  H   UNL     1      -9.493  17.135  21.966  0.00  0.00    +0.023 HD
ATOM     57  H   UNL     1      -9.280  17.612  20.274  0.00  0.00    +0.023 HD
ATOM     58  H   UNL     1      -7.921  17.645  21.340  0.00  0.00    +0.023 HD
ENDBRANCH   2  55
BRANCH   1  59
ATOM     59  C   UNL     1      -6.065  15.524  21.847  0.00  0.00    +0.020 C 
ATOM     60  H   UNL     1      -6.720  15.892  22.645  0.00  0.00    +0.036 HD
BRANCH  59  61
ATOM     61  C   UNL     1      -5.570  14.171  22.374  0.00  0.00    -0.057 C 
ATOM     62  H   UNL     1      -5.437  14.199  23.459  0.00  0.00    +0.023 HD
ATOM     63  H   UNL     1      -6.230  13.341  22.130  0.00  0.00    +0.023 HD
ATOM     64  H   UNL     1      -4.596  13.936  21.934  0.00  0.00    +0.023 HD
ENDBRANCH  59  61
BRANCH  59  65
ATOM     65  C   UNL     1      -4.897  16.551  21.756  0.00  0.00    +0.064 C 
ATOM     66  H   UNL     1      -3.983  16.052  22.104  0.00  0.00    +0.060 HD
BRANCH  65  67
ATOM     67  C   UNL     1      -5.061  17.828  22.626  0.00  0.00    -0.017 C 
ATOM     68  H   UNL     1      -4.179  17.959  23.257  0.00  0.00    +0.032 HD
BRANCH  67  69
ATOM     69  C   UNL     1      -5.195  19.075  21.740  0.00  0.00    -0.060 C 
ATOM     70  H   UNL     1      -4.467  19.841  22.034  0.00  0.00    +0.023 HD
ATOM     71  H   UNL     1      -6.197  19.510  21.827  0.00  0.00    +0.023 HD
ATOM     72  H   UNL     1      -5.012  18.858  20.686  0.00  0.00    +0.023 HD
ENDBRANCH  67  69
BRANCH  67  73
ATOM     73  C   UNL     1      -6.285  17.774  23.577  0.00  0.00    -0.046 C 
ATOM     74  H   UNL     1      -6.786  18.750  23.568  0.00  0.00    +0.027 HD
ATOM     75  H   UNL     1      -7.018  17.049  23.204  0.00  0.00    +0.027 HD
BRANCH  73  76
ATOM     76  C   UNL     1      -5.904  17.460  25.028  0.00  0.00    -0.026 C 
ATOM     77  H   UNL     1      -4.921  16.981  25.080  0.00  0.00    +0.029 HD
ATOM     78  H   UNL     1      -5.808  18.394  25.598  0.00  0.00    +0.029 HD
BRANCH  76  83
ATOM     79  C   UNL     1      -8.588  14.922  25.249  0.00  0.00    +0.059 C 
ATOM     80  C   UNL     1      -9.022  15.162  26.699  0.00  0.00    -0.000 C 
ATOM     81  C   UNL     1      -9.168  16.658  26.959  0.00  0.00    +0.063 C 
ATOM     82  C   UNL     1      -7.833  17.374  26.703  0.00  0.00    -0.000 C 
ATOM     83  C   UNL     1      -6.941  16.586  25.740  0.00  0.00    +0.061 C 
ATOM     84  O   UNL     1      -7.760  15.975  24.736  0.00  0.00    -0.373 OA
ATOM     85  H   UNL     1      -9.483  14.915  24.617  0.00  0.00    +0.059 HD
ATOM     86  H   UNL     1      -9.959  14.635  26.914  0.00  0.00    +0.032 HD
ATOM     87  H   UNL     1      -8.290  14.748  27.406  0.00  0.00    +0.032 HD
ATOM     88  H   UNL     1      -9.938  17.055  26.284  0.00  0.00    +0.060 HD
ATOM     89  H   UNL     1      -8.060  18.366  26.282  0.00  0.00    +0.032 HD
ATOM     90  H   UNL     1      -7.291  17.562  27.639  0.00  0.00    +0.032 HD
ATOM     91  H   UNL     1      -6.403  15.797  26.284  0.00  0.00    +0.060 HD
BRANCH  79  92
ATOM     92  C   UNL     1      -7.879  13.586  25.076  0.00  0.00    -0.039 C 
ATOM     93  H   UNL     1      -8.517  12.864  24.557  0.00  0.00    +0.025 HD
ATOM     94  H   UNL     1      -6.958  13.723  24.501  0.00  0.00    +0.025 HD
ATOM     95  H   UNL     1      -7.584  13.163  26.043  0.00  0.00    +0.025 HD
ENDBRANCH  79  92
BRANCH  81  96
ATOM     96  O   UNL     1      -9.595  16.836  28.315  0.00  0.00    -0.380 OA
BRANCH  96  97
ATOM     97  C   UNL     1     -10.604  15.913  28.704  0.00  0.00    +0.037 C 
ATOM     98  H   UNL     1     -11.504  16.131  28.123  0.00  0.00    +0.052 HD
ATOM     99  H   UNL     1     -10.841  16.026  29.766  0.00  0.00    +0.052 HD
ATOM    100  H   UNL     1     -10.298  14.884  28.492  0.00  0.00    +0.052 HD
ENDBRANCH  96  97
ENDBRANCH  81  96
ENDBRANCH  76  83
ENDBRANCH  73  76
ENDBRANCH  67  73
ENDBRANCH  65  67
BRANCH  65 101
ATOM    101  O   UNL     1      -4.653  16.910  20.403  0.00  0.00    -0.391 OA
ATOM    102  H   UNL     1      -4.214  17.778  20.398  0.00  0.00    +0.210 HD
ENDBRANCH  65 101
ENDBRANCH  59  65
ENDBRANCH   1  59
BRANCH  19 103
ATOM    103  O   UNL     1      -6.646   7.211  19.390  0.00  0.00    -0.385 OA
ATOM    104  H   UNL     1      -5.756   6.858  19.561  0.00  0.00    +0.210 HD
ENDBRANCH  19 103
BRANCH  18 105
ATOM    105  O   UNL     1      -7.846   8.480  16.159  0.00  0.00    -0.377 OA
BRANCH 105 106
ATOM    106  C   UNL     1      -8.735   9.529  15.796  0.00  0.00    +0.037 C 
ATOM    107  H   UNL     1      -8.695  10.330  16.542  0.00  0.00    +0.052 HD
ATOM    108  H   UNL     1      -9.760   9.163  15.694  0.00  0.00    +0.052 HD
ATOM    109  H   UNL     1      -8.414   9.936  14.833  0.00  0.00    +0.052 HD
ENDBRANCH 105 106
ENDBRANCH  18 105
BRANCH   9 110
ATOM    110  O   UNL     1     -12.500  13.281  21.033  0.00  0.00    -0.377 OA
BRANCH 110 111
ATOM    111  C   UNL     1     -13.815  12.783  21.260  0.00  0.00    +0.037 C 
ATOM    112  H   UNL     1     -13.775  11.689  21.241  0.00  0.00    +0.052 HD
ATOM    113  H   UNL     1     -14.493  13.111  20.467  0.00  0.00    +0.052 HD
ATOM    114  H   UNL     1     -14.192  13.092  22.236  0.00  0.00    +0.052 HD
ENDBRANCH 110 111
ENDBRANCH   9 110
BRANCH   5 115
ATOM    115  O   UNL     1     -13.015  15.052  18.606  0.00  0.00    -0.377 OA
BRANCH 115 116
ATOM    116  C   UNL     1     -13.117  16.455  18.411  0.00  0.00    +0.037 C 
ATOM    117  H   UNL     1     -13.004  16.940  19.381  0.00  0.00    +0.052 HD
ATOM    118  H   UNL     1     -12.335  16.820  17.745  0.00  0.00    +0.052 HD
ATOM    119  H   UNL     1     -14.103  16.712  18.010  0.00  0.00    +0.052 HD
ENDBRANCH 115 116
ENDBRANCH   5 115
BRANCH   3 120
ATOM    120  O   UNL     1      -8.862  16.066  18.339  0.00  0.00    -0.379 OA
BRANCH 120 121
ATOM    121  C   UNL     1      -8.379  15.365  17.202  0.00  0.00    +0.037 C 
ATOM    122  H   UNL     1      -7.656  14.615  17.544  0.00  0.00    +0.052 HD
ATOM    123  H   UNL     1      -7.872  16.041  16.506  0.00  0.00    +0.052 HD
ATOM    124  H   UNL     1      -9.197  14.844  16.691  0.00  0.00    +0.052 HD
ENDBRANCH 120 121
ENDBRANCH   3 120
TORSDOF 23
ENDMDL
MODEL 10
REMARK VINA RESULT:      -5.5      3.636      6.310
REMARK  Name = Lobophorolide_conf1
REMARK  23 active torsions:
REMARK  status: ('A' for Active; 'I' for Inactive)
REMARK    1  A    between atoms: C_1  and  C_2
REMARK    2  A    between atoms: C_4  and  O_53
REMARK    3  A    between atoms: C_6  and  C_8
REMARK    4  A    between atoms: C_8  and  C_9
REMARK    5  A    between atoms: C_9  and  C_10
REMARK    6  A    between atoms: C_10  and  C_11
REMARK    7  A    between atoms: C_10  and  C_12
REMARK    8  A    between atoms: C_12  and  C_13
REMARK    9  A    between atoms: C_12  and  O_52
REMARK   10  A    between atoms: C_13  and  C_14
REMARK   11  A    between atoms: C_13  and  C_15
REMARK   12  A    between atoms: C_16  and  C_51
REMARK   13  A    between atoms: C_17  and  O_49
REMARK   14  A    between atoms: C_19  and  O_47
REMARK   15  A    between atoms: C_23  and  O_45
REMARK   16  A    between atoms: C_32  and  O_43
REMARK   17  A    between atoms: C_33  and  O_42
REMARK   18  A    between atoms: C_35  and  C_41
REMARK   19  A    between atoms: O_43  and  C_44
REMARK   20  A    between atoms: O_45  and  C_46
REMARK   21  A    between atoms: O_47  and  C_48
REMARK   22  A    between atoms: O_49  and  C_50
REMARK   23  A    between atoms: O_53  and  C_54
REMARK                            x       y       z     vdW  Elec       q    Type
REMARK                         _______ _______ _______ _____ _____    ______ ____
ROOT
ATOM      1  C   UNL     1      -6.127  15.734  19.748  0.00  0.00    +0.113 C 
ATOM      2  C   UNL     1      -7.574  16.135  20.174  0.00  0.00    +0.020 C 
ATOM      3  C   UNL     1      -8.643  15.580  19.156  0.00  0.00    +0.067 C 
ATOM      4  C   UNL     1     -10.078  15.894  19.623  0.00  0.00    +0.003 C 
ATOM      5  C   UNL     1     -11.170  15.023  18.988  0.00  0.00    +0.094 C 
ATOM      6  C   UNL     1     -11.253  13.562  19.446  0.00  0.00    +0.145 C 
ATOM      7  C   UNL     1     -12.131  12.687  18.559  0.00  0.00    +0.083 C 
ATOM      8  O   UNL     1     -10.703  12.629  18.489  0.00  0.00    -0.363 OA
ATOM      9  C   UNL     1     -10.936  13.182  20.899  0.00  0.00    +0.094 C 
ATOM     10  C   UNL     1     -11.547  11.862  21.412  0.00  0.00    +0.003 C 
ATOM     11  C   UNL     1     -10.979  10.533  20.892  0.00  0.00    +0.065 C 
ATOM     12  C   UNL     1     -11.601   9.380  21.717  0.00  0.00    -0.008 C 
ATOM     13  C   UNL     1     -10.837   8.101  21.599  0.00  0.00    -0.083 C 
ATOM     14  C   UNL     1      -9.618   8.079  21.047  0.00  0.00    -0.059 C 
ATOM     15  C   UNL     1      -8.936   9.307  20.502  0.00  0.00    +0.080 C 
ATOM     16  O   UNL     1      -9.553  10.516  21.009  0.00  0.00    -0.369 OA
ATOM     17  C   UNL     1      -8.895   9.321  18.964  0.00  0.00    +0.006 C 
ATOM     18  C   UNL     1      -8.128   8.162  18.291  0.00  0.00    +0.090 C 
ATOM     19  C   UNL     1      -6.609   8.073  18.629  0.00  0.00    +0.100 C 
ATOM     20  C   UNL     1      -5.932   9.413  18.663  0.00  0.00    -0.051 C 
ATOM     21  C   UNL     1      -5.378  10.087  17.636  0.00  0.00    -0.052 C 
ATOM     22  C   UNL     1      -4.947  11.464  17.813  0.00  0.00    -0.052 C 
ATOM     23  C   UNL     1      -5.719  12.368  18.430  0.00  0.00    +0.023 C 
ATOM     24  C   UNL     1      -5.331  13.780  18.577  0.00  0.00    +0.332 C 
ATOM     25  O   UNL     1      -4.437  14.346  17.975  0.00  0.00    -0.246 OA
ATOM     26  O   UNL     1      -6.180  14.309  19.488  0.00  0.00    -0.458 OA
ATOM     27  H   UNL     1      -5.912  16.233  18.794  0.00  0.00    +0.074 HD
ATOM     28  H   UNL     1      -7.805  15.643  21.125  0.00  0.00    +0.036 HD
ATOM     29  H   UNL     1      -8.527  14.491  19.074  0.00  0.00    +0.060 HD
ATOM     30  H   UNL     1     -10.304  16.938  19.370  0.00  0.00    +0.032 HD
ATOM     31  H   UNL     1     -10.137  15.848  20.711  0.00  0.00    +0.032 HD
ATOM     32  H   UNL     1     -11.011  15.020  17.902  0.00  0.00    +0.063 HD
ATOM     33  H   UNL     1     -12.671  11.847  18.967  0.00  0.00    +0.059 HD
ATOM     34  H   UNL     1     -12.656  13.148  17.730  0.00  0.00    +0.059 HD
ATOM     35  H   UNL     1      -9.844  13.163  21.007  0.00  0.00    +0.063 HD
ATOM     36  H   UNL     1     -11.421  11.850  22.502  0.00  0.00    +0.032 HD
ATOM     37  H   UNL     1     -12.635  11.880  21.263  0.00  0.00    +0.032 HD
ATOM     38  H   UNL     1     -11.250  10.400  19.843  0.00  0.00    +0.060 HD
ATOM     39  H   UNL     1     -11.620   9.631  22.785  0.00  0.00    +0.033 HD
ATOM     40  H   UNL     1     -12.640   9.225  21.401  0.00  0.00    +0.033 HD
ATOM     41  H   UNL     1     -11.268   7.191  22.007  0.00  0.00    +0.057 HD
ATOM     42  H   UNL     1      -9.060   7.147  21.005  0.00  0.00    +0.059 HD
ATOM     43  H   UNL     1      -7.916   9.336  20.900  0.00  0.00    +0.064 HD
ATOM     44  H   UNL     1      -9.919   9.306  18.565  0.00  0.00    +0.032 HD
ATOM     45  H   UNL     1      -8.508  10.288  18.616  0.00  0.00    +0.032 HD
ATOM     46  H   UNL     1      -8.611   7.224  18.592  0.00  0.00    +0.063 HD
ATOM     47  H   UNL     1      -6.104   7.413  17.921  0.00  0.00    +0.066 HD
ATOM     48  H   UNL     1      -5.974   9.896  19.642  0.00  0.00    +0.060 HD
ATOM     49  H   UNL     1      -3.992  11.752  17.382  0.00  0.00    +0.062 HD
ATOM     50  H   UNL     1      -6.692  12.106  18.833  0.00  0.00    +0.069 HD
ENDROOT
BRANCH  21  51
ATOM     51  C   UNL     1      -5.230   9.568  16.233  0.00  0.00    -0.040 C 
ATOM     52  H   UNL     1      -6.028   8.855  16.004  0.00  0.00    +0.028 HD
ATOM     53  H   UNL     1      -4.279   9.062  16.057  0.00  0.00    +0.028 HD
ATOM     54  H   UNL     1      -5.289  10.392  15.516  0.00  0.00    +0.028 HD
ENDBRANCH  21  51
BRANCH   2  55
ATOM     55  C   UNL     1      -7.717  17.651  20.355  0.00  0.00    -0.057 C 
ATOM     56  H   UNL     1      -7.022  18.200  19.710  0.00  0.00    +0.023 HD
ATOM     57  H   UNL     1      -7.536  17.943  21.386  0.00  0.00    +0.023 HD
ATOM     58  H   UNL     1      -8.727  18.004  20.136  0.00  0.00    +0.023 HD
ENDBRANCH   2  55
BRANCH   1  59
ATOM     59  C   UNL     1      -4.936  16.010  20.728  0.00  0.00    +0.020 C 
ATOM     60  H   UNL     1      -4.219  15.198  20.558  0.00  0.00    +0.036 HD
BRANCH  59  61
ATOM     61  C   UNL     1      -4.153  17.273  20.346  0.00  0.00    -0.057 C 
ATOM     62  H   UNL     1      -3.842  17.239  19.298  0.00  0.00    +0.023 HD
ATOM     63  H   UNL     1      -4.707  18.195  20.510  0.00  0.00    +0.023 HD
ATOM     64  H   UNL     1      -3.243  17.342  20.951  0.00  0.00    +0.023 HD
ENDBRANCH  59  61
BRANCH  59  65
ATOM     65  C   UNL     1      -5.246  15.984  22.254  0.00  0.00    +0.064 C 
ATOM     66  H   UNL     1      -4.368  15.571  22.769  0.00  0.00    +0.060 HD
BRANCH  65  67
ATOM     67  C   UNL     1      -6.457  15.106  22.674  0.00  0.00    -0.017 C 
ATOM     68  H   UNL     1      -7.240  15.169  21.915  0.00  0.00    +0.032 HD
BRANCH  67  69
ATOM     69  C   UNL     1      -6.042  13.632  22.800  0.00  0.00    -0.060 C 
ATOM     70  H   UNL     1      -6.610  13.135  23.597  0.00  0.00    +0.023 HD
ATOM     71  H   UNL     1      -4.977  13.546  23.042  0.00  0.00    +0.023 HD
ATOM     72  H   UNL     1      -6.229  13.068  21.885  0.00  0.00    +0.023 HD
ENDBRANCH  67  69
BRANCH  67  73
ATOM     73  C   UNL     1      -7.101  15.545  24.015  0.00  0.00    -0.046 C 
ATOM     74  H   UNL     1      -6.883  14.789  24.780  0.00  0.00    +0.027 HD
ATOM     75  H   UNL     1      -6.641  16.477  24.364  0.00  0.00    +0.027 HD
BRANCH  73  76
ATOM     76  C   UNL     1      -8.624  15.694  23.929  0.00  0.00    -0.026 C 
ATOM     77  H   UNL     1      -8.935  16.706  24.207  0.00  0.00    +0.029 HD
ATOM     78  H   UNL     1      -8.954  15.559  22.890  0.00  0.00    +0.029 HD
BRANCH  76  83
ATOM     79  C   UNL     1     -10.991  14.585  26.548  0.00  0.00    +0.059 C 
ATOM     80  C   UNL     1     -10.587  13.109  26.623  0.00  0.00    -0.000 C 
ATOM     81  C   UNL     1      -9.068  12.985  26.664  0.00  0.00    +0.063 C 
ATOM     82  C   UNL     1      -8.449  13.619  25.410  0.00  0.00    -0.000 C 
ATOM     83  C   UNL     1      -9.371  14.672  24.791  0.00  0.00    +0.061 C 
ATOM     84  O   UNL     1     -10.037  15.386  25.838  0.00  0.00    -0.373 OA
ATOM     85  H   UNL     1     -11.016  14.988  27.567  0.00  0.00    +0.059 HD
ATOM     86  H   UNL     1     -11.043  12.626  27.496  0.00  0.00    +0.032 HD
ATOM     87  H   UNL     1     -10.966  12.550  25.755  0.00  0.00    +0.032 HD
ATOM     88  H   UNL     1      -8.702  13.501  27.562  0.00  0.00    +0.060 HD
ATOM     89  H   UNL     1      -7.493  14.079  25.704  0.00  0.00    +0.032 HD
ATOM     90  H   UNL     1      -8.196  12.859  24.658  0.00  0.00    +0.032 HD
ATOM     91  H   UNL     1     -10.129  14.185  24.160  0.00  0.00    +0.060 HD
BRANCH  79  92
ATOM     92  C   UNL     1     -12.371  14.772  25.934  0.00  0.00    -0.039 C 
ATOM     93  H   UNL     1     -13.151  14.755  26.702  0.00  0.00    +0.025 HD
ATOM     94  H   UNL     1     -12.419  15.729  25.404  0.00  0.00    +0.025 HD
ATOM     95  H   UNL     1     -12.588  13.994  25.195  0.00  0.00    +0.025 HD
ENDBRANCH  79  92
BRANCH  81  96
ATOM     96  O   UNL     1      -8.736  11.594  26.755  0.00  0.00    -0.380 OA
BRANCH  96  97
ATOM     97  C   UNL     1      -8.620  11.137  28.097  0.00  0.00    +0.037 C 
ATOM     98  H   UNL     1      -9.580  10.706  28.392  0.00  0.00    +0.052 HD
ATOM     99  H   UNL     1      -8.391  11.970  28.769  0.00  0.00    +0.052 HD
ATOM    100  H   UNL     1      -7.854  10.361  28.182  0.00  0.00    +0.052 HD
ENDBRANCH  96  97
ENDBRANCH  81  96
ENDBRANCH  76  83
ENDBRANCH  73  76
ENDBRANCH  67  73
ENDBRANCH  65  67
BRANCH  65 101
ATOM    101  O   UNL     1      -5.405  17.305  22.753  0.00  0.00    -0.391 OA
ATOM    102  H   UNL     1      -5.145  17.304  23.690  0.00  0.00    +0.210 HD
ENDBRANCH  65 101
ENDBRANCH  59  65
ENDBRANCH   1  59
BRANCH  19 103
ATOM    103  O   UNL     1      -6.447   7.492  19.926  0.00  0.00    -0.385 OA
ATOM    104  H   UNL     1      -6.406   8.223  20.566  0.00  0.00    +0.210 HD
ENDBRANCH  19 103
BRANCH  18 105
ATOM    105  O   UNL     1      -8.304   8.333  16.871  0.00  0.00    -0.377 OA
BRANCH 105 106
ATOM    106  C   UNL     1      -9.018   9.516  16.532  0.00  0.00    +0.037 C 
ATOM    107  H   UNL     1      -9.108   9.602  15.445  0.00  0.00    +0.052 HD
ATOM    108  H   UNL     1      -8.529  10.404  16.940  0.00  0.00    +0.052 HD
ATOM    109  H   UNL     1     -10.023   9.446  16.959  0.00  0.00    +0.052 HD
ENDBRANCH 105 106
ENDBRANCH  18 105
BRANCH   9 110
ATOM    110  O   UNL     1     -11.479  14.211  21.754  0.00  0.00    -0.377 OA
BRANCH 110 111
ATOM    111  C   UNL     1     -12.731  13.869  22.341  0.00  0.00    +0.037 C 
ATOM    112  H   UNL     1     -12.733  12.793  22.541  0.00  0.00    +0.052 HD
ATOM    113  H   UNL     1     -13.552  14.088  21.652  0.00  0.00    +0.052 HD
ATOM    114  H   UNL     1     -12.879  14.391  23.288  0.00  0.00    +0.052 HD
ENDBRANCH 110 111
ENDBRANCH   9 110
BRANCH   5 115
ATOM    115  O   UNL     1     -12.461  15.615  19.234  0.00  0.00    -0.377 OA
BRANCH 115 116
ATOM    116  C   UNL     1     -12.385  16.956  19.698  0.00  0.00    +0.037 C 
ATOM    117  H   UNL     1     -13.357  17.225  20.116  0.00  0.00    +0.052 HD
ATOM    118  H   UNL     1     -11.629  17.063  20.477  0.00  0.00    +0.052 HD
ATOM    119  H   UNL     1     -12.167  17.634  18.867  0.00  0.00    +0.052 HD
ENDBRANCH 115 116
ENDBRANCH   5 115
BRANCH   3 120
ATOM    120  O   UNL     1      -8.442  16.225  17.886  0.00  0.00    -0.379 OA
BRANCH 120 121
ATOM    121  C   UNL     1      -8.297  15.317  16.803  0.00  0.00    +0.037 C 
ATOM    122  H   UNL     1      -7.227  15.202  16.595  0.00  0.00    +0.052 HD
ATOM    123  H   UNL     1      -8.785  15.697  15.900  0.00  0.00    +0.052 HD
ATOM    124  H   UNL     1      -8.703  14.333  17.065  0.00  0.00    +0.052 HD
ENDBRANCH 120 121
ENDBRANCH   3 120
TORSDOF 23
ENDMDL
