MODEL 1
REMARK VINA RESULT:      -5.8      0.000      0.000
REMARK  Name = Lobophorolide_conf3
REMARK  23 active torsions:
REMARK  status: ('A' for Active; 'I' for Inactive)
REMARK    1  A    between atoms: C_1  and  C_2
REMARK    2  A    between atoms: C_4  and  O_53
REMARK    3  A    between atoms: C_6  and  C_8
REMARK    4  A    between atoms: C_8  and  C_9
REMARK    5  A    between atoms: C_9  and  C_10
REMARK    6  A    between atoms: C_10  and  C_11
REMARK    7  A    between atoms: C_10  and  C_12
REMARK    8  A    between atoms: C_12  and  C_13
REMARK    9  A    between atoms: C_12  and  O_52
REMARK   10  A    between atoms: C_13  and  C_14
REMARK   11  A    between atoms: C_13  and  C_15
REMARK   12  A    between atoms: C_16  and  C_51
REMARK   13  A    between atoms: C_17  and  O_49
REMARK   14  A    between atoms: C_19  and  O_47
REMARK   15  A    between atoms: C_23  and  O_45
REMARK   16  A    between atoms: C_32  and  O_43
REMARK   17  A    between atoms: C_33  and  O_42
REMARK   18  A    between atoms: C_35  and  C_41
REMARK   19  A    between atoms: O_43  and  C_44
REMARK   20  A    between atoms: O_45  and  C_46
REMARK   21  A    between atoms: O_47  and  C_48
REMARK   22  A    between atoms: O_49  and  C_50
REMARK   23  A    between atoms: O_53  and  C_54
REMARK                            x       y       z     vdW  Elec       q    Type
REMARK                         _______ _______ _______ _____ _____    ______ ____
ROOT
ATOM      1  C   UNL     1      -5.538  15.960  18.953  0.00  0.00    +0.113 C 
ATOM      2  C   UNL     1      -6.812  16.778  19.345  0.00  0.00    +0.020 C 
ATOM      3  C   UNL     1      -7.175  16.893  20.853  0.00  0.00    +0.067 C 
ATOM      4  C   UNL     1      -7.310  15.548  21.604  0.00  0.00    +0.003 C 
ATOM      5  C   UNL     1      -7.770  15.750  23.067  0.00  0.00    +0.094 C 
ATOM      6  C   UNL     1      -8.393  14.479  23.653  0.00  0.00    +0.145 C 
ATOM      7  C   UNL     1      -7.489  13.483  24.373  0.00  0.00    +0.083 C 
ATOM      8  O   UNL     1      -8.305  14.404  25.100  0.00  0.00    -0.363 OA
ATOM      9  C   UNL     1      -9.786  14.051  23.179  0.00  0.00    +0.094 C 
ATOM     10  C   UNL     1      -9.746  12.747  22.365  0.00  0.00    +0.003 C 
ATOM     11  C   UNL     1     -11.109  12.300  21.793  0.00  0.00    +0.065 C 
ATOM     12  C   UNL     1     -12.246  12.107  22.810  0.00  0.00    -0.008 C 
ATOM     13  C   UNL     1     -12.074  10.845  23.596  0.00  0.00    -0.083 C 
ATOM     14  C   UNL     1     -11.317   9.849  23.113  0.00  0.00    -0.059 C 
ATOM     15  C   UNL     1     -10.608   9.919  21.774  0.00  0.00    +0.080 C 
ATOM     16  O   UNL     1     -10.974  11.088  21.027  0.00  0.00    -0.369 OA
ATOM     17  C   UNL     1     -10.941   8.668  20.948  0.00  0.00    +0.006 C 
ATOM     18  C   UNL     1     -10.247   8.524  19.573  0.00  0.00    +0.090 C 
ATOM     19  C   UNL     1      -8.695   8.664  19.586  0.00  0.00    +0.100 C 
ATOM     20  C   UNL     1      -8.153  10.069  19.483  0.00  0.00    -0.051 C 
ATOM     21  C   UNL     1      -6.997  10.451  18.900  0.00  0.00    -0.052 C 
ATOM     22  C   UNL     1      -6.703  11.877  18.792  0.00  0.00    -0.052 C 
ATOM     23  C   UNL     1      -5.750  12.404  18.010  0.00  0.00    +0.023 C 
ATOM     24  C   UNL     1      -5.491  13.845  17.865  0.00  0.00    +0.332 C 
ATOM     25  O   UNL     1      -4.933  14.290  16.873  0.00  0.00    -0.246 OA
ATOM     26  O   UNL     1      -5.867  14.547  18.967  0.00  0.00    -0.458 OA
ATOM     27  H   UNL     1      -5.325  16.265  17.924  0.00  0.00    +0.074 HD
ATOM     28  H   UNL     1      -6.614  17.802  18.996  0.00  0.00    +0.036 HD
ATOM     29  H   UNL     1      -8.154  17.386  20.925  0.00  0.00    +0.060 HD
ATOM     30  H   UNL     1      -6.350  15.018  21.618  0.00  0.00    +0.032 HD
ATOM     31  H   UNL     1      -8.027  14.918  21.068  0.00  0.00    +0.032 HD
ATOM     32  H   UNL     1      -8.504  16.563  23.107  0.00  0.00    +0.063 HD
ATOM     33  H   UNL     1      -7.756  12.437  24.436  0.00  0.00    +0.059 HD
ATOM     34  H   UNL     1      -6.418  13.653  24.367  0.00  0.00    +0.059 HD
ATOM     35  H   UNL     1     -10.416  13.882  24.063  0.00  0.00    +0.063 HD
ATOM     36  H   UNL     1      -9.319  11.951  22.982  0.00  0.00    +0.032 HD
ATOM     37  H   UNL     1      -9.052  12.860  21.523  0.00  0.00    +0.032 HD
ATOM     38  H   UNL     1     -11.435  13.065  21.077  0.00  0.00    +0.060 HD
ATOM     39  H   UNL     1     -13.196  12.019  22.267  0.00  0.00    +0.033 HD
ATOM     40  H   UNL     1     -12.343  12.965  23.477  0.00  0.00    +0.033 HD
ATOM     41  H   UNL     1     -12.585  10.742  24.548  0.00  0.00    +0.057 HD
ATOM     42  H   UNL     1     -11.179   8.946  23.702  0.00  0.00    +0.059 HD
ATOM     43  H   UNL     1      -9.533   9.951  21.974  0.00  0.00    +0.064 HD
ATOM     44  H   UNL     1     -10.691   7.777  21.542  0.00  0.00    +0.032 HD
ATOM     45  H   UNL     1     -12.025   8.644  20.790  0.00  0.00    +0.032 HD
ATOM     46  H   UNL     1     -10.442   7.488  19.258  0.00  0.00    +0.063 HD
ATOM     47  H   UNL     1      -8.342   8.102  18.713  0.00  0.00    +0.066 HD
ATOM     48  H   UNL     1      -8.835  10.841  19.824  0.00  0.00    +0.060 HD
ATOM     49  H   UNL     1      -7.348  12.547  19.357  0.00  0.00    +0.062 HD
ATOM     50  H   UNL     1      -5.127  11.796  17.367  0.00  0.00    +0.069 HD
ENDROOT
BRANCH  21  51
ATOM     51  C   UNL     1      -5.986   9.475  18.353  0.00  0.00    -0.040 C 
ATOM     52  H   UNL     1      -6.095   8.467  18.768  0.00  0.00    +0.028 HD
ATOM     53  H   UNL     1      -6.084   9.395  17.263  0.00  0.00    +0.028 HD
ATOM     54  H   UNL     1      -4.963   9.788  18.591  0.00  0.00    +0.028 HD
ENDBRANCH  21  51
BRANCH   2  55
ATOM     55  C   UNL     1      -8.032  16.293  18.544  0.00  0.00    -0.057 C 
ATOM     56  H   UNL     1      -8.726  17.122  18.361  0.00  0.00    +0.023 HD
ATOM     57  H   UNL     1      -7.751  15.871  17.575  0.00  0.00    +0.023 HD
ATOM     58  H   UNL     1      -8.578  15.523  19.100  0.00  0.00    +0.023 HD
ENDBRANCH   2  55
BRANCH   1  59
ATOM     59  C   UNL     1      -4.259  16.208  19.805  0.00  0.00    +0.020 C 
ATOM     60  H   UNL     1      -4.474  17.069  20.445  0.00  0.00    +0.036 HD
BRANCH  59  61
ATOM     61  C   UNL     1      -3.972  15.102  20.833  0.00  0.00    -0.057 C 
ATOM     62  H   UNL     1      -4.300  15.406  21.834  0.00  0.00    +0.023 HD
ATOM     63  H   UNL     1      -4.525  14.188  20.588  0.00  0.00    +0.023 HD
ATOM     64  H   UNL     1      -2.910  14.847  20.884  0.00  0.00    +0.023 HD
ENDBRANCH  59  61
BRANCH  59  65
ATOM     65  C   UNL     1      -3.001  16.555  18.955  0.00  0.00    +0.064 C 
ATOM     66  H   UNL     1      -3.286  16.760  17.919  0.00  0.00    +0.060 HD
BRANCH  65  67
ATOM     67  C   UNL     1      -1.820  15.530  18.929  0.00  0.00    -0.017 C 
ATOM     68  H   UNL     1      -2.117  14.666  19.525  0.00  0.00    +0.032 HD
BRANCH  67  69
ATOM     69  C   UNL     1      -1.514  15.060  17.505  0.00  0.00    -0.060 C 
ATOM     70  H   UNL     1      -0.533  15.400  17.163  0.00  0.00    +0.023 HD
ATOM     71  H   UNL     1      -2.265  15.426  16.797  0.00  0.00    +0.023 HD
ATOM     72  H   UNL     1      -1.478  13.972  17.439  0.00  0.00    +0.023 HD
ENDBRANCH  67  69
BRANCH  67  73
ATOM     73  C   UNL     1      -0.567  16.144  19.612  0.00  0.00    -0.046 C 
ATOM     74  H   UNL     1       0.147  16.400  18.817  0.00  0.00    +0.027 HD
ATOM     75  H   UNL     1      -0.838  17.094  20.090  0.00  0.00    +0.027 HD
BRANCH  73  76
ATOM     76  C   UNL     1       0.198  15.301  20.640  0.00  0.00    -0.026 C 
ATOM     77  H   UNL     1       0.114  15.723  21.648  0.00  0.00    +0.029 HD
ATOM     78  H   UNL     1      -0.336  14.343  20.719  0.00  0.00    +0.029 HD
BRANCH  76  83
ATOM     79  C   UNL     1       2.034  12.851  19.198  0.00  0.00    +0.059 C 
ATOM     80  C   UNL     1       3.484  12.789  19.665  0.00  0.00    -0.000 C 
ATOM     81  C   UNL     1       3.676  13.527  20.996  0.00  0.00    +0.063 C 
ATOM     82  C   UNL     1       2.400  14.228  21.465  0.00  0.00    -0.000 C 
ATOM     83  C   UNL     1       1.668  14.956  20.332  0.00  0.00    +0.061 C 
ATOM     84  O   UNL     1       1.643  14.218  19.096  0.00  0.00    -0.373 OA
ATOM     85  H   UNL     1       1.368  12.330  19.897  0.00  0.00    +0.059 HD
ATOM     86  H   UNL     1       3.799  11.746  19.774  0.00  0.00    +0.032 HD
ATOM     87  H   UNL     1       4.131  13.237  18.899  0.00  0.00    +0.032 HD
ATOM     88  H   UNL     1       3.969  12.814  21.777  0.00  0.00    +0.060 HD
ATOM     89  H   UNL     1       1.739  13.472  21.900  0.00  0.00    +0.032 HD
ATOM     90  H   UNL     1       2.651  14.941  22.255  0.00  0.00    +0.032 HD
ATOM     91  H   UNL     1       2.203  15.887  20.111  0.00  0.00    +0.060 HD
BRANCH  79  92
ATOM     92  C   UNL     1       1.872  12.214  17.824  0.00  0.00    -0.039 C 
ATOM     93  H   UNL     1       1.557  11.171  17.902  0.00  0.00    +0.025 HD
ATOM     94  H   UNL     1       1.130  12.761  17.238  0.00  0.00    +0.025 HD
ATOM     95  H   UNL     1       2.812  12.256  17.260  0.00  0.00    +0.025 HD
ENDBRANCH  79  92
BRANCH  81  96
ATOM     96  O   UNL     1       4.713  14.512  20.878  0.00  0.00    -0.380 OA
BRANCH  96  97
ATOM     97  C   UNL     1       5.289  14.562  19.577  0.00  0.00    +0.037 C 
ATOM     98  H   UNL     1       6.058  13.788  19.479  0.00  0.00    +0.052 HD
ATOM     99  H   UNL     1       5.760  15.540  19.446  0.00  0.00    +0.052 HD
ATOM    100  H   UNL     1       4.529  14.435  18.798  0.00  0.00    +0.052 HD
ENDBRANCH  96  97
ENDBRANCH  81  96
ENDBRANCH  76  83
ENDBRANCH  73  76
ENDBRANCH  67  73
ENDBRANCH  65  67
BRANCH  65 101
ATOM    101  O   UNL     1      -2.489  17.795  19.472  0.00  0.00    -0.391 OA
ATOM    102  H   UNL     1      -3.147  18.114  20.124  0.00  0.00    +0.210 HD
ENDBRANCH  65 101
ENDBRANCH  59  65
ENDBRANCH   1  59
BRANCH  19 103
ATOM    103  O   UNL     1      -8.149   8.033  20.743  0.00  0.00    -0.385 OA
ATOM    104  H   UNL     1      -8.241   8.657  21.486  0.00  0.00    +0.210 HD
ENDBRANCH  19 103
BRANCH  18 105
ATOM    105  O   UNL     1     -10.800   9.402  18.582  0.00  0.00    -0.377 OA
BRANCH 105 106
ATOM    106  C   UNL     1     -12.156   9.124  18.265  0.00  0.00    +0.037 C 
ATOM    107  H   UNL     1     -12.427   9.481  17.265  0.00  0.00    +0.052 HD
ATOM    108  H   UNL     1     -12.299   8.040  18.295  0.00  0.00    +0.052 HD
ATOM    109  H   UNL     1     -12.814   9.579  19.013  0.00  0.00    +0.052 HD
ENDBRANCH 105 106
ENDBRANCH  18 105
BRANCH   9 110
ATOM    110  O   UNL     1     -10.379  15.072  22.361  0.00  0.00    -0.377 OA
BRANCH 110 111
ATOM    111  C   UNL     1     -11.411  15.781  23.036  0.00  0.00    +0.037 C 
ATOM    112  H   UNL     1     -11.990  15.099  23.664  0.00  0.00    +0.052 HD
ATOM    113  H   UNL     1     -12.079  16.210  22.285  0.00  0.00    +0.052 HD
ATOM    114  H   UNL     1     -11.001  16.595  23.643  0.00  0.00    +0.052 HD
ENDBRANCH 110 111
ENDBRANCH   9 110
BRANCH   5 115
ATOM    115  O   UNL     1      -6.603  16.128  23.827  0.00  0.00    -0.377 OA
BRANCH 115 116
ATOM    116  C   UNL     1      -6.828  17.247  24.675  0.00  0.00    +0.037 C 
ATOM    117  H   UNL     1      -6.151  18.066  24.417  0.00  0.00    +0.052 HD
ATOM    118  H   UNL     1      -7.864  17.590  24.611  0.00  0.00    +0.052 HD
ATOM    119  H   UNL     1      -6.624  16.942  25.704  0.00  0.00    +0.052 HD
ENDBRANCH 115 116
ENDBRANCH   5 115
BRANCH   3 120
ATOM    120  O   UNL     1      -6.206  17.728  21.510  0.00  0.00    -0.379 OA
BRANCH 120 121
ATOM    121  C   UNL     1      -6.312  19.100  21.152  0.00  0.00    +0.037 C 
ATOM    122  H   UNL     1      -6.442  19.683  22.068  0.00  0.00    +0.052 HD
ATOM    123  H   UNL     1      -7.185  19.261  20.514  0.00  0.00    +0.052 HD
ATOM    124  H   UNL     1      -5.407  19.447  20.646  0.00  0.00    +0.052 HD
ENDBRANCH 120 121
ENDBRANCH   3 120
TORSDOF 23
ENDMDL
MODEL 2
REMARK VINA RESULT:      -5.6      2.404      3.316
REMARK  Name = Lobophorolide_conf3
REMARK  23 active torsions:
REMARK  status: ('A' for Active; 'I' for Inactive)
REMARK    1  A    between atoms: C_1  and  C_2
REMARK    2  A    between atoms: C_4  and  O_53
REMARK    3  A    between atoms: C_6  and  C_8
REMARK    4  A    between atoms: C_8  and  C_9
REMARK    5  A    between atoms: C_9  and  C_10
REMARK    6  A    between atoms: C_10  and  C_11
REMARK    7  A    between atoms: C_10  and  C_12
REMARK    8  A    between atoms: C_12  and  C_13
REMARK    9  A    between atoms: C_12  and  O_52
REMARK   10  A    between atoms: C_13  and  C_14
REMARK   11  A    between atoms: C_13  and  C_15
REMARK   12  A    between atoms: C_16  and  C_51
REMARK   13  A    between atoms: C_17  and  O_49
REMARK   14  A    between atoms: C_19  and  O_47
REMARK   15  A    between atoms: C_23  and  O_45
REMARK   16  A    between atoms: C_32  and  O_43
REMARK   17  A    between atoms: C_33  and  O_42
REMARK   18  A    between atoms: C_35  and  C_41
REMARK   19  A    between atoms: O_43  and  C_44
REMARK   20  A    between atoms: O_45  and  C_46
REMARK   21  A    between atoms: O_47  and  C_48
REMARK   22  A    between atoms: O_49  and  C_50
REMARK   23  A    between atoms: O_53  and  C_54
REMARK                            x       y       z     vdW  Elec       q    Type
REMARK                         _______ _______ _______ _____ _____    ______ ____
ROOT
ATOM      1  C   UNL     1      -4.924  14.883  18.811  0.00  0.00    +0.113 C 
ATOM      2  C   UNL     1      -5.809  15.796  17.900  0.00  0.00    +0.020 C 
ATOM      3  C   UNL     1      -7.143  16.344  18.484  0.00  0.00    +0.067 C 
ATOM      4  C   UNL     1      -8.107  15.273  19.045  0.00  0.00    +0.003 C 
ATOM      5  C   UNL     1      -9.445  15.894  19.512  0.00  0.00    +0.094 C 
ATOM      6  C   UNL     1     -10.568  14.853  19.578  0.00  0.00    +0.145 C 
ATOM      7  C   UNL     1     -10.790  14.094  20.882  0.00  0.00    +0.083 C 
ATOM      8  O   UNL     1     -11.623  15.196  20.513  0.00  0.00    -0.363 OA
ATOM      9  C   UNL     1     -11.165  14.325  18.269  0.00  0.00    +0.094 C 
ATOM     10  C   UNL     1     -10.832  12.841  18.038  0.00  0.00    +0.003 C 
ATOM     11  C   UNL     1     -11.341  12.266  16.698  0.00  0.00    +0.065 C 
ATOM     12  C   UNL     1     -12.851  12.388  16.432  0.00  0.00    -0.008 C 
ATOM     13  C   UNL     1     -13.634  11.403  17.242  0.00  0.00    -0.083 C 
ATOM     14  C   UNL     1     -13.039  10.300  17.721  0.00  0.00    -0.059 C 
ATOM     15  C   UNL     1     -11.578   9.973  17.479  0.00  0.00    +0.080 C 
ATOM     16  O   UNL     1     -10.965  10.883  16.554  0.00  0.00    -0.369 OA
ATOM     17  C   UNL     1     -11.453   8.542  16.938  0.00  0.00    +0.006 C 
ATOM     18  C   UNL     1     -10.024   8.001  16.697  0.00  0.00    +0.090 C 
ATOM     19  C   UNL     1      -9.049   8.118  17.907  0.00  0.00    +0.100 C 
ATOM     20  C   UNL     1      -8.310   9.427  18.041  0.00  0.00    -0.051 C 
ATOM     21  C   UNL     1      -7.072   9.611  18.546  0.00  0.00    -0.052 C 
ATOM     22  C   UNL     1      -6.475  10.942  18.477  0.00  0.00    -0.052 C 
ATOM     23  C   UNL     1      -5.177  11.210  18.680  0.00  0.00    +0.023 C 
ATOM     24  C   UNL     1      -4.571  12.545  18.559  0.00  0.00    +0.332 C 
ATOM     25  O   UNL     1      -3.376  12.678  18.340  0.00  0.00    -0.246 OA
ATOM     26  O   UNL     1      -5.468  13.539  18.795  0.00  0.00    -0.458 OA
ATOM     27  H   UNL     1      -3.946  14.877  18.321  0.00  0.00    +0.074 HD
ATOM     28  H   UNL     1      -5.185  16.673  17.680  0.00  0.00    +0.036 HD
ATOM     29  H   UNL     1      -7.682  16.849  17.671  0.00  0.00    +0.060 HD
ATOM     30  H   UNL     1      -7.654  14.758  19.900  0.00  0.00    +0.032 HD
ATOM     31  H   UNL     1      -8.291  14.525  18.268  0.00  0.00    +0.032 HD
ATOM     32  H   UNL     1      -9.735  16.693  18.820  0.00  0.00    +0.063 HD
ATOM     33  H   UNL     1     -11.247  13.114  20.883  0.00  0.00    +0.059 HD
ATOM     34  H   UNL     1     -10.089  14.241  21.696  0.00  0.00    +0.059 HD
ATOM     35  H   UNL     1     -12.258  14.425  18.321  0.00  0.00    +0.063 HD
ATOM     36  H   UNL     1     -11.222  12.251  18.871  0.00  0.00    +0.032 HD
ATOM     37  H   UNL     1      -9.745  12.698  18.069  0.00  0.00    +0.032 HD
ATOM     38  H   UNL     1     -10.822  12.797  15.890  0.00  0.00    +0.060 HD
ATOM     39  H   UNL     1     -13.044  12.159  15.376  0.00  0.00    +0.033 HD
ATOM     40  H   UNL     1     -13.213  13.403  16.606  0.00  0.00    +0.033 HD
ATOM     41  H   UNL     1     -14.690  11.584  17.418  0.00  0.00    +0.057 HD
ATOM     42  H   UNL     1     -13.611   9.603  18.328  0.00  0.00    +0.059 HD
ATOM     43  H   UNL     1     -11.062  10.048  18.441  0.00  0.00    +0.064 HD
ATOM     44  H   UNL     1     -11.956   7.857  17.633  0.00  0.00    +0.032 HD
ATOM     45  H   UNL     1     -12.004   8.488  15.992  0.00  0.00    +0.032 HD
ATOM     46  H   UNL     1     -10.149   6.920  16.530  0.00  0.00    +0.063 HD
ATOM     47  H   UNL     1      -8.306   7.325  17.765  0.00  0.00    +0.066 HD
ATOM     48  H   UNL     1      -8.804  10.273  17.574  0.00  0.00    +0.060 HD
ATOM     49  H   UNL     1      -7.140  11.754  18.189  0.00  0.00    +0.062 HD
ATOM     50  H   UNL     1      -4.453  10.434  18.894  0.00  0.00    +0.069 HD
ENDROOT
BRANCH  21  51
ATOM     51  C   UNL     1      -6.268   8.506  19.184  0.00  0.00    -0.040 C 
ATOM     52  H   UNL     1      -5.230   8.792  19.386  0.00  0.00    +0.028 HD
ATOM     53  H   UNL     1      -6.720   8.208  20.139  0.00  0.00    +0.028 HD
ATOM     54  H   UNL     1      -6.215   7.626  18.532  0.00  0.00    +0.028 HD
ENDBRANCH  21  51
BRANCH   2  55
ATOM     55  C   UNL     1      -6.067  15.116  16.545  0.00  0.00    -0.057 C 
ATOM     56  H   UNL     1      -6.618  14.178  16.684  0.00  0.00    +0.023 HD
ATOM     57  H   UNL     1      -6.646  15.748  15.867  0.00  0.00    +0.023 HD
ATOM     58  H   UNL     1      -5.121  14.871  16.050  0.00  0.00    +0.023 HD
ENDBRANCH   2  55
BRANCH   1  59
ATOM     59  C   UNL     1      -4.725  15.350  20.284  0.00  0.00    +0.020 C 
ATOM     60  H   UNL     1      -5.148  16.357  20.350  0.00  0.00    +0.036 HD
BRANCH  59  61
ATOM     61  C   UNL     1      -5.572  14.572  21.303  0.00  0.00    -0.057 C 
ATOM     62  H   UNL     1      -4.945  13.895  21.894  0.00  0.00    +0.023 HD
ATOM     63  H   UNL     1      -6.050  15.255  22.015  0.00  0.00    +0.023 HD
ATOM     64  H   UNL     1      -6.358  13.982  20.826  0.00  0.00    +0.023 HD
ENDBRANCH  59  61
BRANCH  59  65
ATOM     65  C   UNL     1      -3.230  15.437  20.713  0.00  0.00    +0.064 C 
ATOM     66  H   UNL     1      -3.117  16.114  21.565  0.00  0.00    +0.060 HD
BRANCH  65  67
ATOM     67  C   UNL     1      -2.175  15.852  19.636  0.00  0.00    -0.017 C 
ATOM     68  H   UNL     1      -2.357  15.253  18.743  0.00  0.00    +0.032 HD
BRANCH  67  69
ATOM     69  C   UNL     1      -2.301  17.331  19.265  0.00  0.00    -0.060 C 
ATOM     70  H   UNL     1      -3.284  17.568  18.849  0.00  0.00    +0.023 HD
ATOM     71  H   UNL     1      -1.544  17.621  18.528  0.00  0.00    +0.023 HD
ATOM     72  H   UNL     1      -2.198  17.976  20.139  0.00  0.00    +0.023 HD
ENDBRANCH  67  69
BRANCH  67  73
ATOM     73  C   UNL     1      -0.744  15.505  20.131  0.00  0.00    -0.046 C 
ATOM     74  H   UNL     1      -0.746  15.593  21.227  0.00  0.00    +0.027 HD
ATOM     75  H   UNL     1      -0.526  14.450  19.915  0.00  0.00    +0.027 HD
BRANCH  73  76
ATOM     76  C   UNL     1       0.436  16.341  19.621  0.00  0.00    -0.026 C 
ATOM     77  H   UNL     1       0.223  16.782  18.641  0.00  0.00    +0.029 HD
ATOM     78  H   UNL     1       0.509  17.217  20.284  0.00  0.00    +0.029 HD
BRANCH  76  83
ATOM     79  C   UNL     1       1.870  13.314  19.134  0.00  0.00    +0.059 C 
ATOM     80  C   UNL     1       3.237  13.149  19.790  0.00  0.00    -0.000 C 
ATOM     81  C   UNL     1       3.459  14.192  20.892  0.00  0.00    +0.063 C 
ATOM     82  C   UNL     1       2.310  15.198  20.985  0.00  0.00    -0.000 C 
ATOM     83  C   UNL     1       1.831  15.685  19.614  0.00  0.00    +0.061 C 
ATOM     84  O   UNL     1       1.764  14.641  18.624  0.00  0.00    -0.373 OA
ATOM     85  H   UNL     1       1.060  13.131  19.850  0.00  0.00    +0.059 HD
ATOM     86  H   UNL     1       3.332  12.143  20.211  0.00  0.00    +0.032 HD
ATOM     87  H   UNL     1       4.019  13.248  19.025  0.00  0.00    +0.032 HD
ATOM     88  H   UNL     1       3.541  13.691  21.865  0.00  0.00    +0.060 HD
ATOM     89  H   UNL     1       1.480  14.716  21.512  0.00  0.00    +0.032 HD
ATOM     90  H   UNL     1       2.630  16.054  21.586  0.00  0.00    +0.032 HD
ATOM     91  H   UNL     1       2.553  16.414  19.228  0.00  0.00    +0.060 HD
BRANCH  79  92
ATOM     92  C   UNL     1       1.700  12.350  17.967  0.00  0.00    -0.039 C 
ATOM     93  H   UNL     1       0.974  12.724  17.242  0.00  0.00    +0.025 HD
ATOM     94  H   UNL     1       2.656  12.198  17.460  0.00  0.00    +0.025 HD
ATOM     95  H   UNL     1       1.371  11.363  18.319  0.00  0.00    +0.025 HD
ENDBRANCH  79  92
BRANCH  81  96
ATOM     96  O   UNL     1       4.674  14.918  20.658  0.00  0.00    -0.380 OA
BRANCH  96  97
ATOM     97  C   UNL     1       5.365  14.487  19.490  0.00  0.00    +0.037 C 
ATOM     98  H   UNL     1       5.359  13.392  19.435  0.00  0.00    +0.052 HD
ATOM     99  H   UNL     1       6.402  14.827  19.558  0.00  0.00    +0.052 HD
ATOM    100  H   UNL     1       4.919  14.909  18.583  0.00  0.00    +0.052 HD
ENDBRANCH  96  97
ENDBRANCH  81  96
ENDBRANCH  76  83
ENDBRANCH  73  76
ENDBRANCH  67  73
ENDBRANCH  65  67
BRANCH  65 101
ATOM    101  O   UNL     1      -2.867  14.134  21.197  0.00  0.00    -0.391 OA
ATOM    102  H   UNL     1      -3.380  13.993  22.020  0.00  0.00    +0.210 HD
ENDBRANCH  65 101
ENDBRANCH  59  65
ENDBRANCH   1  59
BRANCH  19 103
ATOM    103  O   UNL     1      -9.735   7.840  19.127  0.00  0.00    -0.385 OA
ATOM    104  H   UNL     1      -9.240   8.274  19.845  0.00  0.00    +0.210 HD
ENDBRANCH  19 103
BRANCH  18 105
ATOM    105  O   UNL     1      -9.410   8.564  15.529  0.00  0.00    -0.377 OA
BRANCH 105 106
ATOM    106  C   UNL     1     -10.017   8.157  14.311  0.00  0.00    +0.037 C 
ATOM    107  H   UNL     1     -10.030   7.067  14.202  0.00  0.00    +0.052 HD
ATOM    108  H   UNL     1     -11.050   8.517  14.307  0.00  0.00    +0.052 HD
ATOM    109  H   UNL     1      -9.490   8.610  13.465  0.00  0.00    +0.052 HD
ENDBRANCH 105 106
ENDBRANCH  18 105
BRANCH   9 110
ATOM    110  O   UNL     1     -10.672  15.074  17.148  0.00  0.00    -0.377 OA
BRANCH 110 111
ATOM    111  C   UNL     1     -11.650  15.954  16.607  0.00  0.00    +0.037 C 
ATOM    112  H   UNL     1     -11.374  16.249  15.591  0.00  0.00    +0.052 HD
ATOM    113  H   UNL     1     -11.685  16.852  17.229  0.00  0.00    +0.052 HD
ATOM    114  H   UNL     1     -12.643  15.492  16.607  0.00  0.00    +0.052 HD
ENDBRANCH 110 111
ENDBRANCH   9 110
BRANCH   5 115
ATOM    115  O   UNL     1      -9.214  16.459  20.819  0.00  0.00    -0.377 OA
BRANCH 115 116
ATOM    116  C   UNL     1      -9.720  17.781  20.952  0.00  0.00    +0.037 C 
ATOM    117  H   UNL     1      -9.679  18.104  21.996  0.00  0.00    +0.052 HD
ATOM    118  H   UNL     1      -9.163  18.483  20.327  0.00  0.00    +0.052 HD
ATOM    119  H   UNL     1     -10.765  17.781  20.632  0.00  0.00    +0.052 HD
ENDBRANCH 115 116
ENDBRANCH   5 115
BRANCH   3 120
ATOM    120  O   UNL     1      -6.848  17.321  19.498  0.00  0.00    -0.379 OA
BRANCH 120 121
ATOM    121  C   UNL     1      -6.294  18.522  18.977  0.00  0.00    +0.037 C 
ATOM    122  H   UNL     1      -5.886  19.099  19.811  0.00  0.00    +0.052 HD
ATOM    123  H   UNL     1      -7.070  19.120  18.491  0.00  0.00    +0.052 HD
ATOM    124  H   UNL     1      -5.485  18.311  18.273  0.00  0.00    +0.052 HD
ENDBRANCH 120 121
ENDBRANCH   3 120
TORSDOF 23
ENDMDL
MODEL 3
REMARK VINA RESULT:      -5.5      1.959      2.597
REMARK  Name = Lobophorolide_conf3
REMARK  23 active torsions:
REMARK  status: ('A' for Active; 'I' for Inactive)
REMARK    1  A    between atoms: C_1  and  C_2
REMARK    2  A    between atoms: C_4  and  O_53
REMARK    3  A    between atoms: C_6  and  C_8
REMARK    4  A    between atoms: C_8  and  C_9
REMARK    5  A    between atoms: C_9  and  C_10
REMARK    6  A    between atoms: C_10  and  C_11
REMARK    7  A    between atoms: C_10  and  C_12
REMARK    8  A    between atoms: C_12  and  C_13
REMARK    9  A    between atoms: C_12  and  O_52
REMARK   10  A    between atoms: C_13  and  C_14
REMARK   11  A    between atoms: C_13  and  C_15
REMARK   12  A    between atoms: C_16  and  C_51
REMARK   13  A    between atoms: C_17  and  O_49
REMARK   14  A    between atoms: C_19  and  O_47
REMARK   15  A    between atoms: C_23  and  O_45
REMARK   16  A    between atoms: C_32  and  O_43
REMARK   17  A    between atoms: C_33  and  O_42
REMARK   18  A    between atoms: C_35  and  C_41
REMARK   19  A    between atoms: O_43  and  C_44
REMARK   20  A    between atoms: O_45  and  C_46
REMARK   21  A    between atoms: O_47  and  C_48
REMARK   22  A    between atoms: O_49  and  C_50
REMARK   23  A    between atoms: O_53  and  C_54
REMARK                            x       y       z     vdW  Elec       q    Type
REMARK                         _______ _______ _______ _____ _____    ______ ____
ROOT
ATOM      1  C   UNL     1      -5.489  14.545  19.215  0.00  0.00    +0.113 C 
ATOM      2  C   UNL     1      -6.614  15.449  18.612  0.00  0.00    +0.020 C 
ATOM      3  C   UNL     1      -7.791  15.871  19.538  0.00  0.00    +0.067 C 
ATOM      4  C   UNL     1      -8.535  14.707  20.233  0.00  0.00    +0.003 C 
ATOM      5  C   UNL     1      -9.748  15.208  21.051  0.00  0.00    +0.094 C 
ATOM      6  C   UNL     1     -10.767  14.092  21.306  0.00  0.00    +0.145 C 
ATOM      7  C   UNL     1     -10.627  13.244  22.566  0.00  0.00    +0.083 C 
ATOM      8  O   UNL     1     -11.578  14.308  22.490  0.00  0.00    -0.363 OA
ATOM      9  C   UNL     1     -11.637  13.605  20.143  0.00  0.00    +0.094 C 
ATOM     10  C   UNL     1     -11.297  12.163  19.730  0.00  0.00    +0.003 C 
ATOM     11  C   UNL     1     -12.087  11.636  18.512  0.00  0.00    +0.065 C 
ATOM     12  C   UNL     1     -13.621  11.672  18.625  0.00  0.00    -0.008 C 
ATOM     13  C   UNL     1     -14.133  10.591  19.524  0.00  0.00    -0.083 C 
ATOM     14  C   UNL     1     -13.384   9.504  19.764  0.00  0.00    -0.059 C 
ATOM     15  C   UNL     1     -12.011   9.290  19.156  0.00  0.00    +0.080 C 
ATOM     16  O   UNL     1     -11.688  10.293  18.181  0.00  0.00    -0.369 OA
ATOM     17  C   UNL     1     -11.950   7.905  18.495  0.00  0.00    +0.006 C 
ATOM     18  C   UNL     1     -10.597   7.476  17.880  0.00  0.00    +0.090 C 
ATOM     19  C   UNL     1      -9.364   7.586  18.827  0.00  0.00    +0.100 C 
ATOM     20  C   UNL     1      -8.681   8.931  18.876  0.00  0.00    -0.051 C 
ATOM     21  C   UNL     1      -7.368   9.166  19.082  0.00  0.00    -0.052 C 
ATOM     22  C   UNL     1      -6.874  10.536  18.971  0.00  0.00    -0.052 C 
ATOM     23  C   UNL     1      -5.581  10.877  18.877  0.00  0.00    +0.023 C 
ATOM     24  C   UNL     1      -5.090  12.254  18.713  0.00  0.00    +0.332 C 
ATOM     25  O   UNL     1      -3.994  12.480  18.225  0.00  0.00    -0.246 OA
ATOM     26  O   UNL     1      -5.952  13.170  19.230  0.00  0.00    -0.458 OA
ATOM     27  H   UNL     1      -4.660  14.633  18.505  0.00  0.00    +0.074 HD
ATOM     28  H   UNL     1      -6.107  16.378  18.314  0.00  0.00    +0.036 HD
ATOM     29  H   UNL     1      -8.536  16.387  18.917  0.00  0.00    +0.060 HD
ATOM     30  H   UNL     1      -7.861  14.173  20.913  0.00  0.00    +0.032 HD
ATOM     31  H   UNL     1      -8.864  13.996  19.469  0.00  0.00    +0.032 HD
ATOM     32  H   UNL     1     -10.238  16.026  20.510  0.00  0.00    +0.063 HD
ATOM     33  H   UNL     1     -11.020  12.237  22.604  0.00  0.00    +0.059 HD
ATOM     34  H   UNL     1      -9.756  13.389  23.197  0.00  0.00    +0.059 HD
ATOM     35  H   UNL     1     -12.689  13.628  20.463  0.00  0.00    +0.063 HD
ATOM     36  H   UNL     1     -11.442  11.499  20.587  0.00  0.00    +0.032 HD
ATOM     37  H   UNL     1     -10.229  12.091  19.490  0.00  0.00    +0.032 HD
ATOM     38  H   UNL     1     -11.808  12.248  17.645  0.00  0.00    +0.060 HD
ATOM     39  H   UNL     1     -14.054  11.495  17.633  0.00  0.00    +0.033 HD
ATOM     40  H   UNL     1     -13.980  12.649  18.956  0.00  0.00    +0.033 HD
ATOM     41  H   UNL     1     -15.122  10.691  19.961  0.00  0.00    +0.057 HD
ATOM     42  H   UNL     1     -13.755   8.735  20.437  0.00  0.00    +0.059 HD
ATOM     43  H   UNL     1     -11.281   9.341  19.969  0.00  0.00    +0.064 HD
ATOM     44  H   UNL     1     -12.234   7.148  19.239  0.00  0.00    +0.032 HD
ATOM     45  H   UNL     1     -12.711   7.871  17.708  0.00  0.00    +0.032 HD
ATOM     46  H   UNL     1     -10.704   6.401  17.668  0.00  0.00    +0.063 HD
ATOM     47  H   UNL     1      -8.639   6.854  18.452  0.00  0.00    +0.066 HD
ATOM     48  H   UNL     1      -9.316   9.768  18.605  0.00  0.00    +0.060 HD
ATOM     49  H   UNL     1      -7.629  11.318  18.911  0.00  0.00    +0.062 HD
ATOM     50  H   UNL     1      -4.789  10.140  18.853  0.00  0.00    +0.069 HD
ENDROOT
BRANCH  21  51
ATOM     51  C   UNL     1      -6.379   8.081  19.425  0.00  0.00    -0.040 C 
ATOM     52  H   UNL     1      -5.460   8.136  18.832  0.00  0.00    +0.028 HD
ATOM     53  H   UNL     1      -6.093   8.146  20.482  0.00  0.00    +0.028 HD
ATOM     54  H   UNL     1      -6.799   7.086  19.236  0.00  0.00    +0.028 HD
ENDBRANCH  21  51
BRANCH   2  55
ATOM     55  C   UNL     1      -7.159  14.836  17.312  0.00  0.00    -0.057 C 
ATOM     56  H   UNL     1      -8.190  14.486  17.454  0.00  0.00    +0.023 HD
ATOM     57  H   UNL     1      -7.159  15.550  16.484  0.00  0.00    +0.023 HD
ATOM     58  H   UNL     1      -6.558  13.971  17.010  0.00  0.00    +0.023 HD
ENDBRANCH   2  55
BRANCH   1  59
ATOM     59  C   UNL     1      -4.960  14.935  20.627  0.00  0.00    +0.020 C 
ATOM     60  H   UNL     1      -5.541  15.806  20.946  0.00  0.00    +0.036 HD
BRANCH  59  61
ATOM     61  C   UNL     1      -5.290  13.906  21.720  0.00  0.00    -0.057 C 
ATOM     62  H   UNL     1      -4.485  13.168  21.815  0.00  0.00    +0.023 HD
ATOM     63  H   UNL     1      -5.383  14.393  22.698  0.00  0.00    +0.023 HD
ATOM     64  H   UNL     1      -6.222  13.373  21.522  0.00  0.00    +0.023 HD
ENDBRANCH  59  61
BRANCH  59  65
ATOM     65  C   UNL     1      -3.457  15.340  20.640  0.00  0.00    +0.064 C 
ATOM     66  H   UNL     1      -3.280  16.127  21.379  0.00  0.00    +0.060 HD
BRANCH  65  67
ATOM     67  C   UNL     1      -2.803  15.798  19.295  0.00  0.00    -0.017 C 
ATOM     68  H   UNL     1      -3.334  15.302  18.481  0.00  0.00    +0.032 HD
BRANCH  67  69
ATOM     69  C   UNL     1      -2.915  17.311  19.101  0.00  0.00    -0.060 C 
ATOM     70  H   UNL     1      -3.909  17.685  19.362  0.00  0.00    +0.023 HD
ATOM     71  H   UNL     1      -2.709  17.594  18.063  0.00  0.00    +0.023 HD
ATOM     72  H   UNL     1      -2.227  17.853  19.751  0.00  0.00    +0.023 HD
ENDBRANCH  67  69
BRANCH  67  73
ATOM     73  C   UNL     1      -1.326  15.319  19.231  0.00  0.00    -0.046 C 
ATOM     74  H   UNL     1      -1.267  14.366  19.776  0.00  0.00    +0.027 HD
ATOM     75  H   UNL     1      -1.060  15.087  18.191  0.00  0.00    +0.027 HD
BRANCH  73  76
ATOM     76  C   UNL     1      -0.231  16.226  19.806  0.00  0.00    -0.026 C 
ATOM     77  H   UNL     1      -0.505  17.285  19.731  0.00  0.00    +0.029 HD
ATOM     78  H   UNL     1      -0.212  16.044  20.891  0.00  0.00    +0.029 HD
BRANCH  76  83
ATOM     79  C   UNL     1       1.909  13.713  19.058  0.00  0.00    +0.059 C 
ATOM     80  C   UNL     1       3.384  14.097  19.130  0.00  0.00    -0.000 C 
ATOM     81  C   UNL     1       3.592  15.371  19.957  0.00  0.00    +0.063 C 
ATOM     82  C   UNL     1       2.271  15.996  20.410  0.00  0.00    -0.000 C 
ATOM     83  C   UNL     1       1.211  16.016  19.304  0.00  0.00    +0.061 C 
ATOM     84  O   UNL     1       1.177  14.811  18.518  0.00  0.00    -0.373 OA
ATOM     85  H   UNL     1       1.514  13.462  20.050  0.00  0.00    +0.059 HD
ATOM     86  H   UNL     1       3.964  13.276  19.565  0.00  0.00    +0.032 HD
ATOM     87  H   UNL     1       3.767  14.251  18.112  0.00  0.00    +0.032 HD
ATOM     88  H   UNL     1       4.173  15.137  20.858  0.00  0.00    +0.060 HD
ATOM     89  H   UNL     1       1.898  15.420  21.263  0.00  0.00    +0.032 HD
ATOM     90  H   UNL     1       2.457  17.016  20.757  0.00  0.00    +0.032 HD
ATOM     91  H   UNL     1       1.452  16.822  18.601  0.00  0.00    +0.060 HD
BRANCH  79  92
ATOM     92  C   UNL     1       1.697  12.514  18.144  0.00  0.00    -0.039 C 
ATOM     93  H   UNL     1       2.153  11.611  18.558  0.00  0.00    +0.025 HD
ATOM     94  H   UNL     1       0.630  12.333  17.997  0.00  0.00    +0.025 HD
ATOM     95  H   UNL     1       2.125  12.699  17.150  0.00  0.00    +0.025 HD
ENDBRANCH  79  92
BRANCH  81  96
ATOM     96  O   UNL     1       4.316  16.349  19.198  0.00  0.00    -0.380 OA
BRANCH  96  97
ATOM     97  C   UNL     1       4.521  17.566  19.907  0.00  0.00    +0.037 C 
ATOM     98  H   UNL     1       3.586  17.886  20.380  0.00  0.00    +0.052 HD
ATOM     99  H   UNL     1       4.831  18.333  19.193  0.00  0.00    +0.052 HD
ATOM    100  H   UNL     1       5.305  17.460  20.665  0.00  0.00    +0.052 HD
ENDBRANCH  96  97
ENDBRANCH  81  96
ENDBRANCH  76  83
ENDBRANCH  73  76
ENDBRANCH  67  73
ENDBRANCH  65  67
BRANCH  65 101
ATOM    101  O   UNL     1      -2.729  14.193  21.108  0.00  0.00    -0.391 OA
ATOM    102  H   UNL     1      -1.830  14.510  21.334  0.00  0.00    +0.210 HD
ENDBRANCH  65 101
ENDBRANCH  59  65
ENDBRANCH   1  59
BRANCH  19 103
ATOM    103  O   UNL     1      -9.718   7.190  20.151  0.00  0.00    -0.385 OA
ATOM    104  H   UNL     1      -9.188   7.729  20.767  0.00  0.00    +0.210 HD
ENDBRANCH  19 103
BRANCH  18 105
ATOM    105  O   UNL     1     -10.315   8.147  16.644  0.00  0.00    -0.377 OA
BRANCH 105 106
ATOM    106  C   UNL     1     -11.226   7.831  15.601  0.00  0.00    +0.037 C 
ATOM    107  H   UNL     1     -11.975   8.617  15.457  0.00  0.00    +0.052 HD
ATOM    108  H   UNL     1     -10.658   7.721  14.673  0.00  0.00    +0.052 HD
ATOM    109  H   UNL     1     -11.721   6.879  15.817  0.00  0.00    +0.052 HD
ENDBRANCH 105 106
ENDBRANCH  18 105
BRANCH   9 110
ATOM    110  O   UNL     1     -11.471  14.451  18.995  0.00  0.00    -0.377 OA
BRANCH 110 111
ATOM    111  C   UNL     1     -12.590  15.302  18.778  0.00  0.00    +0.037 C 
ATOM    112  H   UNL     1     -12.704  15.999  19.612  0.00  0.00    +0.052 HD
ATOM    113  H   UNL     1     -13.487  14.680  18.723  0.00  0.00    +0.052 HD
ATOM    114  H   UNL     1     -12.491  15.854  17.837  0.00  0.00    +0.052 HD
ENDBRANCH 110 111
ENDBRANCH   9 110
BRANCH   5 115
ATOM    115  O   UNL     1      -9.235  15.708  22.303  0.00  0.00    -0.377 OA
BRANCH 115 116
ATOM    116  C   UNL     1      -9.759  16.983  22.651  0.00  0.00    +0.037 C 
ATOM    117  H   UNL     1      -9.582  17.194  23.709  0.00  0.00    +0.052 HD
ATOM    118  H   UNL     1      -9.319  17.773  22.038  0.00  0.00    +0.052 HD
ATOM    119  H   UNL     1     -10.838  16.967  22.478  0.00  0.00    +0.052 HD
ENDBRANCH 115 116
ENDBRANCH   5 115
BRANCH   3 120
ATOM    120  O   UNL     1      -7.308  16.803  20.521  0.00  0.00    -0.379 OA
BRANCH 120 121
ATOM    121  C   UNL     1      -6.949  18.065  19.972  0.00  0.00    +0.037 C 
ATOM    122  H   UNL     1      -6.449  18.646  20.750  0.00  0.00    +0.052 HD
ATOM    123  H   UNL     1      -7.842  18.610  19.653  0.00  0.00    +0.052 HD
ATOM    124  H   UNL     1      -6.260  17.947  19.131  0.00  0.00    +0.052 HD
ENDBRANCH 120 121
ENDBRANCH   3 120
TORSDOF 23
ENDMDL
MODEL 4
REMARK VINA RESULT:      -5.4      8.168     16.774
REMARK  Name = Lobophorolide_conf3
REMARK  23 active torsions:
REMARK  status: ('A' for Active; 'I' for Inactive)
REMARK    1  A    between atoms: C_1  and  C_2
REMARK    2  A    between atoms: C_4  and  O_53
REMARK    3  A    between atoms: C_6  and  C_8
REMARK    4  A    between atoms: C_8  and  C_9
REMARK    5  A    between atoms: C_9  and  C_10
REMARK    6  A    between atoms: C_10  and  C_11
REMARK    7  A    between atoms: C_10  and  C_12
REMARK    8  A    between atoms: C_12  and  C_13
REMARK    9  A    between atoms: C_12  and  O_52
REMARK   10  A    between atoms: C_13  and  C_14
REMARK   11  A    between atoms: C_13  and  C_15
REMARK   12  A    between atoms: C_16  and  C_51
REMARK   13  A    between atoms: C_17  and  O_49
REMARK   14  A    between atoms: C_19  and  O_47
REMARK   15  A    between atoms: C_23  and  O_45
REMARK   16  A    between atoms: C_32  and  O_43
REMARK   17  A    between atoms: C_33  and  O_42
REMARK   18  A    between atoms: C_35  and  C_41
REMARK   19  A    between atoms: O_43  and  C_44
REMARK   20  A    between atoms: O_45  and  C_46
REMARK   21  A    between atoms: O_47  and  C_48
REMARK   22  A    between atoms: O_49  and  C_50
REMARK   23  A    between atoms: O_53  and  C_54
REMARK                            x       y       z     vdW  Elec       q    Type
REMARK                         _______ _______ _______ _____ _____    ______ ____
ROOT
ATOM      1  C   UNL     1       6.206  18.666  23.053  0.00  0.00    +0.113 C 
ATOM      2  C   UNL     1       7.369  19.707  22.975  0.00  0.00    +0.020 C 
ATOM      3  C   UNL     1       8.821  19.207  23.226  0.00  0.00    +0.067 C 
ATOM      4  C   UNL     1       9.038  18.455  24.560  0.00  0.00    +0.003 C 
ATOM      5  C   UNL     1      10.524  18.082  24.774  0.00  0.00    +0.094 C 
ATOM      6  C   UNL     1      10.844  17.821  26.250  0.00  0.00    +0.145 C 
ATOM      7  C   UNL     1      10.703  16.402  26.791  0.00  0.00    +0.083 C 
ATOM      8  O   UNL     1      11.981  16.943  26.450  0.00  0.00    -0.363 OA
ATOM      9  C   UNL     1      10.909  19.010  27.214  0.00  0.00    +0.094 C 
ATOM     10  C   UNL     1       9.764  18.987  28.240  0.00  0.00    +0.003 C 
ATOM     11  C   UNL     1       9.728  20.199  29.196  0.00  0.00    +0.065 C 
ATOM     12  C   UNL     1      11.002  20.460  30.018  0.00  0.00    -0.008 C 
ATOM     13  C   UNL     1      11.143  19.480  31.141  0.00  0.00    -0.083 C 
ATOM     14  C   UNL     1      10.067  18.828  31.604  0.00  0.00    -0.059 C 
ATOM     15  C   UNL     1       8.670  19.031  31.050  0.00  0.00    +0.080 C 
ATOM     16  O   UNL     1       8.613  20.108  30.104  0.00  0.00    -0.369 OA
ATOM     17  C   UNL     1       7.696  19.319  32.202  0.00  0.00    +0.006 C 
ATOM     18  C   UNL     1       6.202  19.483  31.839  0.00  0.00    +0.090 C 
ATOM     19  C   UNL     1       5.584  18.327  30.997  0.00  0.00    +0.100 C 
ATOM     20  C   UNL     1       5.748  18.432  29.500  0.00  0.00    -0.051 C 
ATOM     21  C   UNL     1       4.892  17.985  28.557  0.00  0.00    -0.052 C 
ATOM     22  C   UNL     1       5.168  18.291  27.156  0.00  0.00    -0.052 C 
ATOM     23  C   UNL     1       4.285  18.157  26.156  0.00  0.00    +0.023 C 
ATOM     24  C   UNL     1       4.549  18.516  24.754  0.00  0.00    +0.332 C 
ATOM     25  O   UNL     1       3.636  18.772  23.985  0.00  0.00    -0.246 OA
ATOM     26  O   UNL     1       5.872  18.441  24.447  0.00  0.00    -0.458 OA
ATOM     27  H   UNL     1       5.363  19.162  22.562  0.00  0.00    +0.074 HD
ATOM     28  H   UNL     1       7.348  20.085  21.943  0.00  0.00    +0.036 HD
ATOM     29  H   UNL     1       9.478  20.086  23.257  0.00  0.00    +0.060 HD
ATOM     30  H   UNL     1       8.449  17.531  24.581  0.00  0.00    +0.032 HD
ATOM     31  H   UNL     1       8.688  19.088  25.381  0.00  0.00    +0.032 HD
ATOM     32  H   UNL     1      11.159  18.897  24.407  0.00  0.00    +0.063 HD
ATOM     33  H   UNL     1      10.510  16.226  27.841  0.00  0.00    +0.059 HD
ATOM     34  H   UNL     1      10.289  15.636  26.144  0.00  0.00    +0.059 HD
ATOM     35  H   UNL     1      11.860  18.959  27.763  0.00  0.00    +0.063 HD
ATOM     36  H   UNL     1       9.815  18.058  28.816  0.00  0.00    +0.032 HD
ATOM     37  H   UNL     1       8.800  18.947  27.718  0.00  0.00    +0.032 HD
ATOM     38  H   UNL     1       9.540  21.094  28.590  0.00  0.00    +0.060 HD
ATOM     39  H   UNL     1      10.934  21.457  30.470  0.00  0.00    +0.033 HD
ATOM     40  H   UNL     1      11.896  20.458  29.391  0.00  0.00    +0.033 HD
ATOM     41  H   UNL     1      12.121  19.323  31.584  0.00  0.00    +0.057 HD
ATOM     42  H   UNL     1      10.184  18.100  32.403  0.00  0.00    +0.059 HD
ATOM     43  H   UNL     1       8.379  18.104  30.547  0.00  0.00    +0.064 HD
ATOM     44  H   UNL     1       7.773  18.508  32.939  0.00  0.00    +0.032 HD
ATOM     45  H   UNL     1       8.029  20.233  32.707  0.00  0.00    +0.032 HD
ATOM     46  H   UNL     1       5.666  19.460  32.800  0.00  0.00    +0.063 HD
ATOM     47  H   UNL     1       4.511  18.341  31.219  0.00  0.00    +0.066 HD
ATOM     48  H   UNL     1       6.596  19.030  29.181  0.00  0.00    +0.060 HD
ATOM     49  H   UNL     1       6.150  18.705  26.937  0.00  0.00    +0.062 HD
ATOM     50  H   UNL     1       3.269  17.823  26.323  0.00  0.00    +0.069 HD
ENDROOT
BRANCH  21  51
ATOM     51  C   UNL     1       3.659  17.178  28.878  0.00  0.00    -0.040 C 
ATOM     52  H   UNL     1       3.697  16.714  29.869  0.00  0.00    +0.028 HD
ATOM     53  H   UNL     1       2.767  17.815  28.845  0.00  0.00    +0.028 HD
ATOM     54  H   UNL     1       3.528  16.354  28.166  0.00  0.00    +0.028 HD
ENDBRANCH  21  51
BRANCH   2  55
ATOM     55  C   UNL     1       7.068  20.921  23.870  0.00  0.00    -0.057 C 
ATOM     56  H   UNL     1       7.272  20.684  24.921  0.00  0.00    +0.023 HD
ATOM     57  H   UNL     1       7.668  21.794  23.601  0.00  0.00    +0.023 HD
ATOM     58  H   UNL     1       6.011  21.202  23.796  0.00  0.00    +0.023 HD
ENDBRANCH   2  55
BRANCH   1  59
ATOM     59  C   UNL     1       6.442  17.299  22.345  0.00  0.00    +0.020 C 
ATOM     60  H   UNL     1       7.512  17.248  22.118  0.00  0.00    +0.036 HD
BRANCH  59  61
ATOM     61  C   UNL     1       6.245  16.081  23.262  0.00  0.00    -0.057 C 
ATOM     62  H   UNL     1       6.854  16.173  24.168  0.00  0.00    +0.023 HD
ATOM     63  H   UNL     1       5.203  16.006  23.593  0.00  0.00    +0.023 HD
ATOM     64  H   UNL     1       6.507  15.142  22.767  0.00  0.00    +0.023 HD
ENDBRANCH  59  61
BRANCH  59  65
ATOM     65  C   UNL     1       5.667  17.150  21.002  0.00  0.00    +0.064 C 
ATOM     66  H   UNL     1       6.001  17.905  20.284  0.00  0.00    +0.060 HD
BRANCH  65  67
ATOM     67  C   UNL     1       4.105  17.192  21.042  0.00  0.00    -0.017 C 
ATOM     68  H   UNL     1       3.799  17.204  22.089  0.00  0.00    +0.032 HD
BRANCH  67  69
ATOM     69  C   UNL     1       3.558  18.448  20.359  0.00  0.00    -0.060 C 
ATOM     70  H   UNL     1       2.967  18.208  19.471  0.00  0.00    +0.023 HD
ATOM     71  H   UNL     1       4.368  19.119  20.056  0.00  0.00    +0.023 HD
ATOM     72  H   UNL     1       2.878  18.998  21.012  0.00  0.00    +0.023 HD
ENDBRANCH  67  69
BRANCH  67  73
ATOM     73  C   UNL     1       3.522  15.897  20.413  0.00  0.00    -0.046 C 
ATOM     74  H   UNL     1       3.007  16.186  19.486  0.00  0.00    +0.027 HD
ATOM     75  H   UNL     1       4.342  15.235  20.107  0.00  0.00    +0.027 HD
BRANCH  73  76
ATOM     76  C   UNL     1       2.527  15.064  21.230  0.00  0.00    -0.026 C 
ATOM     77  H   UNL     1       2.992  14.154  21.625  0.00  0.00    +0.029 HD
ATOM     78  H   UNL     1       2.299  15.647  22.135  0.00  0.00    +0.029 HD
BRANCH  76  83
ATOM     79  C   UNL     1       1.286  13.516  18.488  0.00  0.00    +0.059 C 
ATOM     80  C   UNL     1      -0.118  13.961  18.092  0.00  0.00    -0.000 C 
ATOM     81  C   UNL     1      -0.476  15.313  18.722  0.00  0.00    +0.063 C 
ATOM     82  C   UNL     1       0.611  15.822  19.670  0.00  0.00    -0.000 C 
ATOM     83  C   UNL     1       1.171  14.725  20.580  0.00  0.00    +0.061 C 
ATOM     84  O   UNL     1       1.365  13.465  19.911  0.00  0.00    -0.373 OA
ATOM     85  H   UNL     1       2.046  14.206  18.103  0.00  0.00    +0.059 HD
ATOM     86  H   UNL     1      -0.196  14.031  17.002  0.00  0.00    +0.032 HD
ATOM     87  H   UNL     1      -0.843  13.201  18.413  0.00  0.00    +0.032 HD
ATOM     88  H   UNL     1      -0.608  16.065  17.934  0.00  0.00    +0.060 HD
ATOM     89  H   UNL     1       1.421  16.241  19.062  0.00  0.00    +0.032 HD
ATOM     90  H   UNL     1       0.204  16.632  20.281  0.00  0.00    +0.032 HD
ATOM     91  H   UNL     1       0.445  14.528  21.379  0.00  0.00    +0.060 HD
BRANCH  79  92
ATOM     92  C   UNL     1       1.592  12.123  17.952  0.00  0.00    -0.039 C 
ATOM     93  H   UNL     1       0.680  11.604  17.648  0.00  0.00    +0.025 HD
ATOM     94  H   UNL     1       2.263  12.187  17.092  0.00  0.00    +0.025 HD
ATOM     95  H   UNL     1       2.107  11.517  18.709  0.00  0.00    +0.025 HD
ENDBRANCH  79  92
BRANCH  81  96
ATOM     96  O   UNL     1      -1.704  15.214  19.457  0.00  0.00    -0.380 OA
BRANCH  96  97
ATOM     97  C   UNL     1      -2.764  14.642  18.699  0.00  0.00    +0.037 C 
ATOM     98  H   UNL     1      -3.578  15.367  18.587  0.00  0.00    +0.052 HD
ATOM     99  H   UNL     1      -3.144  13.771  19.241  0.00  0.00    +0.052 HD
ATOM    100  H   UNL     1      -2.418  14.313  17.712  0.00  0.00    +0.052 HD
ENDBRANCH  96  97
ENDBRANCH  81  96
ENDBRANCH  76  83
ENDBRANCH  73  76
ENDBRANCH  67  73
ENDBRANCH  65  67
BRANCH  65 101
ATOM    101  O   UNL     1       6.055  15.883  20.446  0.00  0.00    -0.391 OA
ATOM    102  H   UNL     1       6.646  16.083  19.690  0.00  0.00    +0.210 HD
ENDBRANCH  65 101
ENDBRANCH  59  65
ENDBRANCH   1  59
BRANCH  19 103
ATOM    103  O   UNL     1       6.089  17.067  31.437  0.00  0.00    -0.385 OA
ATOM    104  H   UNL     1       6.661  16.720  30.729  0.00  0.00    +0.210 HD
ENDBRANCH  19 103
BRANCH  18 105
ATOM    105  O   UNL     1       5.923  20.740  31.205  0.00  0.00    -0.377 OA
BRANCH 105 106
ATOM    106  C   UNL     1       6.182  21.867  32.030  0.00  0.00    +0.037 C 
ATOM    107  H   UNL     1       6.305  21.587  33.082  0.00  0.00    +0.052 HD
ATOM    108  H   UNL     1       7.109  22.336  31.687  0.00  0.00    +0.052 HD
ATOM    109  H   UNL     1       5.370  22.595  31.931  0.00  0.00    +0.052 HD
ENDBRANCH 105 106
ENDBRANCH  18 105
BRANCH   9 110
ATOM    110  O   UNL     1      10.840  20.251  26.495  0.00  0.00    -0.377 OA
BRANCH 110 111
ATOM    111  C   UNL     1      12.054  20.990  26.565  0.00  0.00    +0.037 C 
ATOM    112  H   UNL     1      12.859  20.360  26.954  0.00  0.00    +0.052 HD
ATOM    113  H   UNL     1      11.907  21.826  27.252  0.00  0.00    +0.052 HD
ATOM    114  H   UNL     1      12.332  21.390  25.584  0.00  0.00    +0.052 HD
ENDBRANCH 110 111
ENDBRANCH   9 110
BRANCH   5 115
ATOM    115  O   UNL     1      10.778  16.896  23.993  0.00  0.00    -0.377 OA
BRANCH 115 116
ATOM    116  C   UNL     1      11.976  16.975  23.232  0.00  0.00    +0.037 C 
ATOM    117  H   UNL     1      11.848  16.482  22.264  0.00  0.00    +0.052 HD
ATOM    118  H   UNL     1      12.280  18.014  23.079  0.00  0.00    +0.052 HD
ATOM    119  H   UNL     1      12.765  16.457  23.782  0.00  0.00    +0.052 HD
ENDBRANCH 115 116
ENDBRANCH   5 115
BRANCH   3 120
ATOM    120  O   UNL     1       9.234  18.381  22.124  0.00  0.00    -0.379 OA
BRANCH 120 121
ATOM    121  C   UNL     1       9.581  19.126  20.963  0.00  0.00    +0.037 C 
ATOM    122  H   UNL     1       9.273  20.163  21.119  0.00  0.00    +0.052 HD
ATOM    123  H   UNL     1       9.052  18.737  20.088  0.00  0.00    +0.052 HD
ATOM    124  H   UNL     1      10.660  19.107  20.790  0.00  0.00    +0.052 HD
ENDBRANCH 120 121
ENDBRANCH   3 120
TORSDOF 23
ENDMDL
MODEL 5
REMARK VINA RESULT:      -5.4      8.625     13.670
REMARK  Name = Lobophorolide_conf3
REMARK  23 active torsions:
REMARK  status: ('A' for Active; 'I' for Inactive)
REMARK    1  A    between atoms: C_1  and  C_2
REMARK    2  A    between atoms: C_4  and  O_53
REMARK    3  A    between atoms: C_6  and  C_8
REMARK    4  A    between atoms: C_8  and  C_9
REMARK    5  A    between atoms: C_9  and  C_10
REMARK    6  A    between atoms: C_10  and  C_11
REMARK    7  A    between atoms: C_10  and  C_12
REMARK    8  A    between atoms: C_12  and  C_13
REMARK    9  A    between atoms: C_12  and  O_52
REMARK   10  A    between atoms: C_13  and  C_14
REMARK   11  A    between atoms: C_13  and  C_15
REMARK   12  A    between atoms: C_16  and  C_51
REMARK   13  A    between atoms: C_17  and  O_49
REMARK   14  A    between atoms: C_19  and  O_47
REMARK   15  A    between atoms: C_23  and  O_45
REMARK   16  A    between atoms: C_32  and  O_43
REMARK   17  A    between atoms: C_33  and  O_42
REMARK   18  A    between atoms: C_35  and  C_41
REMARK   19  A    between atoms: O_43  and  C_44
REMARK   20  A    between atoms: O_45  and  C_46
REMARK   21  A    between atoms: O_47  and  C_48
REMARK   22  A    between atoms: O_49  and  C_50
REMARK   23  A    between atoms: O_53  and  C_54
REMARK                            x       y       z     vdW  Elec       q    Type
REMARK                         _______ _______ _______ _____ _____    ______ ____
ROOT
ATOM      1  C   UNL     1     -10.299   5.496  15.279  0.00  0.00    +0.113 C 
ATOM      2  C   UNL     1     -11.193   4.221  15.427  0.00  0.00    +0.020 C 
ATOM      3  C   UNL     1     -10.509   2.890  15.853  0.00  0.00    +0.067 C 
ATOM      4  C   UNL     1      -9.316   2.449  14.973  0.00  0.00    +0.003 C 
ATOM      5  C   UNL     1      -8.762   1.071  15.405  0.00  0.00    +0.094 C 
ATOM      6  C   UNL     1      -7.967   0.396  14.282  0.00  0.00    +0.145 C 
ATOM      7  C   UNL     1      -6.466   0.653  14.189  0.00  0.00    +0.083 C 
ATOM      8  O   UNL     1      -6.978  -0.551  14.762  0.00  0.00    -0.363 OA
ATOM      9  C   UNL     1      -8.725  -0.183  13.083  0.00  0.00    +0.094 C 
ATOM     10  C   UNL     1      -8.440   0.594  11.788  0.00  0.00    +0.003 C 
ATOM     11  C   UNL     1      -9.232   0.107  10.555  0.00  0.00    +0.065 C 
ATOM     12  C   UNL     1      -9.070  -1.375  10.180  0.00  0.00    -0.008 C 
ATOM     13  C   UNL     1      -7.747  -1.638   9.531  0.00  0.00    -0.083 C 
ATOM     14  C   UNL     1      -7.070  -0.635   8.952  0.00  0.00    -0.059 C 
ATOM     15  C   UNL     1      -7.580   0.793   8.904  0.00  0.00    +0.080 C 
ATOM     16  O   UNL     1      -8.924   0.905   9.396  0.00  0.00    -0.369 OA
ATOM     17  C   UNL     1      -7.525   1.311   7.460  0.00  0.00    +0.006 C 
ATOM     18  C   UNL     1      -7.939   2.782   7.222  0.00  0.00    +0.090 C 
ATOM     19  C   UNL     1      -7.217   3.836   8.114  0.00  0.00    +0.100 C 
ATOM     20  C   UNL     1      -7.832   4.096   9.467  0.00  0.00    -0.051 C 
ATOM     21  C   UNL     1      -7.826   5.261  10.150  0.00  0.00    -0.052 C 
ATOM     22  C   UNL     1      -8.585   5.349  11.395  0.00  0.00    -0.052 C 
ATOM     23  C   UNL     1      -8.893   6.493  12.023  0.00  0.00    +0.023 C 
ATOM     24  C   UNL     1      -9.702   6.581  13.248  0.00  0.00    +0.332 C 
ATOM     25  O   UNL     1     -10.294   7.608  13.542  0.00  0.00    -0.246 OA
ATOM     26  O   UNL     1      -9.624   5.447  13.996  0.00  0.00    -0.458 OA
ATOM     27  H   UNL     1     -11.010   6.328  15.276  0.00  0.00    +0.074 HD
ATOM     28  H   UNL     1     -11.913   4.466  16.221  0.00  0.00    +0.036 HD
ATOM     29  H   UNL     1     -11.259   2.091  15.780  0.00  0.00    +0.060 HD
ATOM     30  H   UNL     1      -8.502   3.180  15.036  0.00  0.00    +0.032 HD
ATOM     31  H   UNL     1      -9.646   2.412  13.930  0.00  0.00    +0.032 HD
ATOM     32  H   UNL     1      -9.595   0.421  15.698  0.00  0.00    +0.063 HD
ATOM     33  H   UNL     1      -5.947   0.564  13.244  0.00  0.00    +0.059 HD
ATOM     34  H   UNL     1      -6.020   1.382  14.857  0.00  0.00    +0.059 HD
ATOM     35  H   UNL     1      -8.399  -1.222  12.936  0.00  0.00    +0.063 HD
ATOM     36  H   UNL     1      -7.367   0.565  11.579  0.00  0.00    +0.032 HD
ATOM     37  H   UNL     1      -8.674   1.656  11.935  0.00  0.00    +0.032 HD
ATOM     38  H   UNL     1     -10.297   0.281  10.755  0.00  0.00    +0.060 HD
ATOM     39  H   UNL     1      -9.843  -1.643   9.449  0.00  0.00    +0.033 HD
ATOM     40  H   UNL     1      -9.212  -2.029  11.042  0.00  0.00    +0.033 HD
ATOM     41  H   UNL     1      -7.357  -2.651   9.519  0.00  0.00    +0.057 HD
ATOM     42  H   UNL     1      -6.099  -0.832   8.505  0.00  0.00    +0.059 HD
ATOM     43  H   UNL     1      -6.922   1.396   9.536  0.00  0.00    +0.064 HD
ATOM     44  H   UNL     1      -6.502   1.187   7.080  0.00  0.00    +0.032 HD
ATOM     45  H   UNL     1      -8.167   0.670   6.845  0.00  0.00    +0.032 HD
ATOM     46  H   UNL     1      -7.624   3.009   6.193  0.00  0.00    +0.063 HD
ATOM     47  H   UNL     1      -7.246   4.773   7.545  0.00  0.00    +0.066 HD
ATOM     48  H   UNL     1      -8.427   3.276   9.857  0.00  0.00    +0.060 HD
ATOM     49  H   UNL     1      -8.961   4.411  11.798  0.00  0.00    +0.062 HD
ATOM     50  H   UNL     1      -8.613   7.462  11.630  0.00  0.00    +0.069 HD
ENDROOT
BRANCH  21  51
ATOM     51  C   UNL     1      -7.070   6.483   9.692  0.00  0.00    -0.040 C 
ATOM     52  H   UNL     1      -7.133   7.315  10.400  0.00  0.00    +0.028 HD
ATOM     53  H   UNL     1      -6.008   6.245   9.555  0.00  0.00    +0.028 HD
ATOM     54  H   UNL     1      -7.470   6.864   8.744  0.00  0.00    +0.028 HD
ENDBRANCH  21  51
BRANCH   2  55
ATOM     55  C   UNL     1     -12.031   4.001  14.157  0.00  0.00    -0.057 C 
ATOM     56  H   UNL     1     -12.367   4.961  13.746  0.00  0.00    +0.023 HD
ATOM     57  H   UNL     1     -11.472   3.480  13.375  0.00  0.00    +0.023 HD
ATOM     58  H   UNL     1     -12.925   3.409  14.382  0.00  0.00    +0.023 HD
ENDBRANCH   2  55
BRANCH   1  59
ATOM     59  C   UNL     1      -9.257   5.754  16.408  0.00  0.00    +0.020 C 
ATOM     60  H   UNL     1      -9.490   5.047  17.212  0.00  0.00    +0.036 HD
BRANCH  59  61
ATOM     61  C   UNL     1      -7.820   5.357  16.032  0.00  0.00    -0.057 C 
ATOM     62  H   UNL     1      -7.118   6.161  16.280  0.00  0.00    +0.023 HD
ATOM     63  H   UNL     1      -7.498   4.476  16.599  0.00  0.00    +0.023 HD
ATOM     64  H   UNL     1      -7.718   5.128  14.969  0.00  0.00    +0.023 HD
ENDBRANCH  59  61
BRANCH  59  65
ATOM     65  C   UNL     1      -9.330   7.190  17.007  0.00  0.00    +0.064 C 
ATOM     66  H   UNL     1     -10.247   7.691  16.685  0.00  0.00    +0.060 HD
BRANCH  65  67
ATOM     67  C   UNL     1      -8.137   8.164  16.736  0.00  0.00    -0.017 C 
ATOM     68  H   UNL     1      -7.443   7.661  16.061  0.00  0.00    +0.032 HD
BRANCH  67  69
ATOM     69  C   UNL     1      -8.608   9.461  16.075  0.00  0.00    -0.060 C 
ATOM     70  H   UNL     1      -8.272  10.346  16.623  0.00  0.00    +0.023 HD
ATOM     71  H   UNL     1      -9.700   9.498  16.010  0.00  0.00    +0.023 HD
ATOM     72  H   UNL     1      -8.197   9.574  15.071  0.00  0.00    +0.023 HD
ENDBRANCH  67  69
BRANCH  67  73
ATOM     73  C   UNL     1      -7.365   8.440  18.056  0.00  0.00    -0.046 C 
ATOM     74  H   UNL     1      -7.963   9.152  18.642  0.00  0.00    +0.027 HD
ATOM     75  H   UNL     1      -7.321   7.521  18.655  0.00  0.00    +0.027 HD
BRANCH  73  76
ATOM     76  C   UNL     1      -5.946   9.015  17.973  0.00  0.00    -0.026 C 
ATOM     77  H   UNL     1      -5.192   8.270  18.251  0.00  0.00    +0.029 HD
ATOM     78  H   UNL     1      -5.743   9.197  16.907  0.00  0.00    +0.029 HD
BRANCH  76  83
ATOM     79  C   UNL     1      -7.346  12.064  18.420  0.00  0.00    +0.059 C 
ATOM     80  C   UNL     1      -6.359  13.165  18.792  0.00  0.00    -0.000 C 
ATOM     81  C   UNL     1      -4.920  12.771  18.436  0.00  0.00    +0.063 C 
ATOM     82  C   UNL     1      -4.821  11.341  17.901  0.00  0.00    -0.000 C 
ATOM     83  C   UNL     1      -5.667  10.345  18.701  0.00  0.00    +0.061 C 
ATOM     84  O   UNL     1      -6.958  10.860  19.077  0.00  0.00    -0.373 OA
ATOM     85  H   UNL     1      -7.369  11.899  17.336  0.00  0.00    +0.059 HD
ATOM     86  H   UNL     1      -6.623  14.095  18.279  0.00  0.00    +0.032 HD
ATOM     87  H   UNL     1      -6.430  13.366  19.869  0.00  0.00    +0.032 HD
ATOM     88  H   UNL     1      -4.533  13.443  17.659  0.00  0.00    +0.060 HD
ATOM     89  H   UNL     1      -5.151  11.346  16.857  0.00  0.00    +0.032 HD
ATOM     90  H   UNL     1      -3.774  11.025  17.914  0.00  0.00    +0.032 HD
ATOM     91  H   UNL     1      -5.151  10.122  19.642  0.00  0.00    +0.060 HD
BRANCH  79  92
ATOM     92  C   UNL     1      -8.756  12.413  18.878  0.00  0.00    -0.039 C 
ATOM     93  H   UNL     1      -8.888  13.494  18.975  0.00  0.00    +0.025 HD
ATOM     94  H   UNL     1      -9.491  12.033  18.165  0.00  0.00    +0.025 HD
ATOM     95  H   UNL     1      -8.982  11.943  19.843  0.00  0.00    +0.025 HD
ENDBRANCH  79  92
BRANCH  81  96
ATOM     96  O   UNL     1      -4.071  12.881  19.587  0.00  0.00    -0.380 OA
BRANCH  96  97
ATOM     97  C   UNL     1      -4.746  13.388  20.732  0.00  0.00    +0.037 C 
ATOM     98  H   UNL     1      -5.826  13.225  20.632  0.00  0.00    +0.052 HD
ATOM     99  H   UNL     1      -4.560  14.464  20.794  0.00  0.00    +0.052 HD
ATOM    100  H   UNL     1      -4.382  12.919  21.653  0.00  0.00    +0.052 HD
ENDBRANCH  96  97
ENDBRANCH  81  96
ENDBRANCH  76  83
ENDBRANCH  73  76
ENDBRANCH  67  73
ENDBRANCH  65  67
BRANCH  65 101
ATOM    101  O   UNL     1      -9.449   7.033  18.431  0.00  0.00    -0.391 OA
ATOM    102  H   UNL     1      -9.056   7.837  18.830  0.00  0.00    +0.210 HD
ENDBRANCH  65 101
ENDBRANCH  59  65
ENDBRANCH   1  59
BRANCH  19 103
ATOM    103  O   UNL     1      -5.844   3.487   8.281  0.00  0.00    -0.385 OA
ATOM    104  H   UNL     1      -5.799   2.518   8.376  0.00  0.00    +0.210 HD
ENDBRANCH  19 103
BRANCH  18 105
ATOM    105  O   UNL     1      -9.359   2.976   7.304  0.00  0.00    -0.377 OA
BRANCH 105 106
ATOM    106  C   UNL     1     -10.090   2.284   6.302  0.00  0.00    +0.037 C 
ATOM    107  H   UNL     1      -9.515   2.174   5.376  0.00  0.00    +0.052 HD
ATOM    108  H   UNL     1     -10.329   1.286   6.681  0.00  0.00    +0.052 HD
ATOM    109  H   UNL     1     -11.029   2.810   6.098  0.00  0.00    +0.052 HD
ENDBRANCH 105 106
ENDBRANCH  18 105
BRANCH   9 110
ATOM    110  O   UNL     1     -10.141  -0.158  13.318  0.00  0.00    -0.377 OA
BRANCH 110 111
ATOM    111  C   UNL     1     -10.670  -1.449  13.601  0.00  0.00    +0.037 C 
ATOM    112  H   UNL     1     -10.237  -1.841  14.525  0.00  0.00    +0.052 HD
ATOM    113  H   UNL     1     -10.399  -2.117  12.781  0.00  0.00    +0.052 HD
ATOM    114  H   UNL     1     -11.762  -1.421  13.681  0.00  0.00    +0.052 HD
ENDBRANCH 110 111
ENDBRANCH   9 110
BRANCH   5 115
ATOM    115  O   UNL     1      -7.914   1.298  16.549  0.00  0.00    -0.377 OA
BRANCH 115 116
ATOM    116  C   UNL     1      -8.196   0.425  17.634  0.00  0.00    +0.037 C 
ATOM    117  H   UNL     1      -7.346   0.381  18.322  0.00  0.00    +0.052 HD
ATOM    118  H   UNL     1      -9.091   0.741  18.175  0.00  0.00    +0.052 HD
ATOM    119  H   UNL     1      -8.365  -0.577  17.232  0.00  0.00    +0.052 HD
ENDBRANCH 115 116
ENDBRANCH   5 115
BRANCH   3 120
ATOM    120  O   UNL     1     -10.096   2.990  17.227  0.00  0.00    -0.379 OA
BRANCH 120 121
ATOM    121  C   UNL     1     -11.183   2.971  18.144  0.00  0.00    +0.037 C 
ATOM    122  H   UNL     1     -11.822   2.119  17.897  0.00  0.00    +0.052 HD
ATOM    123  H   UNL     1     -11.775   3.885  18.052  0.00  0.00    +0.052 HD
ATOM    124  H   UNL     1     -10.830   2.852  19.172  0.00  0.00    +0.052 HD
ENDBRANCH 120 121
ENDBRANCH   3 120
TORSDOF 23
ENDMDL
MODEL 6
REMARK VINA RESULT:      -5.4      2.212      4.553
REMARK  Name = Lobophorolide_conf3
REMARK  23 active torsions:
REMARK  status: ('A' for Active; 'I' for Inactive)
REMARK    1  A    between atoms: C_1  and  C_2
REMARK    2  A    between atoms: C_4  and  O_53
REMARK    3  A    between atoms: C_6  and  C_8
REMARK    4  A    between atoms: C_8  and  C_9
REMARK    5  A    between atoms: C_9  and  C_10
REMARK    6  A    between atoms: C_10  and  C_11
REMARK    7  A    between atoms: C_10  and  C_12
REMARK    8  A    between atoms: C_12  and  C_13
REMARK    9  A    between atoms: C_12  and  O_52
REMARK   10  A    between atoms: C_13  and  C_14
REMARK   11  A    between atoms: C_13  and  C_15
REMARK   12  A    between atoms: C_16  and  C_51
REMARK   13  A    between atoms: C_17  and  O_49
REMARK   14  A    between atoms: C_19  and  O_47
REMARK   15  A    between atoms: C_23  and  O_45
REMARK   16  A    between atoms: C_32  and  O_43
REMARK   17  A    between atoms: C_33  and  O_42
REMARK   18  A    between atoms: C_35  and  C_41
REMARK   19  A    between atoms: O_43  and  C_44
REMARK   20  A    between atoms: O_45  and  C_46
REMARK   21  A    between atoms: O_47  and  C_48
REMARK   22  A    between atoms: O_49  and  C_50
REMARK   23  A    between atoms: O_53  and  C_54
REMARK                            x       y       z     vdW  Elec       q    Type
REMARK                         _______ _______ _______ _____ _____    ______ ____
ROOT
ATOM      1  C   UNL     1      -4.750  14.698  18.960  0.00  0.00    +0.113 C 
ATOM      2  C   UNL     1      -5.324  13.881  17.757  0.00  0.00    +0.020 C 
ATOM      3  C   UNL     1      -6.561  14.452  17.006  0.00  0.00    +0.067 C 
ATOM      4  C   UNL     1      -7.784  14.775  17.897  0.00  0.00    +0.003 C 
ATOM      5  C   UNL     1      -8.998  15.240  17.060  0.00  0.00    +0.094 C 
ATOM      6  C   UNL     1     -10.318  15.069  17.820  0.00  0.00    +0.145 C 
ATOM      7  C   UNL     1     -10.826  16.223  18.678  0.00  0.00    +0.083 C 
ATOM      8  O   UNL     1     -11.363  15.973  17.377  0.00  0.00    -0.363 OA
ATOM      9  C   UNL     1     -10.880  13.657  18.017  0.00  0.00    +0.094 C 
ATOM     10  C   UNL     1     -10.850  13.223  19.492  0.00  0.00    +0.003 C 
ATOM     11  C   UNL     1     -11.334  11.779  19.750  0.00  0.00    +0.065 C 
ATOM     12  C   UNL     1     -12.749  11.433  19.256  0.00  0.00    -0.008 C 
ATOM     13  C   UNL     1     -13.801  12.027  20.139  0.00  0.00    -0.083 C 
ATOM     14  C   UNL     1     -13.506  12.369  21.402  0.00  0.00    -0.059 C 
ATOM     15  C   UNL     1     -12.131  12.180  22.015  0.00  0.00    +0.080 C 
ATOM     16  O   UNL     1     -11.249  11.449  21.150  0.00  0.00    -0.369 OA
ATOM     17  C   UNL     1     -12.261  11.434  23.350  0.00  0.00    +0.006 C 
ATOM     18  C   UNL     1     -10.964  11.210  24.163  0.00  0.00    +0.090 C 
ATOM     19  C   UNL     1     -10.112  12.486  24.433  0.00  0.00    +0.100 C 
ATOM     20  C   UNL     1      -9.127  12.870  23.355  0.00  0.00    -0.051 C 
ATOM     21  C   UNL     1      -7.936  13.479  23.526  0.00  0.00    -0.052 C 
ATOM     22  C   UNL     1      -7.065  13.657  22.367  0.00  0.00    -0.052 C 
ATOM     23  C   UNL     1      -5.767  13.986  22.429  0.00  0.00    +0.023 C 
ATOM     24  C   UNL     1      -4.880  14.113  21.262  0.00  0.00    +0.332 C 
ATOM     25  O   UNL     1      -3.669  13.999  21.373  0.00  0.00    -0.246 OA
ATOM     26  O   UNL     1      -5.564  14.438  20.132  0.00  0.00    -0.458 OA
ATOM     27  H   UNL     1      -3.751  14.280  19.121  0.00  0.00    +0.074 HD
ATOM     28  H   UNL     1      -4.508  13.841  17.021  0.00  0.00    +0.036 HD
ATOM     29  H   UNL     1      -6.896  13.692  16.287  0.00  0.00    +0.060 HD
ATOM     30  H   UNL     1      -7.538  15.568  18.612  0.00  0.00    +0.032 HD
ATOM     31  H   UNL     1      -8.044  13.881  18.472  0.00  0.00    +0.032 HD
ATOM     32  H   UNL     1      -9.040  14.662  16.130  0.00  0.00    +0.063 HD
ATOM     33  H   UNL     1     -11.479  16.041  19.520  0.00  0.00    +0.059 HD
ATOM     34  H   UNL     1     -10.194  17.095  18.805  0.00  0.00    +0.059 HD
ATOM     35  H   UNL     1     -11.926  13.650  17.681  0.00  0.00    +0.063 HD
ATOM     36  H   UNL     1     -11.439  13.927  20.086  0.00  0.00    +0.032 HD
ATOM     37  H   UNL     1      -9.827  13.305  19.880  0.00  0.00    +0.032 HD
ATOM     38  H   UNL     1     -10.635  11.100  19.246  0.00  0.00    +0.060 HD
ATOM     39  H   UNL     1     -12.880  10.345  19.290  0.00  0.00    +0.033 HD
ATOM     40  H   UNL     1     -12.901  11.737  18.219  0.00  0.00    +0.033 HD
ATOM     41  H   UNL     1     -14.806  12.157  19.750  0.00  0.00    +0.057 HD
ATOM     42  H   UNL     1     -14.271  12.822  22.028  0.00  0.00    +0.059 HD
ATOM     43  H   UNL     1     -11.710  13.174  22.189  0.00  0.00    +0.064 HD
ATOM     44  H   UNL     1     -12.966  11.980  23.992  0.00  0.00    +0.032 HD
ATOM     45  H   UNL     1     -12.714  10.456  23.150  0.00  0.00    +0.032 HD
ATOM     46  H   UNL     1     -11.299  10.869  25.154  0.00  0.00    +0.063 HD
ATOM     47  H   UNL     1      -9.545  12.273  25.347  0.00  0.00    +0.066 HD
ATOM     48  H   UNL     1      -9.381  12.507  22.364  0.00  0.00    +0.060 HD
ATOM     49  H   UNL     1      -7.509  13.453  21.395  0.00  0.00    +0.062 HD
ATOM     50  H   UNL     1      -5.250  14.126  23.370  0.00  0.00    +0.069 HD
ENDROOT
BRANCH  21  51
ATOM     51  C   UNL     1      -7.454  13.992  24.860  0.00  0.00    -0.040 C 
ATOM     52  H   UNL     1      -6.393  14.264  24.857  0.00  0.00    +0.028 HD
ATOM     53  H   UNL     1      -8.022  14.884  25.153  0.00  0.00    +0.028 HD
ATOM     54  H   UNL     1      -7.567  13.232  25.642  0.00  0.00    +0.028 HD
ENDBRANCH  21  51
BRANCH   2  55
ATOM     55  C   UNL     1      -5.584  12.423  18.171  0.00  0.00    -0.057 C 
ATOM     56  H   UNL     1      -6.460  12.360  18.829  0.00  0.00    +0.023 HD
ATOM     57  H   UNL     1      -5.766  11.773  17.310  0.00  0.00    +0.023 HD
ATOM     58  H   UNL     1      -4.728  12.020  18.723  0.00  0.00    +0.023 HD
ENDBRANCH   2  55
BRANCH   1  59
ATOM     59  C   UNL     1      -4.603  16.235  18.755  0.00  0.00    +0.020 C 
ATOM     60  H   UNL     1      -5.130  16.476  17.826  0.00  0.00    +0.036 HD
BRANCH  59  61
ATOM     61  C   UNL     1      -5.368  17.077  19.789  0.00  0.00    -0.057 C 
ATOM     62  H   UNL     1      -4.912  18.067  19.899  0.00  0.00    +0.023 HD
ATOM     63  H   UNL     1      -6.402  17.244  19.468  0.00  0.00    +0.023 HD
ATOM     64  H   UNL     1      -5.396  16.602  20.773  0.00  0.00    +0.023 HD
ENDBRANCH  59  61
BRANCH  59  65
ATOM     65  C   UNL     1      -3.127  16.705  18.596  0.00  0.00    +0.064 C 
ATOM     66  H   UNL     1      -2.991  17.218  17.639  0.00  0.00    +0.060 HD
BRANCH  65  67
ATOM     67  C   UNL     1      -1.993  15.636  18.726  0.00  0.00    -0.017 C 
ATOM     68  H   UNL     1      -2.411  14.769  19.241  0.00  0.00    +0.032 HD
BRANCH  67  69
ATOM     69  C   UNL     1      -1.480  15.190  17.356  0.00  0.00    -0.060 C 
ATOM     70  H   UNL     1      -0.556  15.705  17.077  0.00  0.00    +0.023 HD
ATOM     71  H   UNL     1      -2.222  15.379  16.574  0.00  0.00    +0.023 HD
ATOM     72  H   UNL     1      -1.228  14.128  17.346  0.00  0.00    +0.023 HD
ENDBRANCH  67  69
BRANCH  67  73
ATOM     73  C   UNL     1      -0.845  16.184  19.619  0.00  0.00    -0.046 C 
ATOM     74  H   UNL     1      -0.163  16.747  18.966  0.00  0.00    +0.027 HD
ATOM     75  H   UNL     1      -1.250  16.914  20.331  0.00  0.00    +0.027 HD
BRANCH  73  76
ATOM     76  C   UNL     1       0.016  15.188  20.406  0.00  0.00    -0.026 C 
ATOM     77  H   UNL     1      -0.133  15.293  21.486  0.00  0.00    +0.029 HD
ATOM     78  H   UNL     1      -0.386  14.187  20.188  0.00  0.00    +0.029 HD
BRANCH  76  83
ATOM     79  C   UNL     1       2.975  14.630  21.951  0.00  0.00    +0.059 C 
ATOM     80  C   UNL     1       4.181  15.241  21.245  0.00  0.00    -0.000 C 
ATOM     81  C   UNL     1       3.760  16.344  20.267  0.00  0.00    +0.063 C 
ATOM     82  C   UNL     1       2.240  16.482  20.162  0.00  0.00    -0.000 C 
ATOM     83  C   UNL     1       1.522  15.131  20.083  0.00  0.00    +0.061 C 
ATOM     84  O   UNL     1       2.071  14.135  20.966  0.00  0.00    -0.373 OA
ATOM     85  H   UNL     1       2.464  15.370  22.579  0.00  0.00    +0.059 HD
ATOM     86  H   UNL     1       4.880  15.650  21.983  0.00  0.00    +0.032 HD
ATOM     87  H   UNL     1       4.720  14.453  20.702  0.00  0.00    +0.032 HD
ATOM     88  H   UNL     1       4.158  17.310  20.604  0.00  0.00    +0.060 HD
ATOM     89  H   UNL     1       1.888  17.031  21.042  0.00  0.00    +0.032 HD
ATOM     90  H   UNL     1       1.993  17.079  19.280  0.00  0.00    +0.032 HD
ATOM     91  H   UNL     1       1.643  14.728  19.070  0.00  0.00    +0.060 HD
BRANCH  79  92
ATOM     92  C   UNL     1       3.390  13.461  22.836  0.00  0.00    -0.039 C 
ATOM     93  H   UNL     1       2.622  13.231  23.578  0.00  0.00    +0.025 HD
ATOM     94  H   UNL     1       3.568  12.571  22.228  0.00  0.00    +0.025 HD
ATOM     95  H   UNL     1       4.330  13.680  23.357  0.00  0.00    +0.025 HD
ENDBRANCH  79  92
BRANCH  81  96
ATOM     96  O   UNL     1       4.279  16.077  18.957  0.00  0.00    -0.380 OA
BRANCH  96  97
ATOM     97  C   UNL     1       4.989  14.846  18.878  0.00  0.00    +0.037 C 
ATOM     98  H   UNL     1       5.828  14.942  18.180  0.00  0.00    +0.052 HD
ATOM     99  H   UNL     1       4.307  14.079  18.500  0.00  0.00    +0.052 HD
ATOM    100  H   UNL     1       5.355  14.531  19.862  0.00  0.00    +0.052 HD
ENDBRANCH  96  97
ENDBRANCH  81  96
ENDBRANCH  76  83
ENDBRANCH  73  76
ENDBRANCH  67  73
ENDBRANCH  65  67
BRANCH  65 101
ATOM    101  O   UNL     1      -2.905  17.701  19.609  0.00  0.00    -0.391 OA
ATOM    102  H   UNL     1      -1.951  17.925  19.570  0.00  0.00    +0.210 HD
ENDBRANCH  65 101
ENDBRANCH  59  65
ENDBRANCH   1  59
BRANCH  19 103
ATOM    103  O   UNL     1     -10.960  13.599  24.712  0.00  0.00    -0.385 OA
ATOM    104  H   UNL     1     -11.846  13.247  24.913  0.00  0.00    +0.210 HD
ENDBRANCH  19 103
BRANCH  18 105
ATOM    105  O   UNL     1     -10.130  10.186  23.600  0.00  0.00    -0.377 OA
BRANCH 105 106
ATOM    106  C   UNL     1     -10.601   8.868  23.841  0.00  0.00    +0.037 C 
ATOM    107  H   UNL     1     -10.407   8.543  24.869  0.00  0.00    +0.052 HD
ATOM    108  H   UNL     1     -11.682   8.856  23.672  0.00  0.00    +0.052 HD
ATOM    109  H   UNL     1     -10.134   8.173  23.135  0.00  0.00    +0.052 HD
ENDBRANCH 105 106
ENDBRANCH  18 105
BRANCH   9 110
ATOM    110  O   UNL     1     -10.129  12.700  17.253  0.00  0.00    -0.377 OA
BRANCH 110 111
ATOM    111  C   UNL     1     -10.830  12.251  16.099  0.00  0.00    +0.037 C 
ATOM    112  H   UNL     1     -10.128  11.872  15.353  0.00  0.00    +0.052 HD
ATOM    113  H   UNL     1     -11.364  13.103  15.670  0.00  0.00    +0.052 HD
ATOM    114  H   UNL     1     -11.561  11.477  16.356  0.00  0.00    +0.052 HD
ENDBRANCH 110 111
ENDBRANCH   9 110
BRANCH   5 115
ATOM    115  O   UNL     1      -8.784  16.631  16.743  0.00  0.00    -0.377 OA
BRANCH 115 116
ATOM    116  C   UNL     1      -8.254  17.375  17.832  0.00  0.00    +0.037 C 
ATOM    117  H   UNL     1      -7.162  17.412  17.776  0.00  0.00    +0.052 HD
ATOM    118  H   UNL     1      -8.656  18.391  17.851  0.00  0.00    +0.052 HD
ATOM    119  H   UNL     1      -8.534  16.871  18.760  0.00  0.00    +0.052 HD
ENDBRANCH 115 116
ENDBRANCH   5 115
BRANCH   3 120
ATOM    120  O   UNL     1      -6.169  15.622  16.268  0.00  0.00    -0.379 OA
BRANCH 120 121
ATOM    121  C   UNL     1      -5.184  15.356  15.277  0.00  0.00    +0.037 C 
ATOM    122  H   UNL     1      -4.705  14.404  15.518  0.00  0.00    +0.052 HD
ATOM    123  H   UNL     1      -4.419  16.137  15.281  0.00  0.00    +0.052 HD
ATOM    124  H   UNL     1      -5.635  15.276  14.284  0.00  0.00    +0.052 HD
ENDBRANCH 120 121
ENDBRANCH   3 120
TORSDOF 23
ENDMDL
MODEL 7
REMARK VINA RESULT:      -5.4      2.191      3.609
REMARK  Name = Lobophorolide_conf3
REMARK  23 active torsions:
REMARK  status: ('A' for Active; 'I' for Inactive)
REMARK    1  A    between atoms: C_1  and  C_2
REMARK    2  A    between atoms: C_4  and  O_53
REMARK    3  A    between atoms: C_6  and  C_8
REMARK    4  A    between atoms: C_8  and  C_9
REMARK    5  A    between atoms: C_9  and  C_10
REMARK    6  A    between atoms: C_10  and  C_11
REMARK    7  A    between atoms: C_10  and  C_12
REMARK    8  A    between atoms: C_12  and  C_13
REMARK    9  A    between atoms: C_12  and  O_52
REMARK   10  A    between atoms: C_13  and  C_14
REMARK   11  A    between atoms: C_13  and  C_15
REMARK   12  A    between atoms: C_16  and  C_51
REMARK   13  A    between atoms: C_17  and  O_49
REMARK   14  A    between atoms: C_19  and  O_47
REMARK   15  A    between atoms: C_23  and  O_45
REMARK   16  A    between atoms: C_32  and  O_43
REMARK   17  A    between atoms: C_33  and  O_42
REMARK   18  A    between atoms: C_35  and  C_41
REMARK   19  A    between atoms: O_43  and  C_44
REMARK   20  A    between atoms: O_45  and  C_46
REMARK   21  A    between atoms: O_47  and  C_48
REMARK   22  A    between atoms: O_49  and  C_50
REMARK   23  A    between atoms: O_53  and  C_54
REMARK                            x       y       z     vdW  Elec       q    Type
REMARK                         _______ _______ _______ _____ _____    ______ ____
ROOT
ATOM      1  C   UNL     1      -6.415  14.195  19.329  0.00  0.00    +0.113 C 
ATOM      2  C   UNL     1      -7.890  14.697  19.452  0.00  0.00    +0.020 C 
ATOM      3  C   UNL     1      -8.741  14.193  20.653  0.00  0.00    +0.067 C 
ATOM      4  C   UNL     1      -8.822  12.656  20.805  0.00  0.00    +0.003 C 
ATOM      5  C   UNL     1      -9.765  12.242  21.959  0.00  0.00    +0.094 C 
ATOM      6  C   UNL     1     -10.258  10.799  21.806  0.00  0.00    +0.145 C 
ATOM      7  C   UNL     1      -9.447   9.675  22.443  0.00  0.00    +0.083 C 
ATOM      8  O   UNL     1     -10.632  10.178  23.064  0.00  0.00    -0.363 OA
ATOM      9  C   UNL     1     -11.295  10.482  20.724  0.00  0.00    +0.094 C 
ATOM     10  C   UNL     1     -10.714   9.601  19.606  0.00  0.00    +0.003 C 
ATOM     11  C   UNL     1     -11.688   9.306  18.444  0.00  0.00    +0.065 C 
ATOM     12  C   UNL     1     -13.025   8.648  18.823  0.00  0.00    -0.008 C 
ATOM     13  C   UNL     1     -12.853   7.198  19.149  0.00  0.00    -0.083 C 
ATOM     14  C   UNL     1     -11.785   6.527  18.692  0.00  0.00    -0.059 C 
ATOM     15  C   UNL     1     -10.711   7.163  17.831  0.00  0.00    +0.080 C 
ATOM     16  O   UNL     1     -11.055   8.498  17.433  0.00  0.00    -0.369 OA
ATOM     17  C   UNL     1     -10.481   6.306  16.577  0.00  0.00    +0.006 C 
ATOM     18  C   UNL     1      -9.364   6.759  15.608  0.00  0.00    +0.090 C 
ATOM     19  C   UNL     1      -7.969   7.001  16.257  0.00  0.00    +0.100 C 
ATOM     20  C   UNL     1      -7.736   8.374  16.841  0.00  0.00    -0.051 C 
ATOM     21  C   UNL     1      -6.564   9.039  16.905  0.00  0.00    -0.052 C 
ATOM     22  C   UNL     1      -6.562  10.415  17.396  0.00  0.00    -0.052 C 
ATOM     23  C   UNL     1      -5.543  11.274  17.259  0.00  0.00    +0.023 C 
ATOM     24  C   UNL     1      -5.565  12.675  17.709  0.00  0.00    +0.332 C 
ATOM     25  O   UNL     1      -4.823  13.509  17.213  0.00  0.00    -0.246 OA
ATOM     26  O   UNL     1      -6.420  12.866  18.749  0.00  0.00    -0.458 OA
ATOM     27  H   UNL     1      -5.949  14.889  18.623  0.00  0.00    +0.074 HD
ATOM     28  H   UNL     1      -7.814  15.788  19.565  0.00  0.00    +0.036 HD
ATOM     29  H   UNL     1      -9.771  14.543  20.504  0.00  0.00    +0.060 HD
ATOM     30  H   UNL     1      -7.829  12.238  21.008  0.00  0.00    +0.032 HD
ATOM     31  H   UNL     1      -9.173  12.228  19.860  0.00  0.00    +0.032 HD
ATOM     32  H   UNL     1     -10.628  12.917  21.982  0.00  0.00    +0.063 HD
ATOM     33  H   UNL     1      -9.490   8.668  22.050  0.00  0.00    +0.059 HD
ATOM     34  H   UNL     1      -8.494   9.916  22.903  0.00  0.00    +0.059 HD
ATOM     35  H   UNL     1     -12.127   9.936  21.191  0.00  0.00    +0.063 HD
ATOM     36  H   UNL     1     -10.352   8.663  20.038  0.00  0.00    +0.032 HD
ATOM     37  H   UNL     1      -9.825  10.082  19.180  0.00  0.00    +0.032 HD
ATOM     38  H   UNL     1     -11.919  10.260  17.954  0.00  0.00    +0.060 HD
ATOM     39  H   UNL     1     -13.704   8.704  17.963  0.00  0.00    +0.033 HD
ATOM     40  H   UNL     1     -13.516   9.172  19.646  0.00  0.00    +0.033 HD
ATOM     41  H   UNL     1     -13.611   6.696  19.742  0.00  0.00    +0.057 HD
ATOM     42  H   UNL     1     -11.657   5.480  18.955  0.00  0.00    +0.059 HD
ATOM     43  H   UNL     1      -9.793   7.198  18.424  0.00  0.00    +0.064 HD
ATOM     44  H   UNL     1     -10.254   5.278  16.890  0.00  0.00    +0.032 HD
ATOM     45  H   UNL     1     -11.423   6.262  16.019  0.00  0.00    +0.032 HD
ATOM     46  H   UNL     1      -9.220   5.913  14.918  0.00  0.00    +0.063 HD
ATOM     47  H   UNL     1      -7.239   6.849  15.453  0.00  0.00    +0.066 HD
ATOM     48  H   UNL     1      -8.641   8.900  17.129  0.00  0.00    +0.060 HD
ATOM     49  H   UNL     1      -7.484  10.762  17.859  0.00  0.00    +0.062 HD
ATOM     50  H   UNL     1      -4.630  11.011  16.741  0.00  0.00    +0.069 HD
ENDROOT
BRANCH  21  51
ATOM     51  C   UNL     1      -5.245   8.431  16.496  0.00  0.00    -0.040 C 
ATOM     52  H   UNL     1      -5.334   7.753  15.641  0.00  0.00    +0.028 HD
ATOM     53  H   UNL     1      -4.532   9.217  16.221  0.00  0.00    +0.028 HD
ATOM     54  H   UNL     1      -4.815   7.834  17.309  0.00  0.00    +0.028 HD
ENDBRANCH  21  51
BRANCH   2  55
ATOM     55  C   UNL     1      -8.649  14.467  18.134  0.00  0.00    -0.057 C 
ATOM     56  H   UNL     1      -8.113  14.928  17.296  0.00  0.00    +0.023 HD
ATOM     57  H   UNL     1      -8.776  13.405  17.908  0.00  0.00    +0.023 HD
ATOM     58  H   UNL     1      -9.645  14.923  18.177  0.00  0.00    +0.023 HD
ENDBRANCH   2  55
BRANCH   1  59
ATOM     59  C   UNL     1      -5.567  14.192  20.635  0.00  0.00    +0.020 C 
ATOM     60  H   UNL     1      -6.273  14.305  21.464  0.00  0.00    +0.036 HD
BRANCH  59  61
ATOM     61  C   UNL     1      -4.912  12.837  20.949  0.00  0.00    -0.057 C 
ATOM     62  H   UNL     1      -4.651  12.308  20.026  0.00  0.00    +0.023 HD
ATOM     63  H   UNL     1      -3.977  12.976  21.505  0.00  0.00    +0.023 HD
ATOM     64  H   UNL     1      -5.561  12.190  21.544  0.00  0.00    +0.023 HD
ENDBRANCH  59  61
BRANCH  59  65
ATOM     65  C   UNL     1      -4.548  15.367  20.720  0.00  0.00    +0.064 C 
ATOM     66  H   UNL     1      -5.040  16.272  21.089  0.00  0.00    +0.060 HD
BRANCH  65  67
ATOM     67  C   UNL     1      -3.754  15.751  19.429  0.00  0.00    -0.017 C 
ATOM     68  H   UNL     1      -4.386  15.522  18.570  0.00  0.00    +0.032 HD
BRANCH  67  69
ATOM     69  C   UNL     1      -3.412  17.242  19.401  0.00  0.00    -0.060 C 
ATOM     70  H   UNL     1      -4.196  17.833  18.920  0.00  0.00    +0.023 HD
ATOM     71  H   UNL     1      -2.475  17.424  18.866  0.00  0.00    +0.023 HD
ATOM     72  H   UNL     1      -3.323  17.655  20.407  0.00  0.00    +0.023 HD
ENDBRANCH  67  69
BRANCH  67  73
ATOM     73  C   UNL     1      -2.482  14.869  19.304  0.00  0.00    -0.046 C 
ATOM     74  H   UNL     1      -1.887  15.020  20.216  0.00  0.00    +0.027 HD
ATOM     75  H   UNL     1      -2.768  13.809  19.305  0.00  0.00    +0.027 HD
BRANCH  73  76
ATOM     76  C   UNL     1      -1.538  15.099  18.117  0.00  0.00    -0.026 C 
ATOM     77  H   UNL     1      -1.621  14.298  17.375  0.00  0.00    +0.029 HD
ATOM     78  H   UNL     1      -1.918  15.983  17.582  0.00  0.00    +0.029 HD
BRANCH  76  83
ATOM     79  C   UNL     1       1.317  13.437  18.854  0.00  0.00    +0.059 C 
ATOM     80  C   UNL     1       2.359  14.269  19.595  0.00  0.00    -0.000 C 
ATOM     81  C   UNL     1       1.729  15.506  20.245  0.00  0.00    +0.063 C 
ATOM     82  C   UNL     1       0.246  15.657  19.902  0.00  0.00    -0.000 C 
ATOM     83  C   UNL     1      -0.054  15.383  18.425  0.00  0.00    +0.061 C 
ATOM     84  O   UNL     1       0.675  14.264  17.887  0.00  0.00    -0.373 OA
ATOM     85  H   UNL     1       0.568  13.031  19.545  0.00  0.00    +0.059 HD
ATOM     86  H   UNL     1       2.849  13.659  20.361  0.00  0.00    +0.032 HD
ATOM     87  H   UNL     1       3.141  14.580  18.890  0.00  0.00    +0.032 HD
ATOM     88  H   UNL     1       1.811  15.433  21.337  0.00  0.00    +0.060 HD
ATOM     89  H   UNL     1      -0.319  14.956  20.526  0.00  0.00    +0.032 HD
ATOM     90  H   UNL     1      -0.082  16.667  20.161  0.00  0.00    +0.032 HD
ATOM     91  H   UNL     1       0.260  16.253  17.836  0.00  0.00    +0.060 HD
BRANCH  79  92
ATOM     92  C   UNL     1       1.966  12.272  18.118  0.00  0.00    -0.039 C 
ATOM     93  H   UNL     1       1.271  11.809  17.414  0.00  0.00    +0.025 HD
ATOM     94  H   UNL     1       2.846  12.615  17.569  0.00  0.00    +0.025 HD
ATOM     95  H   UNL     1       2.313  11.508  18.824  0.00  0.00    +0.025 HD
ENDBRANCH  79  92
BRANCH  81  96
ATOM     96  O   UNL     1       2.412  16.696  19.824  0.00  0.00    -0.380 OA
BRANCH  96  97
ATOM     97  C   UNL     1       3.783  16.717  20.206  0.00  0.00    +0.037 C 
ATOM     98  H   UNL     1       3.936  16.078  21.083  0.00  0.00    +0.052 HD
ATOM     99  H   UNL     1       4.050  17.744  20.472  0.00  0.00    +0.052 HD
ATOM    100  H   UNL     1       4.432  16.390  19.387  0.00  0.00    +0.052 HD
ENDBRANCH  96  97
ENDBRANCH  81  96
ENDBRANCH  76  83
ENDBRANCH  73  76
ENDBRANCH  67  73
ENDBRANCH  65  67
BRANCH  65 101
ATOM    101  O   UNL     1      -3.590  15.004  21.728  0.00  0.00    -0.391 OA
ATOM    102  H   UNL     1      -2.715  15.293  21.393  0.00  0.00    +0.210 HD
ENDBRANCH  65 101
ENDBRANCH  59  65
ENDBRANCH   1  59
BRANCH  19 103
ATOM    103  O   UNL     1      -7.708   6.016  17.256  0.00  0.00    -0.385 OA
ATOM    104  H   UNL     1      -7.155   5.326  16.846  0.00  0.00    +0.210 HD
ENDBRANCH  19 103
BRANCH  18 105
ATOM    105  O   UNL     1      -9.739   7.906  14.832  0.00  0.00    -0.377 OA
BRANCH 105 106
ATOM    106  C   UNL     1      -9.744   7.671  13.431  0.00  0.00    +0.037 C 
ATOM    107  H   UNL     1      -9.061   6.864  13.146  0.00  0.00    +0.052 HD
ATOM    108  H   UNL     1     -10.758   7.387  13.136  0.00  0.00    +0.052 HD
ATOM    109  H   UNL     1      -9.476   8.591  12.900  0.00  0.00    +0.052 HD
ENDBRANCH 105 106
ENDBRANCH  18 105
BRANCH   9 110
ATOM    110  O   UNL     1     -11.793  11.690  20.129  0.00  0.00    -0.377 OA
BRANCH 110 111
ATOM    111  C   UNL     1     -13.114  12.004  20.554  0.00  0.00    +0.037 C 
ATOM    112  H   UNL     1     -13.111  12.310  21.604  0.00  0.00    +0.052 HD
ATOM    113  H   UNL     1     -13.727  11.105  20.459  0.00  0.00    +0.052 HD
ATOM    114  H   UNL     1     -13.553  12.792  19.934  0.00  0.00    +0.052 HD
ENDBRANCH 110 111
ENDBRANCH   9 110
BRANCH   5 115
ATOM    115  O   UNL     1      -9.019  12.385  23.185  0.00  0.00    -0.377 OA
BRANCH 115 116
ATOM    116  C   UNL     1      -9.744  13.061  24.204  0.00  0.00    +0.037 C 
ATOM    117  H   UNL     1      -9.326  14.056  24.377  0.00  0.00    +0.052 HD
ATOM    118  H   UNL     1     -10.803  13.145  23.946  0.00  0.00    +0.052 HD
ATOM    119  H   UNL     1      -9.654  12.483  25.127  0.00  0.00    +0.052 HD
ENDBRANCH 115 116
ENDBRANCH   5 115
BRANCH   3 120
ATOM    120  O   UNL     1      -8.241  14.781  21.866  0.00  0.00    -0.379 OA
BRANCH 120 121
ATOM    121  C   UNL     1      -8.517  16.172  21.972  0.00  0.00    +0.037 C 
ATOM    122  H   UNL     1      -9.541  16.343  21.630  0.00  0.00    +0.052 HD
ATOM    123  H   UNL     1      -7.840  16.745  21.333  0.00  0.00    +0.052 HD
ATOM    124  H   UNL     1      -8.436  16.513  23.007  0.00  0.00    +0.052 HD
ENDBRANCH 120 121
ENDBRANCH   3 120
TORSDOF 23
ENDMDL
MODEL 8
REMARK VINA RESULT:      -5.4      7.958     13.175
REMARK  Name = Lobophorolide_conf3
REMARK  23 active torsions:
REMARK  status: ('A' for Active; 'I' for Inactive)
REMARK    1  A    between atoms: C_1  and  C_2
REMARK    2  A    between atoms: C_4  and  O_53
REMARK    3  A    between atoms: C_6  and  C_8
REMARK    4  A    between atoms: C_8  and  C_9
REMARK    5  A    between atoms: C_9  and  C_10
REMARK    6  A    between atoms: C_10  and  C_11
REMARK    7  A    between atoms: C_10  and  C_12
REMARK    8  A    between atoms: C_12  and  C_13
REMARK    9  A    between atoms: C_12  and  O_52
REMARK   10  A    between atoms: C_13  and  C_14
REMARK   11  A    between atoms: C_13  and  C_15
REMARK   12  A    between atoms: C_16  and  C_51
REMARK   13  A    between atoms: C_17  and  O_49
REMARK   14  A    between atoms: C_19  and  O_47
REMARK   15  A    between atoms: C_23  and  O_45
REMARK   16  A    between atoms: C_32  and  O_43
REMARK   17  A    between atoms: C_33  and  O_42
REMARK   18  A    between atoms: C_35  and  C_41
REMARK   19  A    between atoms: O_43  and  C_44
REMARK   20  A    between atoms: O_45  and  C_46
REMARK   21  A    between atoms: O_47  and  C_48
REMARK   22  A    between atoms: O_49  and  C_50
REMARK   23  A    between atoms: O_53  and  C_54
REMARK                            x       y       z     vdW  Elec       q    Type
REMARK                         _______ _______ _______ _____ _____    ______ ____
ROOT
ATOM      1  C   UNL     1     -11.230   7.285  12.793  0.00  0.00    +0.113 C 
ATOM      2  C   UNL     1     -12.115   6.090  13.276  0.00  0.00    +0.020 C 
ATOM      3  C   UNL     1     -11.653   5.294  14.531  0.00  0.00    +0.067 C 
ATOM      4  C   UNL     1     -10.214   4.732  14.463  0.00  0.00    +0.003 C 
ATOM      5  C   UNL     1      -9.873   3.873  15.703  0.00  0.00    +0.094 C 
ATOM      6  C   UNL     1      -8.707   2.915  15.435  0.00  0.00    +0.145 C 
ATOM      7  C   UNL     1      -7.287   3.389  15.724  0.00  0.00    +0.083 C 
ATOM      8  O   UNL     1      -7.983   2.534  16.633  0.00  0.00    -0.363 OA
ATOM      9  C   UNL     1      -8.944   1.693  14.541  0.00  0.00    +0.094 C 
ATOM     10  C   UNL     1      -8.179   1.791  13.211  0.00  0.00    +0.003 C 
ATOM     11  C   UNL     1      -8.434   0.625  12.231  0.00  0.00    +0.065 C 
ATOM     12  C   UNL     1      -8.143  -0.789  12.761  0.00  0.00    -0.008 C 
ATOM     13  C   UNL     1      -6.672  -1.061  12.826  0.00  0.00    -0.083 C 
ATOM     14  C   UNL     1      -5.822  -0.349  12.073  0.00  0.00    -0.059 C 
ATOM     15  C   UNL     1      -6.270   0.746  11.124  0.00  0.00    +0.080 C 
ATOM     16  O   UNL     1      -7.699   0.811  11.006  0.00  0.00    -0.369 OA
ATOM     17  C   UNL     1      -5.659   0.506   9.735  0.00  0.00    +0.006 C 
ATOM     18  C   UNL     1      -5.946   1.565   8.645  0.00  0.00    +0.090 C 
ATOM     19  C   UNL     1      -5.621   3.038   9.039  0.00  0.00    +0.100 C 
ATOM     20  C   UNL     1      -6.711   3.788   9.765  0.00  0.00    -0.051 C 
ATOM     21  C   UNL     1      -6.967   5.112   9.698  0.00  0.00    -0.052 C 
ATOM     22  C   UNL     1      -8.148   5.635  10.380  0.00  0.00    -0.052 C 
ATOM     23  C   UNL     1      -8.672   6.852  10.178  0.00  0.00    +0.023 C 
ATOM     24  C   UNL     1      -9.891   7.355  10.828  0.00  0.00    +0.332 C 
ATOM     25  O   UNL     1     -10.549   8.255  10.329  0.00  0.00    -0.246 OA
ATOM     26  O   UNL     1     -10.112   6.762  12.032  0.00  0.00    -0.458 OA
ATOM     27  H   UNL     1     -11.883   7.853  12.123  0.00  0.00    +0.074 HD
ATOM     28  H   UNL     1     -13.085   6.537  13.535  0.00  0.00    +0.036 HD
ATOM     29  H   UNL     1     -12.318   4.427  14.641  0.00  0.00    +0.060 HD
ATOM     30  H   UNL     1      -9.485   5.549  14.403  0.00  0.00    +0.032 HD
ATOM     31  H   UNL     1     -10.114   4.134  13.552  0.00  0.00    +0.032 HD
ATOM     32  H   UNL     1     -10.756   3.293  15.996  0.00  0.00    +0.063 HD
ATOM     33  H   UNL     1      -6.442   2.963  15.200  0.00  0.00    +0.059 HD
ATOM     34  H   UNL     1      -7.132   4.421  16.020  0.00  0.00    +0.059 HD
ATOM     35  H   UNL     1      -8.589   0.800  15.074  0.00  0.00    +0.063 HD
ATOM     36  H   UNL     1      -7.108   1.880  13.418  0.00  0.00    +0.032 HD
ATOM     37  H   UNL     1      -8.449   2.722  12.698  0.00  0.00    +0.032 HD
ATOM     38  H   UNL     1      -9.492   0.658  11.946  0.00  0.00    +0.060 HD
ATOM     39  H   UNL     1      -8.574  -1.522  12.069  0.00  0.00    +0.033 HD
ATOM     40  H   UNL     1      -8.609  -0.961  13.733  0.00  0.00    +0.033 HD
ATOM     41  H   UNL     1      -6.310  -1.854  13.473  0.00  0.00    +0.057 HD
ATOM     42  H   UNL     1      -4.754  -0.538  12.145  0.00  0.00    +0.059 HD
ATOM     43  H   UNL     1      -5.906   1.697  11.525  0.00  0.00    +0.064 HD
ATOM     44  H   UNL     1      -4.569   0.421   9.840  0.00  0.00    +0.032 HD
ATOM     45  H   UNL     1      -6.015  -0.465   9.372  0.00  0.00    +0.032 HD
ATOM     46  H   UNL     1      -5.256   1.327   7.822  0.00  0.00    +0.063 HD
ATOM     47  H   UNL     1      -5.426   3.559   8.094  0.00  0.00    +0.066 HD
ATOM     48  H   UNL     1      -7.413   3.157  10.301  0.00  0.00    +0.060 HD
ATOM     49  H   UNL     1      -8.653   4.952  11.061  0.00  0.00    +0.062 HD
ATOM     50  H   UNL     1      -8.260   7.546   9.457  0.00  0.00    +0.069 HD
ENDROOT
BRANCH  21  51
ATOM     51  C   UNL     1      -6.090   6.086   8.952  0.00  0.00    -0.040 C 
ATOM     52  H   UNL     1      -6.245   6.059   7.869  0.00  0.00    +0.028 HD
ATOM     53  H   UNL     1      -6.287   7.111   9.288  0.00  0.00    +0.028 HD
ATOM     54  H   UNL     1      -5.028   5.864   9.109  0.00  0.00    +0.028 HD
ENDBRANCH  21  51
BRANCH   2  55
ATOM     55  C   UNL     1     -12.398   5.124  12.113  0.00  0.00    -0.057 C 
ATOM     56  H   UNL     1     -13.301   5.429  11.571  0.00  0.00    +0.023 HD
ATOM     57  H   UNL     1     -11.574   5.086  11.396  0.00  0.00    +0.023 HD
ATOM     58  H   UNL     1     -12.566   4.108  12.487  0.00  0.00    +0.023 HD
ENDBRANCH   2  55
BRANCH   1  59
ATOM     59  C   UNL     1     -10.706   8.255  13.893  0.00  0.00    +0.020 C 
ATOM     60  H   UNL     1     -10.965   7.803  14.855  0.00  0.00    +0.036 HD
BRANCH  59  61
ATOM     61  C   UNL     1      -9.173   8.336  13.973  0.00  0.00    -0.057 C 
ATOM     62  H   UNL     1      -8.860   9.148  14.638  0.00  0.00    +0.023 HD
ATOM     63  H   UNL     1      -8.755   7.413  14.390  0.00  0.00    +0.023 HD
ATOM     64  H   UNL     1      -8.714   8.499  12.994  0.00  0.00    +0.023 HD
ENDBRANCH  59  61
BRANCH  59  65
ATOM     65  C   UNL     1     -11.363   9.667  13.844  0.00  0.00    +0.064 C 
ATOM     66  H   UNL     1     -11.581   9.950  12.810  0.00  0.00    +0.060 HD
BRANCH  65  67
ATOM     67  C   UNL     1     -10.604  10.859  14.513  0.00  0.00    -0.017 C 
ATOM     68  H   UNL     1      -9.571  10.834  14.162  0.00  0.00    +0.032 HD
BRANCH  67  69
ATOM     69  C   UNL     1     -11.219  12.206  14.126  0.00  0.00    -0.060 C 
ATOM     70  H   UNL     1     -12.258  12.291  14.454  0.00  0.00    +0.023 HD
ATOM     71  H   UNL     1     -11.192  12.357  13.042  0.00  0.00    +0.023 HD
ATOM     72  H   UNL     1     -10.700  13.038  14.605  0.00  0.00    +0.023 HD
ENDBRANCH  67  69
BRANCH  67  73
ATOM     73  C   UNL     1     -10.564  10.668  16.054  0.00  0.00    -0.046 C 
ATOM     74  H   UNL     1     -11.435  11.192  16.471  0.00  0.00    +0.027 HD
ATOM     75  H   UNL     1     -10.707   9.607  16.296  0.00  0.00    +0.027 HD
BRANCH  73  76
ATOM     76  C   UNL     1      -9.336  11.165  16.827  0.00  0.00    -0.026 C 
ATOM     77  H   UNL     1      -8.684  11.779  16.195  0.00  0.00    +0.029 HD
ATOM     78  H   UNL     1      -9.706  11.877  17.579  0.00  0.00    +0.029 HD
BRANCH  76  83
ATOM     79  C   UNL     1      -6.496   9.358  16.471  0.00  0.00    +0.059 C 
ATOM     80  C   UNL     1      -6.449   8.083  17.306  0.00  0.00    -0.000 C 
ATOM     81  C   UNL     1      -7.851   7.658  17.759  0.00  0.00    +0.063 C 
ATOM     82  C   UNL     1      -8.927   8.668  17.356  0.00  0.00    -0.000 C 
ATOM     83  C   UNL     1      -8.499  10.120  17.592  0.00  0.00    +0.061 C 
ATOM     84  O   UNL     1      -7.129  10.382  17.234  0.00  0.00    -0.373 OA
ATOM     85  H   UNL     1      -7.048   9.202  15.536  0.00  0.00    +0.059 HD
ATOM     86  H   UNL     1      -5.987   7.274  16.730  0.00  0.00    +0.032 HD
ATOM     87  H   UNL     1      -5.812   8.249  18.185  0.00  0.00    +0.032 HD
ATOM     88  H   UNL     1      -8.113   6.695  17.301  0.00  0.00    +0.060 HD
ATOM     89  H   UNL     1      -9.149   8.521  16.294  0.00  0.00    +0.032 HD
ATOM     90  H   UNL     1      -9.842   8.461  17.917  0.00  0.00    +0.032 HD
ATOM     91  H   UNL     1      -8.573  10.338  18.664  0.00  0.00    +0.060 HD
BRANCH  79  92
ATOM     92  C   UNL     1      -5.093   9.836  16.120  0.00  0.00    -0.039 C 
ATOM     93  H   UNL     1      -4.433   8.997  15.883  0.00  0.00    +0.025 HD
ATOM     94  H   UNL     1      -5.126  10.509  15.260  0.00  0.00    +0.025 HD
ATOM     95  H   UNL     1      -4.654  10.406  16.949  0.00  0.00    +0.025 HD
ENDBRANCH  79  92
BRANCH  81  96
ATOM     96  O   UNL     1      -7.892   7.501  19.184  0.00  0.00    -0.380 OA
BRANCH  96  97
ATOM     97  C   UNL     1      -6.696   7.928  19.827  0.00  0.00    +0.037 C 
ATOM     98  H   UNL     1      -6.894   8.821  20.431  0.00  0.00    +0.052 HD
ATOM     99  H   UNL     1      -5.964   8.185  19.056  0.00  0.00    +0.052 HD
ATOM    100  H   UNL     1      -6.274   7.137  20.456  0.00  0.00    +0.052 HD
ENDBRANCH  96  97
ENDBRANCH  81  96
ENDBRANCH  76  83
ENDBRANCH  73  76
ENDBRANCH  67  73
ENDBRANCH  65  67
BRANCH  65 101
ATOM    101  O   UNL     1     -12.640   9.545  14.493  0.00  0.00    -0.391 OA
ATOM    102  H   UNL     1     -12.482   9.039  15.317  0.00  0.00    +0.210 HD
ENDBRANCH  65 101
ENDBRANCH  59  65
ENDBRANCH   1  59
BRANCH  19 103
ATOM    103  O   UNL     1      -4.421   3.094   9.807  0.00  0.00    -0.385 OA
ATOM    104  H   UNL     1      -4.023   2.204   9.791  0.00  0.00    +0.210 HD
ENDBRANCH  19 103
BRANCH  18 105
ATOM    105  O   UNL     1      -7.286   1.488   8.139  0.00  0.00    -0.377 OA
BRANCH 105 106
ATOM    106  C   UNL     1      -7.357   1.176   6.755  0.00  0.00    +0.037 C 
ATOM    107  H   UNL     1      -8.332   1.431   6.325  0.00  0.00    +0.052 HD
ATOM    108  H   UNL     1      -6.588   1.754   6.235  0.00  0.00    +0.052 HD
ATOM    109  H   UNL     1      -7.150   0.112   6.603  0.00  0.00    +0.052 HD
ENDBRANCH 105 106
ENDBRANCH  18 105
BRANCH   9 110
ATOM    110  O   UNL     1     -10.341   1.546  14.244  0.00  0.00    -0.377 OA
BRANCH 110 111
ATOM    111  C   UNL     1     -10.942   0.474  14.962  0.00  0.00    +0.037 C 
ATOM    112  H   UNL     1     -11.522   0.861  15.803  0.00  0.00    +0.052 HD
ATOM    113  H   UNL     1     -10.146  -0.163  15.355  0.00  0.00    +0.052 HD
ATOM    114  H   UNL     1     -11.582  -0.130  14.310  0.00  0.00    +0.052 HD
ENDBRANCH 110 111
ENDBRANCH   9 110
BRANCH   5 115
ATOM    115  O   UNL     1      -9.532   4.786  16.767  0.00  0.00    -0.377 OA
BRANCH 115 116
ATOM    116  C   UNL     1     -10.317   4.596  17.937  0.00  0.00    +0.037 C 
ATOM    117  H   UNL     1     -11.325   4.995  17.792  0.00  0.00    +0.052 HD
ATOM    118  H   UNL     1     -10.374   3.539  18.208  0.00  0.00    +0.052 HD
ATOM    119  H   UNL     1      -9.844   5.142  18.757  0.00  0.00    +0.052 HD
ENDBRANCH 115 116
ENDBRANCH   5 115
BRANCH   3 120
ATOM    120  O   UNL     1     -11.803   6.121  15.697  0.00  0.00    -0.379 OA
BRANCH 120 121
ATOM    121  C   UNL     1     -13.160   6.345  16.057  0.00  0.00    +0.037 C 
ATOM    122  H   UNL     1     -13.417   5.655  16.864  0.00  0.00    +0.052 HD
ATOM    123  H   UNL     1     -13.818   6.143  15.207  0.00  0.00    +0.052 HD
ATOM    124  H   UNL     1     -13.311   7.368  16.414  0.00  0.00    +0.052 HD
ENDBRANCH 120 121
ENDBRANCH   3 120
TORSDOF 23
ENDMDL
MODEL 9
REMARK VINA RESULT:      -5.1      4.150     11.155
REMARK  Name = Lobophorolide_conf3
REMARK  23 active torsions:
REMARK  status: ('A' for Active; 'I' for Inactive)
REMARK    1  A    between atoms: C_1  and  C_2
REMARK    2  A    between atoms: C_4  and  O_53
REMARK    3  A    between atoms: C_6  and  C_8
REMARK    4  A    between atoms: C_8  and  C_9
REMARK    5  A    between atoms: C_9  and  C_10
REMARK    6  A    between atoms: C_10  and  C_11
REMARK    7  A    between atoms: C_10  and  C_12
REMARK    8  A    between atoms: C_12  and  C_13
REMARK    9  A    between atoms: C_12  and  O_52
REMARK   10  A    between atoms: C_13  and  C_14
REMARK   11  A    between atoms: C_13  and  C_15
REMARK   12  A    between atoms: C_16  and  C_51
REMARK   13  A    between atoms: C_17  and  O_49
REMARK   14  A    between atoms: C_19  and  O_47
REMARK   15  A    between atoms: C_23  and  O_45
REMARK   16  A    between atoms: C_32  and  O_43
REMARK   17  A    between atoms: C_33  and  O_42
REMARK   18  A    between atoms: C_35  and  C_41
REMARK   19  A    between atoms: O_43  and  C_44
REMARK   20  A    between atoms: O_45  and  C_46
REMARK   21  A    between atoms: O_47  and  C_48
REMARK   22  A    between atoms: O_49  and  C_50
REMARK   23  A    between atoms: O_53  and  C_54
REMARK                            x       y       z     vdW  Elec       q    Type
REMARK                         _______ _______ _______ _____ _____    ______ ____
ROOT
ATOM      1  C   UNL     1     -11.671   9.330  22.420  0.00  0.00    +0.113 C 
ATOM      2  C   UNL     1     -12.090   9.478  20.920  0.00  0.00    +0.020 C 
ATOM      3  C   UNL     1     -11.120   8.938  19.830  0.00  0.00    +0.067 C 
ATOM      4  C   UNL     1      -9.674   9.482  19.904  0.00  0.00    +0.003 C 
ATOM      5  C   UNL     1      -8.808   8.972  18.728  0.00  0.00    +0.094 C 
ATOM      6  C   UNL     1      -7.586   9.865  18.487  0.00  0.00    +0.145 C 
ATOM      7  C   UNL     1      -6.285   9.542  19.215  0.00  0.00    +0.083 C 
ATOM      8  O   UNL     1      -6.481   9.176  17.848  0.00  0.00    -0.363 OA
ATOM      9  C   UNL     1      -7.792  11.246  17.856  0.00  0.00    +0.094 C 
ATOM     10  C   UNL     1      -7.485  12.385  18.841  0.00  0.00    +0.003 C 
ATOM     11  C   UNL     1      -7.745  13.804  18.290  0.00  0.00    +0.065 C 
ATOM     12  C   UNL     1      -7.006  14.181  16.995  0.00  0.00    -0.008 C 
ATOM     13  C   UNL     1      -5.558  14.460  17.248  0.00  0.00    -0.083 C 
ATOM     14  C   UNL     1      -5.142  14.795  18.478  0.00  0.00    -0.059 C 
ATOM     15  C   UNL     1      -6.077  14.922  19.666  0.00  0.00    +0.080 C 
ATOM     16  O   UNL     1      -7.456  14.805  19.285  0.00  0.00    -0.369 OA
ATOM     17  C   UNL     1      -5.856  16.276  20.354  0.00  0.00    +0.006 C 
ATOM     18  C   UNL     1      -6.673  16.558  21.637  0.00  0.00    +0.090 C 
ATOM     19  C   UNL     1      -6.585  15.464  22.742  0.00  0.00    +0.100 C 
ATOM     20  C   UNL     1      -7.558  14.316  22.621  0.00  0.00    -0.051 C 
ATOM     21  C   UNL     1      -8.111  13.611  23.631  0.00  0.00    -0.052 C 
ATOM     22  C   UNL     1      -9.130  12.613  23.316  0.00  0.00    -0.052 C 
ATOM     23  C   UNL     1      -9.947  12.046  24.215  0.00  0.00    +0.023 C 
ATOM     24  C   UNL     1     -11.007  11.080  23.886  0.00  0.00    +0.332 C 
ATOM     25  O   UNL     1     -11.964  10.917  24.628  0.00  0.00    -0.246 OA
ATOM     26  O   UNL     1     -10.733  10.385  22.750  0.00  0.00    -0.458 OA
ATOM     27  H   UNL     1     -12.599   9.490  22.978  0.00  0.00    +0.074 HD
ATOM     28  H   UNL     1     -13.018   8.898  20.822  0.00  0.00    +0.036 HD
ATOM     29  H   UNL     1     -11.514   9.241  18.851  0.00  0.00    +0.060 HD
ATOM     30  H   UNL     1      -9.195   9.173  20.840  0.00  0.00    +0.032 HD
ATOM     31  H   UNL     1      -9.711  10.576  19.898  0.00  0.00    +0.032 HD
ATOM     32  H   UNL     1      -9.416   8.940  17.817  0.00  0.00    +0.063 HD
ATOM     33  H   UNL     1      -5.556  10.315  19.416  0.00  0.00    +0.059 HD
ATOM     34  H   UNL     1      -6.286   8.750  19.956  0.00  0.00    +0.059 HD
ATOM     35  H   UNL     1      -7.109  11.341  17.000  0.00  0.00    +0.063 HD
ATOM     36  H   UNL     1      -6.448  12.299  19.179  0.00  0.00    +0.032 HD
ATOM     37  H   UNL     1      -8.092  12.264  19.747  0.00  0.00    +0.032 HD
ATOM     38  H   UNL     1      -8.821  13.891  18.092  0.00  0.00    +0.060 HD
ATOM     39  H   UNL     1      -7.444  15.102  16.592  0.00  0.00    +0.033 HD
ATOM     40  H   UNL     1      -7.122  13.414  16.225  0.00  0.00    +0.033 HD
ATOM     41  H   UNL     1      -4.857  14.406  16.420  0.00  0.00    +0.057 HD
ATOM     42  H   UNL     1      -4.084  14.973  18.657  0.00  0.00    +0.059 HD
ATOM     43  H   UNL     1      -5.834  14.113  20.361  0.00  0.00    +0.064 HD
ATOM     44  H   UNL     1      -4.791  16.372  20.609  0.00  0.00    +0.032 HD
ATOM     45  H   UNL     1      -6.075  17.066  19.626  0.00  0.00    +0.032 HD
ATOM     46  H   UNL     1      -6.215  17.455  22.080  0.00  0.00    +0.063 HD
ATOM     47  H   UNL     1      -6.793  15.982  23.686  0.00  0.00    +0.066 HD
ATOM     48  H   UNL     1      -7.916  14.134  21.613  0.00  0.00    +0.060 HD
ATOM     49  H   UNL     1      -9.251  12.364  22.264  0.00  0.00    +0.062 HD
ATOM     50  H   UNL     1      -9.926  12.311  25.264  0.00  0.00    +0.069 HD
ENDROOT
BRANCH  21  51
ATOM     51  C   UNL     1      -7.726  13.800  25.077  0.00  0.00    -0.040 C 
ATOM     52  H   UNL     1      -6.695  14.148  25.204  0.00  0.00    +0.028 HD
ATOM     53  H   UNL     1      -8.384  14.538  25.553  0.00  0.00    +0.028 HD
ATOM     54  H   UNL     1      -7.795  12.858  25.633  0.00  0.00    +0.028 HD
ENDBRANCH  21  51
BRANCH   2  55
ATOM     55  C   UNL     1     -12.473  10.935  20.609  0.00  0.00    -0.057 C 
ATOM     56  H   UNL     1     -13.467  11.165  21.013  0.00  0.00    +0.023 HD
ATOM     57  H   UNL     1     -11.765  11.651  21.035  0.00  0.00    +0.023 HD
ATOM     58  H   UNL     1     -12.511  11.102  19.527  0.00  0.00    +0.023 HD
ENDBRANCH   2  55
BRANCH   1  59
ATOM     59  C   UNL     1     -11.082   7.953  22.847  0.00  0.00    +0.020 C 
ATOM     60  H   UNL     1     -11.205   7.283  21.990  0.00  0.00    +0.036 HD
BRANCH  59  61
ATOM     61  C   UNL     1      -9.557   7.961  23.039  0.00  0.00    -0.057 C 
ATOM     62  H   UNL     1      -9.291   7.649  24.054  0.00  0.00    +0.023 HD
ATOM     63  H   UNL     1      -9.075   7.251  22.357  0.00  0.00    +0.023 HD
ATOM     64  H   UNL     1      -9.121   8.947  22.858  0.00  0.00    +0.023 HD
ENDBRANCH  59  61
BRANCH  59  65
ATOM     65  C   UNL     1     -11.819   7.309  24.059  0.00  0.00    +0.064 C 
ATOM     66  H   UNL     1     -11.169   7.298  24.939  0.00  0.00    +0.060 HD
BRANCH  65  67
ATOM     67  C   UNL     1     -12.407   5.870  23.887  0.00  0.00    -0.017 C 
ATOM     68  H   UNL     1     -13.457   5.902  24.181  0.00  0.00    +0.032 HD
BRANCH  67  69
ATOM     69  C   UNL     1     -12.321   5.396  22.434  0.00  0.00    -0.060 C 
ATOM     70  H   UNL     1     -13.207   4.832  22.134  0.00  0.00    +0.023 HD
ATOM     71  H   UNL     1     -11.444   4.759  22.276  0.00  0.00    +0.023 HD
ATOM     72  H   UNL     1     -12.269   6.235  21.739  0.00  0.00    +0.023 HD
ENDBRANCH  67  69
BRANCH  67  73
ATOM     73  C   UNL     1     -11.695   4.885  24.855  0.00  0.00    -0.046 C 
ATOM     74  H   UNL     1     -12.204   4.956  25.826  0.00  0.00    +0.027 HD
ATOM     75  H   UNL     1     -11.850   3.854  24.510  0.00  0.00    +0.027 HD
BRANCH  73  76
ATOM     76  C   UNL     1     -10.196   5.070  25.124  0.00  0.00    -0.026 C 
ATOM     77  H   UNL     1      -9.610   4.233  24.729  0.00  0.00    +0.029 HD
ATOM     78  H   UNL     1      -9.871   5.923  24.509  0.00  0.00    +0.029 HD
BRANCH  76  83
ATOM     79  C   UNL     1     -10.545   7.492  27.462  0.00  0.00    +0.059 C 
ATOM     80  C   UNL     1      -9.443   7.516  28.517  0.00  0.00    -0.000 C 
ATOM     81  C   UNL     1      -8.196   6.762  28.041  0.00  0.00    +0.063 C 
ATOM     82  C   UNL     1      -8.403   6.086  26.684  0.00  0.00    -0.000 C 
ATOM     83  C   UNL     1      -9.761   5.386  26.569  0.00  0.00    +0.061 C 
ATOM     84  O   UNL     1     -10.846   6.135  27.146  0.00  0.00    -0.373 OA
ATOM     85  H   UNL     1     -10.237   8.021  26.552  0.00  0.00    +0.059 HD
ATOM     86  H   UNL     1      -9.177   8.551  28.758  0.00  0.00    +0.032 HD
ATOM     87  H   UNL     1      -9.818   7.061  29.443  0.00  0.00    +0.032 HD
ATOM     88  H   UNL     1      -7.356   7.461  27.937  0.00  0.00    +0.060 HD
ATOM     89  H   UNL     1      -8.321   6.853  25.907  0.00  0.00    +0.032 HD
ATOM     90  H   UNL     1      -7.602   5.360  26.518  0.00  0.00    +0.032 HD
ATOM     91  H   UNL     1      -9.719   4.444  27.130  0.00  0.00    +0.060 HD
BRANCH  79  92
ATOM     92  C   UNL     1     -11.818   8.145  27.984  0.00  0.00    -0.039 C 
ATOM     93  H   UNL     1     -11.991   7.899  29.035  0.00  0.00    +0.025 HD
ATOM     94  H   UNL     1     -11.755   9.231  27.885  0.00  0.00    +0.025 HD
ATOM     95  H   UNL     1     -12.690   7.826  27.399  0.00  0.00    +0.025 HD
ENDBRANCH  79  92
BRANCH  81  96
ATOM     96  O   UNL     1      -7.825   5.755  28.993  0.00  0.00    -0.380 OA
BRANCH  96  97
ATOM     97  C   UNL     1      -8.195   6.086  30.327  0.00  0.00    +0.037 C 
ATOM     98  H   UNL     1      -7.635   6.966  30.664  0.00  0.00    +0.052 HD
ATOM     99  H   UNL     1      -7.942   5.242  30.974  0.00  0.00    +0.052 HD
ATOM    100  H   UNL     1      -9.272   6.275  30.408  0.00  0.00    +0.052 HD
ENDBRANCH  96  97
ENDBRANCH  81  96
ENDBRANCH  76  83
ENDBRANCH  73  76
ENDBRANCH  67  73
ENDBRANCH  65  67
BRANCH  65 101
ATOM    101  O   UNL     1     -12.909   8.187  24.388  0.00  0.00    -0.391 OA
ATOM    102  H   UNL     1     -13.102   8.701  23.576  0.00  0.00    +0.210 HD
ENDBRANCH  65 101
ENDBRANCH  59  65
ENDBRANCH   1  59
BRANCH  19 103
ATOM    103  O   UNL     1      -5.258  14.947  22.827  0.00  0.00    -0.385 OA
ATOM    104  H   UNL     1      -5.283  14.176  23.422  0.00  0.00    +0.210 HD
ENDBRANCH  19 103
BRANCH  18 105
ATOM    105  O   UNL     1      -8.050  16.852  21.360  0.00  0.00    -0.377 OA
BRANCH 105 106
ATOM    106  C   UNL     1      -8.581  17.901  22.157  0.00  0.00    +0.037 C 
ATOM    107  H   UNL     1      -9.139  18.630  21.559  0.00  0.00    +0.052 HD
ATOM    108  H   UNL     1      -9.264  17.461  22.890  0.00  0.00    +0.052 HD
ATOM    109  H   UNL     1      -7.772  18.403  22.697  0.00  0.00    +0.052 HD
ENDBRANCH 105 106
ENDBRANCH  18 105
BRANCH   9 110
ATOM    110  O   UNL     1      -9.146  11.399  17.402  0.00  0.00    -0.377 OA
BRANCH 110 111
ATOM    111  C   UNL     1      -9.320  10.981  16.053  0.00  0.00    +0.037 C 
ATOM    112  H   UNL     1      -8.586  10.213  15.797  0.00  0.00    +0.052 HD
ATOM    113  H   UNL     1      -9.159  11.844  15.403  0.00  0.00    +0.052 HD
ATOM    114  H   UNL     1     -10.334  10.603  15.883  0.00  0.00    +0.052 HD
ENDBRANCH 110 111
ENDBRANCH   9 110
BRANCH   5 115
ATOM    115  O   UNL     1      -8.387   7.634  19.064  0.00  0.00    -0.377 OA
BRANCH 115 116
ATOM    116  C   UNL     1      -8.491   6.726  17.975  0.00  0.00    +0.037 C 
ATOM    117  H   UNL     1      -7.554   6.178  17.843  0.00  0.00    +0.052 HD
ATOM    118  H   UNL     1      -9.313   6.022  18.124  0.00  0.00    +0.052 HD
ATOM    119  H   UNL     1      -8.684   7.303  17.067  0.00  0.00    +0.052 HD
ENDBRANCH 115 116
ENDBRANCH   5 115
BRANCH   3 120
ATOM    120  O   UNL     1     -11.107   7.500  19.880  0.00  0.00    -0.379 OA
BRANCH 120 121
ATOM    121  C   UNL     1     -12.082   6.901  19.035  0.00  0.00    +0.037 C 
ATOM    122  H   UNL     1     -11.885   7.217  18.008  0.00  0.00    +0.052 HD
ATOM    123  H   UNL     1     -13.085   7.236  19.313  0.00  0.00    +0.052 HD
ATOM    124  H   UNL     1     -12.024   5.810  19.079  0.00  0.00    +0.052 HD
ENDBRANCH 120 121
ENDBRANCH   3 120
TORSDOF 23
ENDMDL
MODEL 10
REMARK VINA RESULT:      -5.0      2.527      5.655
REMARK  Name = Lobophorolide_conf3
REMARK  23 active torsions:
REMARK  status: ('A' for Active; 'I' for Inactive)
REMARK    1  A    between atoms: C_1  and  C_2
REMARK    2  A    between atoms: C_4  and  O_53
REMARK    3  A    between atoms: C_6  and  C_8
REMARK    4  A    between atoms: C_8  and  C_9
REMARK    5  A    between atoms: C_9  and  C_10
REMARK    6  A    between atoms: C_10  and  C_11
REMARK    7  A    between atoms: C_10  and  C_12
REMARK    8  A    between atoms: C_12  and  C_13
REMARK    9  A    between atoms: C_12  and  O_52
REMARK   10  A    between atoms: C_13  and  C_14
REMARK   11  A    between atoms: C_13  and  C_15
REMARK   12  A    between atoms: C_16  and  C_51
REMARK   13  A    between atoms: C_17  and  O_49
REMARK   14  A    between atoms: C_19  and  O_47
REMARK   15  A    between atoms: C_23  and  O_45
REMARK   16  A    between atoms: C_32  and  O_43
REMARK   17  A    between atoms: C_33  and  O_42
REMARK   18  A    between atoms: C_35  and  C_41
REMARK   19  A    between atoms: O_43  and  C_44
REMARK   20  A    between atoms: O_45  and  C_46
REMARK   21  A    between atoms: O_47  and  C_48
REMARK   22  A    between atoms: O_49  and  C_50
REMARK   23  A    between atoms: O_53  and  C_54
REMARK                            x       y       z     vdW  Elec       q    Type
REMARK                         _______ _______ _______ _____ _____    ______ ____
ROOT
ATOM      1  C   UNL     1      -8.793  14.420  21.969  0.00  0.00    +0.113 C 
ATOM      2  C   UNL     1     -10.331  14.150  22.058  0.00  0.00    +0.020 C 
ATOM      3  C   UNL     1     -10.820  12.982  22.961  0.00  0.00    +0.067 C 
ATOM      4  C   UNL     1     -10.184  11.604  22.661  0.00  0.00    +0.003 C 
ATOM      5  C   UNL     1     -10.798  10.485  23.533  0.00  0.00    +0.094 C 
ATOM      6  C   UNL     1     -10.580   9.096  22.923  0.00  0.00    +0.145 C 
ATOM      7  C   UNL     1      -9.327   8.316  23.304  0.00  0.00    +0.083 C 
ATOM      8  O   UNL     1     -10.592   8.025  23.901  0.00  0.00    -0.363 OA
ATOM      9  C   UNL     1     -11.388   8.698  21.683  0.00  0.00    +0.094 C 
ATOM     10  C   UNL     1     -10.500   8.554  20.435  0.00  0.00    +0.003 C 
ATOM     11  C   UNL     1     -11.264   8.228  19.133  0.00  0.00    +0.065 C 
ATOM     12  C   UNL     1     -12.140   6.964  19.154  0.00  0.00    -0.008 C 
ATOM     13  C   UNL     1     -11.313   5.719  19.073  0.00  0.00    -0.083 C 
ATOM     14  C   UNL     1     -10.071   5.767  18.571  0.00  0.00    -0.059 C 
ATOM     15  C   UNL     1      -9.432   7.043  18.055  0.00  0.00    +0.080 C 
ATOM     16  O   UNL     1     -10.361   8.136  18.015  0.00  0.00    -0.369 OA
ATOM     17  C   UNL     1      -8.872   6.804  16.645  0.00  0.00    +0.006 C 
ATOM     18  C   UNL     1      -8.115   7.977  15.979  0.00  0.00    +0.090 C 
ATOM     19  C   UNL     1      -6.967   8.604  16.827  0.00  0.00    +0.100 C 
ATOM     20  C   UNL     1      -7.372   9.686  17.798  0.00  0.00    -0.051 C 
ATOM     21  C   UNL     1      -6.633  10.748  18.183  0.00  0.00    -0.052 C 
ATOM     22  C   UNL     1      -7.248  11.758  19.041  0.00  0.00    -0.052 C 
ATOM     23  C   UNL     1      -6.740  12.977  19.271  0.00  0.00    +0.023 C 
ATOM     24  C   UNL     1      -7.388  14.010  20.094  0.00  0.00    +0.332 C 
ATOM     25  O   UNL     1      -7.126  15.193  19.944  0.00  0.00    -0.246 OA
ATOM     26  O   UNL     1      -8.206  13.474  21.039  0.00  0.00    -0.458 OA
ATOM     27  H   UNL     1      -8.717  15.427  21.548  0.00  0.00    +0.074 HD
ATOM     28  H   UNL     1     -10.759  15.069  22.484  0.00  0.00    +0.036 HD
ATOM     29  H   UNL     1     -11.900  12.864  22.800  0.00  0.00    +0.060 HD
ATOM     30  H   UNL     1      -9.105  11.631  22.850  0.00  0.00    +0.032 HD
ATOM     31  H   UNL     1     -10.327  11.376  21.600  0.00  0.00    +0.032 HD
ATOM     32  H   UNL     1     -11.874  10.663  23.647  0.00  0.00    +0.063 HD
ATOM     33  H   UNL     1      -8.915   7.569  22.639  0.00  0.00    +0.059 HD
ATOM     34  H   UNL     1      -8.577   8.802  23.919  0.00  0.00    +0.059 HD
ATOM     35  H   UNL     1     -11.864   7.727  21.877  0.00  0.00    +0.063 HD
ATOM     36  H   UNL     1      -9.737   7.794  20.622  0.00  0.00    +0.032 HD
ATOM     37  H   UNL     1      -9.943   9.485  20.269  0.00  0.00    +0.032 HD
ATOM     38  H   UNL     1     -11.920   9.078  18.911  0.00  0.00    +0.060 HD
ATOM     39  H   UNL     1     -12.793   6.971  18.272  0.00  0.00    +0.033 HD
ATOM     40  H   UNL     1     -12.792   6.937  20.029  0.00  0.00    +0.033 HD
ATOM     41  H   UNL     1     -11.740   4.778  19.408  0.00  0.00    +0.057 HD
ATOM     42  H   UNL     1      -9.469   4.862  18.539  0.00  0.00    +0.059 HD
ATOM     43  H   UNL     1      -8.615   7.299  18.736  0.00  0.00    +0.064 HD
ATOM     44  H   UNL     1      -8.190   5.943  16.678  0.00  0.00    +0.032 HD
ATOM     45  H   UNL     1      -9.705   6.519  15.993  0.00  0.00    +0.032 HD
ATOM     46  H   UNL     1      -7.619   7.539  15.100  0.00  0.00    +0.063 HD
ATOM     47  H   UNL     1      -6.273   9.045  16.102  0.00  0.00    +0.066 HD
ATOM     48  H   UNL     1      -8.409   9.639  18.118  0.00  0.00    +0.060 HD
ATOM     49  H   UNL     1      -8.213  11.501  19.473  0.00  0.00    +0.062 HD
ATOM     50  H   UNL     1      -5.823  13.319  18.808  0.00  0.00    +0.069 HD
ENDROOT
BRANCH  21  51
ATOM     51  C   UNL     1      -5.196  10.946  17.773  0.00  0.00    -0.040 C 
ATOM     52  H   UNL     1      -5.091  11.449  16.806  0.00  0.00    +0.028 HD
ATOM     53  H   UNL     1      -4.666  11.551  18.519  0.00  0.00    +0.028 HD
ATOM     54  H   UNL     1      -4.677   9.985  17.668  0.00  0.00    +0.028 HD
ENDBRANCH  21  51
BRANCH   2  55
ATOM     55  C   UNL     1     -10.937  14.020  20.652  0.00  0.00    -0.057 C 
ATOM     56  H   UNL     1     -10.413  14.675  19.944  0.00  0.00    +0.023 HD
ATOM     57  H   UNL     1     -10.880  12.998  20.267  0.00  0.00    +0.023 HD
ATOM     58  H   UNL     1     -11.991  14.319  20.656  0.00  0.00    +0.023 HD
ENDBRANCH   2  55
BRANCH   1  59
ATOM     59  C   UNL     1      -8.000  14.396  23.310  0.00  0.00    +0.020 C 
ATOM     60  H   UNL     1      -8.601  13.813  24.015  0.00  0.00    +0.036 HD
BRANCH  59  61
ATOM     61  C   UNL     1      -6.695  13.586  23.247  0.00  0.00    -0.057 C 
ATOM     62  H   UNL     1      -6.299  13.409  24.253  0.00  0.00    +0.023 HD
ATOM     63  H   UNL     1      -6.869  12.600  22.803  0.00  0.00    +0.023 HD
ATOM     64  H   UNL     1      -5.923  14.087  22.658  0.00  0.00    +0.023 HD
ENDBRANCH  59  61
BRANCH  59  65
ATOM     65  C   UNL     1      -7.782  15.808  23.930  0.00  0.00    +0.064 C 
ATOM     66  H   UNL     1      -8.652  16.101  24.525  0.00  0.00    +0.060 HD
BRANCH  65  67
ATOM     67  C   UNL     1      -7.444  16.994  22.969  0.00  0.00    -0.017 C 
ATOM     68  H   UNL     1      -7.851  16.751  21.985  0.00  0.00    +0.032 HD
BRANCH  67  69
ATOM     69  C   UNL     1      -8.073  18.304  23.447  0.00  0.00    -0.060 C 
ATOM     70  H   UNL     1      -8.762  18.147  24.282  0.00  0.00    +0.023 HD
ATOM     71  H   UNL     1      -8.626  18.796  22.640  0.00  0.00    +0.023 HD
ATOM     72  H   UNL     1      -7.321  18.998  23.825  0.00  0.00    +0.023 HD
ENDBRANCH  67  69
BRANCH  67  73
ATOM     73  C   UNL     1      -5.905  17.123  22.803  0.00  0.00    -0.046 C 
ATOM     74  H   UNL     1      -5.551  17.824  23.572  0.00  0.00    +0.027 HD
ATOM     75  H   UNL     1      -5.428  16.161  23.033  0.00  0.00    +0.027 HD
BRANCH  73  76
ATOM     76  C   UNL     1      -5.346  17.616  21.463  0.00  0.00    -0.026 C 
ATOM     77  H   UNL     1      -6.120  17.639  20.688  0.00  0.00    +0.029 HD
ATOM     78  H   UNL     1      -5.092  18.678  21.601  0.00  0.00    +0.029 HD
BRANCH  76  83
ATOM     79  C   UNL     1      -4.310  15.832  18.780  0.00  0.00    +0.059 C 
ATOM     80  C   UNL     1      -3.091  14.952  19.038  0.00  0.00    -0.000 C 
ATOM     81  C   UNL     1      -2.883  14.709  20.538  0.00  0.00    +0.063 C 
ATOM     82  C   UNL     1      -3.875  15.492  21.400  0.00  0.00    -0.000 C 
ATOM     83  C   UNL     1      -4.075  16.933  20.921  0.00  0.00    +0.061 C 
ATOM     84  O   UNL     1      -4.148  17.058  19.488  0.00  0.00    -0.373 OA
ATOM     85  H   UNL     1      -5.233  15.339  19.107  0.00  0.00    +0.059 HD
ATOM     86  H   UNL     1      -3.205  13.993  18.523  0.00  0.00    +0.032 HD
ATOM     87  H   UNL     1      -2.200  15.435  18.616  0.00  0.00    +0.032 HD
ATOM     88  H   UNL     1      -3.017  13.644  20.763  0.00  0.00    +0.060 HD
ATOM     89  H   UNL     1      -4.835  14.963  21.377  0.00  0.00    +0.032 HD
ATOM     90  H   UNL     1      -3.526  15.496  22.436  0.00  0.00    +0.032 HD
ATOM     91  H   UNL     1      -3.206  17.528  21.227  0.00  0.00    +0.060 HD
BRANCH  79  92
ATOM     92  C   UNL     1      -4.445  16.161  17.299  0.00  0.00    -0.039 C 
ATOM     93  H   UNL     1      -3.489  16.065  16.780  0.00  0.00    +0.025 HD
ATOM     94  H   UNL     1      -5.169  15.492  16.827  0.00  0.00    +0.025 HD
ATOM     95  H   UNL     1      -4.822  17.182  17.158  0.00  0.00    +0.025 HD
ENDBRANCH  79  92
BRANCH  81  96
ATOM     96  O   UNL     1      -1.555  15.086  20.927  0.00  0.00    -0.380 OA
BRANCH  96  97
ATOM     97  C   UNL     1      -0.742  15.479  19.827  0.00  0.00    +0.037 C 
ATOM     98  H   UNL     1       0.299  15.589  20.152  0.00  0.00    +0.052 HD
ATOM     99  H   UNL     1      -1.098  16.447  19.464  0.00  0.00    +0.052 HD
ATOM    100  H   UNL     1      -0.803  14.757  19.006  0.00  0.00    +0.052 HD
ENDBRANCH  96  97
ENDBRANCH  81  96
ENDBRANCH  76  83
ENDBRANCH  73  76
ENDBRANCH  67  73
ENDBRANCH  65  67
BRANCH  65 101
ATOM    101  O   UNL     1      -6.695  15.681  24.862  0.00  0.00    -0.391 OA
ATOM    102  H   UNL     1      -6.637  14.729  25.089  0.00  0.00    +0.210 HD
ENDBRANCH  65 101
ENDBRANCH  59  65
ENDBRANCH   1  59
BRANCH  19 103
ATOM    103  O   UNL     1      -6.255   7.586  17.529  0.00  0.00    -0.385 OA
ATOM    104  H   UNL     1      -5.309   7.701  17.326  0.00  0.00    +0.210 HD
ENDBRANCH  19 103
BRANCH  18 105
ATOM    105  O   UNL     1      -8.995   9.014  15.522  0.00  0.00    -0.377 OA
BRANCH 105 106
ATOM    106  C   UNL     1      -9.891   8.595  14.503  0.00  0.00    +0.037 C 
ATOM    107  H   UNL     1      -9.377   8.060  13.697  0.00  0.00    +0.052 HD
ATOM    108  H   UNL     1     -10.627   7.921  14.951  0.00  0.00    +0.052 HD
ATOM    109  H   UNL     1     -10.421   9.462  14.095  0.00  0.00    +0.052 HD
ENDBRANCH 105 106
ENDBRANCH  18 105
BRANCH   9 110
ATOM    110  O   UNL     1     -12.401   9.677  21.401  0.00  0.00    -0.377 OA
BRANCH 110 111
ATOM    111  C   UNL     1     -13.706   9.224  21.742  0.00  0.00    +0.037 C 
ATOM    112  H   UNL     1     -13.711   8.137  21.861  0.00  0.00    +0.052 HD
ATOM    113  H   UNL     1     -14.383   9.485  20.926  0.00  0.00    +0.052 HD
ATOM    114  H   UNL     1     -14.065   9.703  22.659  0.00  0.00    +0.052 HD
ENDBRANCH 110 111
ENDBRANCH   9 110
BRANCH   5 115
ATOM    115  O   UNL     1     -10.166  10.564  24.827  0.00  0.00    -0.377 OA
BRANCH 115 116
ATOM    116  C   UNL     1     -11.090  10.499  25.905  0.00  0.00    +0.037 C 
ATOM    117  H   UNL     1     -10.562  10.405  26.858  0.00  0.00    +0.052 HD
ATOM    118  H   UNL     1     -11.736  11.381  25.927  0.00  0.00    +0.052 HD
ATOM    119  H   UNL     1     -11.714   9.613  25.767  0.00  0.00    +0.052 HD
ENDBRANCH 115 116
ENDBRANCH   5 115
BRANCH   3 120
ATOM    120  O   UNL     1     -10.610  13.330  24.341  0.00  0.00    -0.379 OA
BRANCH 120 121
ATOM    121  C   UNL     1     -11.527  14.306  24.819  0.00  0.00    +0.037 C 
ATOM    122  H   UNL     1     -12.370  13.786  25.280  0.00  0.00    +0.052 HD
ATOM    123  H   UNL     1     -11.905  14.912  23.991  0.00  0.00    +0.052 HD
ATOM    124  H   UNL     1     -11.062  14.948  25.572  0.00  0.00    +0.052 HD
ENDBRANCH 120 121
ENDBRANCH   3 120
TORSDOF 23
ENDMDL
