MODEL 1
REMARK VINA RESULT:      -6.5      0.000      0.000
REMARK  Name = Lobophorolide_conf2
REMARK  23 active torsions:
REMARK  status: ('A' for Active; 'I' for Inactive)
REMARK    1  A    between atoms: C_1  and  C_2
REMARK    2  A    between atoms: C_4  and  O_53
REMARK    3  A    between atoms: C_6  and  C_8
REMARK    4  A    between atoms: C_8  and  C_9
REMARK    5  A    between atoms: C_9  and  C_10
REMARK    6  A    between atoms: C_10  and  C_11
REMARK    7  A    between atoms: C_10  and  C_12
REMARK    8  A    between atoms: C_12  and  C_13
REMARK    9  A    between atoms: C_12  and  O_52
REMARK   10  A    between atoms: C_13  and  C_14
REMARK   11  A    between atoms: C_13  and  C_15
REMARK   12  A    between atoms: C_16  and  C_51
REMARK   13  A    between atoms: C_17  and  O_49
REMARK   14  A    between atoms: C_19  and  O_47
REMARK   15  A    between atoms: C_23  and  O_45
REMARK   16  A    between atoms: C_32  and  O_43
REMARK   17  A    between atoms: C_33  and  O_42
REMARK   18  A    between atoms: C_35  and  C_41
REMARK   19  A    between atoms: O_43  and  C_44
REMARK   20  A    between atoms: O_45  and  C_46
REMARK   21  A    between atoms: O_47  and  C_48
REMARK   22  A    between atoms: O_49  and  C_50
REMARK   23  A    between atoms: O_53  and  C_54
REMARK                            x       y       z     vdW  Elec       q    Type
REMARK                         _______ _______ _______ _____ _____    ______ ____
ROOT
ATOM      1  C   UNL     1      -3.675  16.006  19.080  0.00  0.00    +0.113 C 
ATOM      2  C   UNL     1      -4.823  16.934  19.580  0.00  0.00    +0.020 C 
ATOM      3  C   UNL     1      -6.052  16.903  18.608  0.00  0.00    +0.067 C 
ATOM      4  C   UNL     1      -7.391  17.021  19.380  0.00  0.00    +0.003 C 
ATOM      5  C   UNL     1      -8.209  15.706  19.425  0.00  0.00    +0.094 C 
ATOM      6  C   UNL     1      -8.925  15.327  18.131  0.00  0.00    +0.145 C 
ATOM      7  C   UNL     1      -9.643  16.419  17.338  0.00  0.00    +0.083 C 
ATOM      8  O   UNL     1      -8.381  15.884  16.922  0.00  0.00    -0.363 OA
ATOM      9  C   UNL     1      -9.504  13.911  18.024  0.00  0.00    +0.094 C 
ATOM     10  C   UNL     1      -9.419  13.347  16.590  0.00  0.00    +0.003 C 
ATOM     11  C   UNL     1     -10.176  12.046  16.279  0.00  0.00    +0.065 C 
ATOM     12  C   UNL     1     -11.674  12.276  16.015  0.00  0.00    -0.008 C 
ATOM     13  C   UNL     1     -12.361  10.969  15.770  0.00  0.00    -0.083 C 
ATOM     14  C   UNL     1     -11.801   9.825  16.182  0.00  0.00    -0.059 C 
ATOM     15  C   UNL     1     -10.498   9.758  16.945  0.00  0.00    +0.080 C 
ATOM     16  O   UNL     1      -9.988  11.059  17.305  0.00  0.00    -0.369 OA
ATOM     17  C   UNL     1      -9.421   8.968  16.184  0.00  0.00    +0.006 C 
ATOM     18  C   UNL     1      -8.396   8.364  17.160  0.00  0.00    +0.090 C 
ATOM     19  C   UNL     1      -6.960   8.378  16.579  0.00  0.00    +0.100 C 
ATOM     20  C   UNL     1      -6.304   9.733  16.574  0.00  0.00    -0.051 C 
ATOM     21  C   UNL     1      -5.951  10.497  17.630  0.00  0.00    -0.052 C 
ATOM     22  C   UNL     1      -5.337  11.804  17.385  0.00  0.00    -0.052 C 
ATOM     23  C   UNL     1      -4.971  12.677  18.334  0.00  0.00    +0.023 C 
ATOM     24  C   UNL     1      -4.362  13.977  17.988  0.00  0.00    +0.332 C 
ATOM     25  O   UNL     1      -4.087  14.363  16.866  0.00  0.00    -0.246 OA
ATOM     26  O   UNL     1      -4.184  14.655  19.151  0.00  0.00    -0.458 OA
ATOM     27  H   UNL     1      -3.427  16.282  18.048  0.00  0.00    +0.074 HD
ATOM     28  H   UNL     1      -5.158  16.512  20.537  0.00  0.00    +0.036 HD
ATOM     29  H   UNL     1      -6.064  15.984  18.014  0.00  0.00    +0.060 HD
ATOM     30  H   UNL     1      -7.996  17.835  18.972  0.00  0.00    +0.032 HD
ATOM     31  H   UNL     1      -7.182  17.317  20.416  0.00  0.00    +0.032 HD
ATOM     32  H   UNL     1      -9.001  15.830  20.175  0.00  0.00    +0.063 HD
ATOM     33  H   UNL     1      -9.673  17.432  17.711  0.00  0.00    +0.059 HD
ATOM     34  H   UNL     1     -10.522  16.151  16.761  0.00  0.00    +0.059 HD
ATOM     35  H   UNL     1      -8.943  13.224  18.671  0.00  0.00    +0.063 HD
ATOM     36  H   UNL     1      -8.353  13.179  16.381  0.00  0.00    +0.032 HD
ATOM     37  H   UNL     1      -9.756  14.092  15.860  0.00  0.00    +0.032 HD
ATOM     38  H   UNL     1      -9.730  11.666  15.351  0.00  0.00    +0.060 HD
ATOM     39  H   UNL     1     -11.798  12.926  15.141  0.00  0.00    +0.033 HD
ATOM     40  H   UNL     1     -12.176  12.754  16.860  0.00  0.00    +0.033 HD
ATOM     41  H   UNL     1     -13.318  10.972  15.261  0.00  0.00    +0.057 HD
ATOM     42  H   UNL     1     -12.310   8.883  15.995  0.00  0.00    +0.059 HD
ATOM     43  H   UNL     1     -10.720   9.252  17.892  0.00  0.00    +0.064 HD
ATOM     44  H   UNL     1      -9.885   8.161  15.601  0.00  0.00    +0.032 HD
ATOM     45  H   UNL     1      -8.918   9.633  15.474  0.00  0.00    +0.032 HD
ATOM     46  H   UNL     1      -8.416   8.898  18.118  0.00  0.00    +0.063 HD
ATOM     47  H   UNL     1      -6.984   7.994  15.550  0.00  0.00    +0.066 HD
ATOM     48  H   UNL     1      -6.117  10.113  15.571  0.00  0.00    +0.060 HD
ATOM     49  H   UNL     1      -5.173  12.075  16.343  0.00  0.00    +0.062 HD
ATOM     50  H   UNL     1      -5.104  12.492  19.391  0.00  0.00    +0.069 HD
ENDROOT
BRANCH  21  51
ATOM     51  C   UNL     1      -6.149  10.080  19.067  0.00  0.00    -0.040 C 
ATOM     52  H   UNL     1      -5.410  10.570  19.710  0.00  0.00    +0.028 HD
ATOM     53  H   UNL     1      -6.047   8.998  19.180  0.00  0.00    +0.028 HD
ATOM     54  H   UNL     1      -7.137  10.323  19.461  0.00  0.00    +0.028 HD
ENDBRANCH  21  51
BRANCH   2  55
ATOM     55  C   UNL     1      -4.362  18.376  19.838  0.00  0.00    -0.057 C 
ATOM     56  H   UNL     1      -4.539  19.006  18.960  0.00  0.00    +0.023 HD
ATOM     57  H   UNL     1      -4.905  18.837  20.666  0.00  0.00    +0.023 HD
ATOM     58  H   UNL     1      -3.293  18.413  20.078  0.00  0.00    +0.023 HD
ENDBRANCH   2  55
BRANCH   1  59
ATOM     59  C   UNL     1      -2.357  16.078  19.910  0.00  0.00    +0.020 C 
ATOM     60  H   UNL     1      -2.354  17.045  20.425  0.00  0.00    +0.036 HD
BRANCH  59  61
ATOM     61  C   UNL     1      -2.295  15.014  21.009  0.00  0.00    -0.057 C 
ATOM     62  H   UNL     1      -3.166  15.071  21.669  0.00  0.00    +0.023 HD
ATOM     63  H   UNL     1      -2.293  14.005  20.590  0.00  0.00    +0.023 HD
ATOM     64  H   UNL     1      -1.387  15.106  21.607  0.00  0.00    +0.023 HD
ENDBRANCH  59  61
BRANCH  59  65
ATOM     65  C   UNL     1      -1.094  16.084  18.994  0.00  0.00    +0.064 C 
ATOM     66  H   UNL     1      -1.222  16.914  18.287  0.00  0.00    +0.060 HD
BRANCH  65  67
ATOM     67  C   UNL     1      -0.752  14.798  18.179  0.00  0.00    -0.017 C 
ATOM     68  H   UNL     1      -1.671  14.241  17.990  0.00  0.00    +0.032 HD
BRANCH  67  69
ATOM     69  C   UNL     1      -0.219  15.242  16.804  0.00  0.00    -0.060 C 
ATOM     70  H   UNL     1       0.268  16.219  16.860  0.00  0.00    +0.023 HD
ATOM     71  H   UNL     1      -1.025  15.310  16.062  0.00  0.00    +0.023 HD
ATOM     72  H   UNL     1       0.526  14.530  16.429  0.00  0.00    +0.023 HD
ENDBRANCH  67  69
BRANCH  67  73
ATOM     73  C   UNL     1       0.297  13.859  18.834  0.00  0.00    -0.046 C 
ATOM     74  H   UNL     1       0.101  12.821  18.557  0.00  0.00    +0.027 HD
ATOM     75  H   UNL     1       0.220  13.887  19.928  0.00  0.00    +0.027 HD
BRANCH  73  76
ATOM     76  C   UNL     1       1.758  14.151  18.442  0.00  0.00    -0.026 C 
ATOM     77  H   UNL     1       2.070  13.378  17.728  0.00  0.00    +0.029 HD
ATOM     78  H   UNL     1       1.809  15.109  17.914  0.00  0.00    +0.029 HD
BRANCH  76  83
ATOM     79  C   UNL     1       2.974  14.686  21.943  0.00  0.00    +0.059 C 
ATOM     80  C   UNL     1       4.297  15.400  21.663  0.00  0.00    -0.000 C 
ATOM     81  C   UNL     1       4.274  16.096  20.311  0.00  0.00    +0.063 C 
ATOM     82  C   UNL     1       3.966  15.065  19.230  0.00  0.00    -0.000 C 
ATOM     83  C   UNL     1       2.775  14.166  19.599  0.00  0.00    +0.061 C 
ATOM     84  O   UNL     1       2.134  14.636  20.784  0.00  0.00    -0.373 OA
ATOM     85  H   UNL     1       2.414  15.277  22.679  0.00  0.00    +0.059 HD
ATOM     86  H   UNL     1       4.506  16.126  22.463  0.00  0.00    +0.032 HD
ATOM     87  H   UNL     1       5.144  14.699  21.703  0.00  0.00    +0.032 HD
ATOM     88  H   UNL     1       3.502  16.876  20.321  0.00  0.00    +0.060 HD
ATOM     89  H   UNL     1       3.798  15.576  18.274  0.00  0.00    +0.032 HD
ATOM     90  H   UNL     1       4.847  14.434  19.046  0.00  0.00    +0.032 HD
ATOM     91  H   UNL     1       3.121  13.138  19.759  0.00  0.00    +0.060 HD
BRANCH  79  92
ATOM     92  C   UNL     1       3.185  13.302  22.552  0.00  0.00    -0.039 C 
ATOM     93  H   UNL     1       3.120  12.514  21.795  0.00  0.00    +0.025 HD
ATOM     94  H   UNL     1       4.168  13.236  23.025  0.00  0.00    +0.025 HD
ATOM     95  H   UNL     1       2.417  13.090  23.303  0.00  0.00    +0.025 HD
ENDBRANCH  79  92
BRANCH  81  96
ATOM     96  O   UNL     1       5.555  16.704  20.107  0.00  0.00    -0.380 OA
BRANCH  96  97
ATOM     97  C   UNL     1       6.029  17.414  21.247  0.00  0.00    +0.037 C 
ATOM     98  H   UNL     1       6.379  16.721  22.018  0.00  0.00    +0.052 HD
ATOM     99  H   UNL     1       6.871  18.036  20.933  0.00  0.00    +0.052 HD
ATOM    100  H   UNL     1       5.251  18.069  21.649  0.00  0.00    +0.052 HD
ENDBRANCH  96  97
ENDBRANCH  81  96
ENDBRANCH  76  83
ENDBRANCH  73  76
ENDBRANCH  67  73
ENDBRANCH  65  67
BRANCH  65 101
ATOM    101  O   UNL     1       0.048  16.438  19.790  0.00  0.00    -0.391 OA
ATOM    102  H   UNL     1       0.033  15.879  20.585  0.00  0.00    +0.210 HD
ENDBRANCH  65 101
ENDBRANCH  59  65
ENDBRANCH   1  59
BRANCH  19 103
ATOM    103  O   UNL     1      -6.121   7.475  17.301  0.00  0.00    -0.385 OA
ATOM    104  H   UNL     1      -6.387   6.591  16.987  0.00  0.00    +0.210 HD
ENDBRANCH  19 103
BRANCH  18 105
ATOM    105  O   UNL     1      -8.767   6.977  17.373  0.00  0.00    -0.377 OA
BRANCH 105 106
ATOM    106  C   UNL     1      -9.324   6.753  18.666  0.00  0.00    +0.037 C 
ATOM    107  H   UNL     1     -10.023   7.554  18.928  0.00  0.00    +0.052 HD
ATOM    108  H   UNL     1      -8.508   6.752  19.394  0.00  0.00    +0.052 HD
ATOM    109  H   UNL     1      -9.827   5.781  18.703  0.00  0.00    +0.052 HD
ENDBRANCH 105 106
ENDBRANCH  18 105
BRANCH   9 110
ATOM    110  O   UNL     1     -10.872  13.988  18.447  0.00  0.00    -0.377 OA
BRANCH 110 111
ATOM    111  C   UNL     1     -11.078  13.407  19.726  0.00  0.00    +0.037 C 
ATOM    112  H   UNL     1     -11.902  13.932  20.215  0.00  0.00    +0.052 HD
ATOM    113  H   UNL     1     -10.181  13.515  20.342  0.00  0.00    +0.052 HD
ATOM    114  H   UNL     1     -11.347  12.351  19.637  0.00  0.00    +0.052 HD
ENDBRANCH 110 111
ENDBRANCH   9 110
BRANCH   5 115
ATOM    115  O   UNL     1      -7.347  14.626  19.819  0.00  0.00    -0.377 OA
BRANCH 115 116
ATOM    116  C   UNL     1      -7.290  14.439  21.227  0.00  0.00    +0.037 C 
ATOM    117  H   UNL     1      -6.667  15.210  21.689  0.00  0.00    +0.052 HD
ATOM    118  H   UNL     1      -6.908  13.445  21.478  0.00  0.00    +0.052 HD
ATOM    119  H   UNL     1      -8.305  14.533  21.622  0.00  0.00    +0.052 HD
ENDBRANCH 115 116
ENDBRANCH   5 115
BRANCH   3 120
ATOM    120  O   UNL     1      -5.995  18.038  17.719  0.00  0.00    -0.379 OA
BRANCH 120 121
ATOM    121  C   UNL     1      -5.705  17.687  16.371  0.00  0.00    +0.037 C 
ATOM    122  H   UNL     1      -5.197  16.722  16.321  0.00  0.00    +0.052 HD
ATOM    123  H   UNL     1      -6.616  17.671  15.767  0.00  0.00    +0.052 HD
ATOM    124  H   UNL     1      -5.036  18.447  15.958  0.00  0.00    +0.052 HD
ENDBRANCH 120 121
ENDBRANCH   3 120
TORSDOF 23
ENDMDL
MODEL 2
REMARK VINA RESULT:      -6.3      1.000      1.461
REMARK  Name = Lobophorolide_conf2
REMARK  23 active torsions:
REMARK  status: ('A' for Active; 'I' for Inactive)
REMARK    1  A    between atoms: C_1  and  C_2
REMARK    2  A    between atoms: C_4  and  O_53
REMARK    3  A    between atoms: C_6  and  C_8
REMARK    4  A    between atoms: C_8  and  C_9
REMARK    5  A    between atoms: C_9  and  C_10
REMARK    6  A    between atoms: C_10  and  C_11
REMARK    7  A    between atoms: C_10  and  C_12
REMARK    8  A    between atoms: C_12  and  C_13
REMARK    9  A    between atoms: C_12  and  O_52
REMARK   10  A    between atoms: C_13  and  C_14
REMARK   11  A    between atoms: C_13  and  C_15
REMARK   12  A    between atoms: C_16  and  C_51
REMARK   13  A    between atoms: C_17  and  O_49
REMARK   14  A    between atoms: C_19  and  O_47
REMARK   15  A    between atoms: C_23  and  O_45
REMARK   16  A    between atoms: C_32  and  O_43
REMARK   17  A    between atoms: C_33  and  O_42
REMARK   18  A    between atoms: C_35  and  C_41
REMARK   19  A    between atoms: O_43  and  C_44
REMARK   20  A    between atoms: O_45  and  C_46
REMARK   21  A    between atoms: O_47  and  C_48
REMARK   22  A    between atoms: O_49  and  C_50
REMARK   23  A    between atoms: O_53  and  C_54
REMARK                            x       y       z     vdW  Elec       q    Type
REMARK                         _______ _______ _______ _____ _____    ______ ____
ROOT
ATOM      1  C   UNL     1      -4.164  16.044  19.021  0.00  0.00    +0.113 C 
ATOM      2  C   UNL     1      -5.368  16.911  19.496  0.00  0.00    +0.020 C 
ATOM      3  C   UNL     1      -6.578  16.805  18.506  0.00  0.00    +0.067 C 
ATOM      4  C   UNL     1      -7.933  16.856  19.257  0.00  0.00    +0.003 C 
ATOM      5  C   UNL     1      -8.679  15.498  19.302  0.00  0.00    +0.094 C 
ATOM      6  C   UNL     1      -9.354  15.071  18.000  0.00  0.00    +0.145 C 
ATOM      7  C   UNL     1     -10.118  16.115  17.188  0.00  0.00    +0.083 C 
ATOM      8  O   UNL     1      -8.823  15.648  16.795  0.00  0.00    -0.363 OA
ATOM      9  C   UNL     1      -9.852  13.624  17.896  0.00  0.00    +0.094 C 
ATOM     10  C   UNL     1      -9.715  13.055  16.469  0.00  0.00    +0.003 C 
ATOM     11  C   UNL     1     -10.395  11.712  16.157  0.00  0.00    +0.065 C 
ATOM     12  C   UNL     1     -11.899  11.857  15.870  0.00  0.00    -0.008 C 
ATOM     13  C   UNL     1     -12.509  10.512  15.626  0.00  0.00    -0.083 C 
ATOM     14  C   UNL     1     -11.893   9.404  16.055  0.00  0.00    -0.059 C 
ATOM     15  C   UNL     1     -10.600   9.414  16.838  0.00  0.00    +0.080 C 
ATOM     16  O   UNL     1     -10.168  10.745  17.194  0.00  0.00    -0.369 OA
ATOM     17  C   UNL     1      -9.470   8.679  16.099  0.00  0.00    +0.006 C 
ATOM     18  C   UNL     1      -8.428   8.140  17.096  0.00  0.00    +0.090 C 
ATOM     19  C   UNL     1      -6.987   8.228  16.535  0.00  0.00    +0.100 C 
ATOM     20  C   UNL     1      -6.407   9.618  16.528  0.00  0.00    -0.051 C 
ATOM     21  C   UNL     1      -6.112  10.408  17.583  0.00  0.00    -0.052 C 
ATOM     22  C   UNL     1      -5.566  11.745  17.336  0.00  0.00    -0.052 C 
ATOM     23  C   UNL     1      -5.263  12.644  18.283  0.00  0.00    +0.023 C 
ATOM     24  C   UNL     1      -4.722  13.972  17.936  0.00  0.00    +0.332 C 
ATOM     25  O   UNL     1      -4.451  14.365  16.814  0.00  0.00    -0.246 OA
ATOM     26  O   UNL     1      -4.599  14.668  19.095  0.00  0.00    -0.458 OA
ATOM     27  H   UNL     1      -3.916  16.326  17.990  0.00  0.00    +0.074 HD
ATOM     28  H   UNL     1      -5.693  16.479  20.451  0.00  0.00    +0.036 HD
ATOM     29  H   UNL     1      -6.532  15.883  17.920  0.00  0.00    +0.060 HD
ATOM     30  H   UNL     1      -8.576  17.632  18.834  0.00  0.00    +0.032 HD
ATOM     31  H   UNL     1      -7.757  17.170  20.294  0.00  0.00    +0.032 HD
ATOM     32  H   UNL     1      -9.488  15.584  20.039  0.00  0.00    +0.063 HD
ATOM     33  H   UNL     1     -10.209  17.128  17.552  0.00  0.00    +0.059 HD
ATOM     34  H   UNL     1     -10.972  15.795  16.600  0.00  0.00    +0.059 HD
ATOM     35  H   UNL     1      -9.264  12.974  18.557  0.00  0.00    +0.063 HD
ATOM     36  H   UNL     1      -8.639  12.945  16.277  0.00  0.00    +0.032 HD
ATOM     37  H   UNL     1     -10.081  13.775  15.727  0.00  0.00    +0.032 HD
ATOM     38  H   UNL     1      -9.914  11.350  15.239  0.00  0.00    +0.060 HD
ATOM     39  H   UNL     1     -12.045  12.492  14.989  0.00  0.00    +0.033 HD
ATOM     40  H   UNL     1     -12.439  12.313  16.703  0.00  0.00    +0.033 HD
ATOM     41  H   UNL     1     -13.457  10.459  15.102  0.00  0.00    +0.057 HD
ATOM     42  H   UNL     1     -12.347   8.434  15.869  0.00  0.00    +0.059 HD
ATOM     43  H   UNL     1     -10.809   8.904  17.786  0.00  0.00    +0.064 HD
ATOM     44  H   UNL     1      -9.880   7.844  15.517  0.00  0.00    +0.032 HD
ATOM     45  H   UNL     1      -8.994   9.366  15.392  0.00  0.00    +0.032 HD
ATOM     46  H   UNL     1      -8.492   8.679  18.048  0.00  0.00    +0.063 HD
ATOM     47  H   UNL     1      -6.974   7.836  15.509  0.00  0.00    +0.066 HD
ATOM     48  H   UNL     1      -6.225  10.000  15.525  0.00  0.00    +0.060 HD
ATOM     49  H   UNL     1      -5.402  12.017  16.294  0.00  0.00    +0.062 HD
ATOM     50  H   UNL     1      -5.402  12.460  19.340  0.00  0.00    +0.069 HD
ENDROOT
BRANCH  21  51
ATOM     51  C   UNL     1      -6.308   9.991  19.020  0.00  0.00    -0.040 C 
ATOM     52  H   UNL     1      -7.297   9.543  19.154  0.00  0.00    +0.028 HD
ATOM     53  H   UNL     1      -6.219  10.848  19.693  0.00  0.00    +0.028 HD
ATOM     54  H   UNL     1      -5.570   9.268  19.371  0.00  0.00    +0.028 HD
ENDBRANCH  21  51
BRANCH   2  55
ATOM     55  C   UNL     1      -4.990  18.379  19.748  0.00  0.00    -0.057 C 
ATOM     56  H   UNL     1      -4.722  18.880  18.813  0.00  0.00    +0.023 HD
ATOM     57  H   UNL     1      -5.820  18.946  20.178  0.00  0.00    +0.023 HD
ATOM     58  H   UNL     1      -4.141  18.457  20.437  0.00  0.00    +0.023 HD
ENDBRANCH   2  55
BRANCH   1  59
ATOM     59  C   UNL     1      -2.864  16.195  19.869  0.00  0.00    +0.020 C 
ATOM     60  H   UNL     1      -2.907  17.178  20.350  0.00  0.00    +0.036 HD
BRANCH  59  61
ATOM     61  C   UNL     1      -2.781  15.172  21.005  0.00  0.00    -0.057 C 
ATOM     62  H   UNL     1      -3.774  14.806  21.285  0.00  0.00    +0.023 HD
ATOM     63  H   UNL     1      -2.202  14.294  20.711  0.00  0.00    +0.023 HD
ATOM     64  H   UNL     1      -2.292  15.590  21.887  0.00  0.00    +0.023 HD
ENDBRANCH  59  61
BRANCH  59  65
ATOM     65  C   UNL     1      -1.586  16.219  18.974  0.00  0.00    +0.064 C 
ATOM     66  H   UNL     1      -1.703  17.062  18.281  0.00  0.00    +0.060 HD
BRANCH  65  67
ATOM     67  C   UNL     1      -1.229  14.948  18.141  0.00  0.00    -0.017 C 
ATOM     68  H   UNL     1      -2.153  14.466  17.815  0.00  0.00    +0.032 HD
BRANCH  67  69
ATOM     69  C   UNL     1      -0.504  15.413  16.865  0.00  0.00    -0.060 C 
ATOM     70  H   UNL     1      -0.057  14.572  16.329  0.00  0.00    +0.023 HD
ATOM     71  H   UNL     1       0.296  16.129  17.094  0.00  0.00    +0.023 HD
ATOM     72  H   UNL     1      -1.205  15.900  16.177  0.00  0.00    +0.023 HD
ENDBRANCH  67  69
BRANCH  67  73
ATOM     73  C   UNL     1      -0.333  13.910  18.868  0.00  0.00    -0.046 C 
ATOM     74  H   UNL     1      -0.785  12.918  18.819  0.00  0.00    +0.027 HD
ATOM     75  H   UNL     1      -0.253  14.141  19.938  0.00  0.00    +0.027 HD
BRANCH  73  76
ATOM     76  C   UNL     1       1.091  13.774  18.293  0.00  0.00    -0.026 C 
ATOM     77  H   UNL     1       1.287  12.704  18.144  0.00  0.00    +0.029 HD
ATOM     78  H   UNL     1       1.131  14.244  17.305  0.00  0.00    +0.029 HD
BRANCH  76  83
ATOM     79  C   UNL     1       4.607  14.209  19.507  0.00  0.00    +0.059 C 
ATOM     80  C   UNL     1       4.378  14.169  21.018  0.00  0.00    -0.000 C 
ATOM     81  C   UNL     1       3.103  13.414  21.364  0.00  0.00    +0.063 C 
ATOM     82  C   UNL     1       1.929  14.074  20.647  0.00  0.00    -0.000 C 
ATOM     83  C   UNL     1       2.225  14.346  19.163  0.00  0.00    +0.061 C 
ATOM     84  O   UNL     1       3.463  13.749  18.777  0.00  0.00    -0.373 OA
ATOM     85  H   UNL     1       5.408  13.501  19.262  0.00  0.00    +0.059 HD
ATOM     86  H   UNL     1       5.242  13.705  21.514  0.00  0.00    +0.032 HD
ATOM     87  H   UNL     1       4.332  15.184  21.441  0.00  0.00    +0.032 HD
ATOM     88  H   UNL     1       3.204  12.370  21.043  0.00  0.00    +0.060 HD
ATOM     89  H   UNL     1       1.032  13.452  20.766  0.00  0.00    +0.032 HD
ATOM     90  H   UNL     1       1.667  15.020  21.140  0.00  0.00    +0.032 HD
ATOM     91  H   UNL     1       2.275  15.427  18.988  0.00  0.00    +0.060 HD
BRANCH  79  92
ATOM     92  C   UNL     1       5.069  15.584  19.031  0.00  0.00    -0.039 C 
ATOM     93  H   UNL     1       6.117  15.572  18.718  0.00  0.00    +0.025 HD
ATOM     94  H   UNL     1       4.466  15.919  18.183  0.00  0.00    +0.025 HD
ATOM     95  H   UNL     1       4.982  16.320  19.837  0.00  0.00    +0.025 HD
ENDBRANCH  79  92
BRANCH  81  96
ATOM     96  O   UNL     1       2.940  13.456  22.786  0.00  0.00    -0.380 OA
BRANCH  96  97
ATOM     97  C   UNL     1       3.805  14.389  23.426  0.00  0.00    +0.037 C 
ATOM     98  H   UNL     1       3.387  14.710  24.386  0.00  0.00    +0.052 HD
ATOM     99  H   UNL     1       4.761  13.893  23.612  0.00  0.00    +0.052 HD
ATOM    100  H   UNL     1       3.987  15.254  22.782  0.00  0.00    +0.052 HD
ENDBRANCH  96  97
ENDBRANCH  81  96
ENDBRANCH  76  83
ENDBRANCH  73  76
ENDBRANCH  67  73
ENDBRANCH  65  67
BRANCH  65 101
ATOM    101  O   UNL     1      -0.458  16.558  19.795  0.00  0.00    -0.391 OA
ATOM    102  H   UNL     1      -0.744  17.255  20.410  0.00  0.00    +0.210 HD
ENDBRANCH  65 101
ENDBRANCH  59  65
ENDBRANCH   1  59
BRANCH  19 103
ATOM    103  O   UNL     1      -6.111   7.378  17.277  0.00  0.00    -0.385 OA
ATOM    104  H   UNL     1      -5.737   6.772  16.611  0.00  0.00    +0.210 HD
ENDBRANCH  19 103
BRANCH  18 105
ATOM    105  O   UNL     1      -8.726   6.736  17.315  0.00  0.00    -0.377 OA
BRANCH 105 106
ATOM    106  C   UNL     1      -9.157   6.077  16.127  0.00  0.00    +0.037 C 
ATOM    107  H   UNL     1      -8.450   5.291  15.845  0.00  0.00    +0.052 HD
ATOM    108  H   UNL     1      -9.195   6.815  15.321  0.00  0.00    +0.052 HD
ATOM    109  H   UNL     1     -10.159   5.657  16.265  0.00  0.00    +0.052 HD
ENDBRANCH 105 106
ENDBRANCH  18 105
BRANCH   9 110
ATOM    110  O   UNL     1     -11.229  13.628  18.299  0.00  0.00    -0.377 OA
BRANCH 110 111
ATOM    111  C   UNL     1     -11.421  13.047  19.580  0.00  0.00    +0.037 C 
ATOM    112  H   UNL     1     -12.461  13.204  19.877  0.00  0.00    +0.052 HD
ATOM    113  H   UNL     1     -10.772  13.527  20.317  0.00  0.00    +0.052 HD
ATOM    114  H   UNL     1     -11.229  11.971  19.553  0.00  0.00    +0.052 HD
ENDBRANCH 110 111
ENDBRANCH   9 110
BRANCH   5 115
ATOM    115  O   UNL     1      -7.765  14.470  19.717  0.00  0.00    -0.377 OA
BRANCH 115 116
ATOM    116  C   UNL     1      -7.741  14.277  21.125  0.00  0.00    +0.037 C 
ATOM    117  H   UNL     1      -7.878  15.231  21.643  0.00  0.00    +0.052 HD
ATOM    118  H   UNL     1      -6.806  13.806  21.443  0.00  0.00    +0.052 HD
ATOM    119  H   UNL     1      -8.572  13.618  21.390  0.00  0.00    +0.052 HD
ENDBRANCH 115 116
ENDBRANCH   5 115
BRANCH   3 120
ATOM    120  O   UNL     1      -6.571  17.935  17.609  0.00  0.00    -0.379 OA
BRANCH 120 121
ATOM    121  C   UNL     1      -5.970  17.654  16.350  0.00  0.00    +0.037 C 
ATOM    122  H   UNL     1      -5.082  18.270  16.197  0.00  0.00    +0.052 HD
ATOM    123  H   UNL     1      -5.718  16.593  16.266  0.00  0.00    +0.052 HD
ATOM    124  H   UNL     1      -6.693  17.895  15.566  0.00  0.00    +0.052 HD
ENDBRANCH 120 121
ENDBRANCH   3 120
TORSDOF 23
ENDMDL
MODEL 3
REMARK VINA RESULT:      -6.2      1.577      2.127
REMARK  Name = Lobophorolide_conf2
REMARK  23 active torsions:
REMARK  status: ('A' for Active; 'I' for Inactive)
REMARK    1  A    between atoms: C_1  and  C_2
REMARK    2  A    between atoms: C_4  and  O_53
REMARK    3  A    between atoms: C_6  and  C_8
REMARK    4  A    between atoms: C_8  and  C_9
REMARK    5  A    between atoms: C_9  and  C_10
REMARK    6  A    between atoms: C_10  and  C_11
REMARK    7  A    between atoms: C_10  and  C_12
REMARK    8  A    between atoms: C_12  and  C_13
REMARK    9  A    between atoms: C_12  and  O_52
REMARK   10  A    between atoms: C_13  and  C_14
REMARK   11  A    between atoms: C_13  and  C_15
REMARK   12  A    between atoms: C_16  and  C_51
REMARK   13  A    between atoms: C_17  and  O_49
REMARK   14  A    between atoms: C_19  and  O_47
REMARK   15  A    between atoms: C_23  and  O_45
REMARK   16  A    between atoms: C_32  and  O_43
REMARK   17  A    between atoms: C_33  and  O_42
REMARK   18  A    between atoms: C_35  and  C_41
REMARK   19  A    between atoms: O_43  and  C_44
REMARK   20  A    between atoms: O_45  and  C_46
REMARK   21  A    between atoms: O_47  and  C_48
REMARK   22  A    between atoms: O_49  and  C_50
REMARK   23  A    between atoms: O_53  and  C_54
REMARK                            x       y       z     vdW  Elec       q    Type
REMARK                         _______ _______ _______ _____ _____    ______ ____
ROOT
ATOM      1  C   UNL     1      -5.328  15.861  20.028  0.00  0.00    +0.113 C 
ATOM      2  C   UNL     1      -6.655  16.662  20.187  0.00  0.00    +0.020 C 
ATOM      3  C   UNL     1      -7.536  16.577  18.894  0.00  0.00    +0.067 C 
ATOM      4  C   UNL     1      -9.048  16.543  19.237  0.00  0.00    +0.003 C 
ATOM      5  C   UNL     1      -9.713  15.163  19.007  0.00  0.00    +0.094 C 
ATOM      6  C   UNL     1      -9.980  14.791  17.550  0.00  0.00    +0.145 C 
ATOM      7  C   UNL     1     -10.535  15.858  16.606  0.00  0.00    +0.083 C 
ATOM      8  O   UNL     1      -9.162  15.454  16.570  0.00  0.00    -0.363 OA
ATOM      9  C   UNL     1     -10.364  13.339  17.242  0.00  0.00    +0.094 C 
ATOM     10  C   UNL     1      -9.809  12.857  15.885  0.00  0.00    +0.003 C 
ATOM     11  C   UNL     1     -10.314  11.515  15.333  0.00  0.00    +0.065 C 
ATOM     12  C   UNL     1     -11.684  11.631  14.643  0.00  0.00    -0.008 C 
ATOM     13  C   UNL     1     -12.140  10.284  14.175  0.00  0.00    -0.083 C 
ATOM     14  C   UNL     1     -11.618   9.173  14.706  0.00  0.00    -0.059 C 
ATOM     15  C   UNL     1     -10.596   9.177  15.819  0.00  0.00    +0.080 C 
ATOM     16  O   UNL     1     -10.341  10.497  16.345  0.00  0.00    -0.369 OA
ATOM     17  C   UNL     1      -9.273   8.520  15.392  0.00  0.00    +0.006 C 
ATOM     18  C   UNL     1      -8.526   7.956  16.614  0.00  0.00    +0.090 C 
ATOM     19  C   UNL     1      -6.991   8.121  16.485  0.00  0.00    +0.100 C 
ATOM     20  C   UNL     1      -6.495   9.525  16.707  0.00  0.00    -0.051 C 
ATOM     21  C   UNL     1      -6.541  10.262  17.837  0.00  0.00    -0.052 C 
ATOM     22  C   UNL     1      -6.010  11.626  17.817  0.00  0.00    -0.052 C 
ATOM     23  C   UNL     1      -6.023  12.478  18.852  0.00  0.00    +0.023 C 
ATOM     24  C   UNL     1      -5.468  13.840  18.733  0.00  0.00    +0.332 C 
ATOM     25  O   UNL     1      -4.914  14.305  17.752  0.00  0.00    -0.246 OA
ATOM     26  O   UNL     1      -5.703  14.471  19.912  0.00  0.00    -0.458 OA
ATOM     27  H   UNL     1      -4.816  16.210  19.123  0.00  0.00    +0.074 HD
ATOM     28  H   UNL     1      -7.213  16.165  20.991  0.00  0.00    +0.036 HD
ATOM     29  H   UNL     1      -7.286  15.692  18.301  0.00  0.00    +0.060 HD
ATOM     30  H   UNL     1      -9.582  17.322  18.688  0.00  0.00    +0.032 HD
ATOM     31  H   UNL     1      -9.181  16.802  20.295  0.00  0.00    +0.032 HD
ATOM     32  H   UNL     1     -10.698  15.182  19.491  0.00  0.00    +0.063 HD
ATOM     33  H   UNL     1     -10.769  16.844  16.977  0.00  0.00    +0.059 HD
ATOM     34  H   UNL     1     -11.176  15.546  15.788  0.00  0.00    +0.059 HD
ATOM     35  H   UNL     1      -9.954  12.670  18.010  0.00  0.00    +0.063 HD
ATOM     36  H   UNL     1      -8.718  12.792  15.997  0.00  0.00    +0.032 HD
ATOM     37  H   UNL     1      -9.987  13.608  15.106  0.00  0.00    +0.032 HD
ATOM     38  H   UNL     1      -9.581  11.222  14.570  0.00  0.00    +0.060 HD
ATOM     39  H   UNL     1     -11.608  12.312  13.787  0.00  0.00    +0.033 HD
ATOM     40  H   UNL     1     -12.455  12.022  15.312  0.00  0.00    +0.033 HD
ATOM     41  H   UNL     1     -12.902  10.233  13.404  0.00  0.00    +0.057 HD
ATOM     42  H   UNL     1     -11.958   8.202  14.354  0.00  0.00    +0.059 HD
ATOM     43  H   UNL     1     -11.036   8.606  16.646  0.00  0.00    +0.064 HD
ATOM     44  H   UNL     1      -9.467   7.708  14.680  0.00  0.00    +0.032 HD
ATOM     45  H   UNL     1      -8.650   9.261  14.880  0.00  0.00    +0.032 HD
ATOM     46  H   UNL     1      -8.876   8.437  17.535  0.00  0.00    +0.063 HD
ATOM     47  H   UNL     1      -6.676   7.789  15.486  0.00  0.00    +0.066 HD
ATOM     48  H   UNL     1      -6.060   9.970  15.814  0.00  0.00    +0.060 HD
ATOM     49  H   UNL     1      -5.575  11.963  16.877  0.00  0.00    +0.062 HD
ATOM     50  H   UNL     1      -6.442  12.229  19.818  0.00  0.00    +0.069 HD
ENDROOT
BRANCH  21  51
ATOM     51  C   UNL     1      -7.110   9.757  19.141  0.00  0.00    -0.040 C 
ATOM     52  H   UNL     1      -7.508  10.589  19.731  0.00  0.00    +0.028 HD
ATOM     53  H   UNL     1      -6.346   9.245  19.732  0.00  0.00    +0.028 HD
ATOM     54  H   UNL     1      -7.916   9.031  19.015  0.00  0.00    +0.028 HD
ENDBRANCH  21  51
BRANCH   2  55
ATOM     55  C   UNL     1      -6.429  18.124  20.604  0.00  0.00    -0.057 C 
ATOM     56  H   UNL     1      -6.503  18.793  19.741  0.00  0.00    +0.023 HD
ATOM     57  H   UNL     1      -7.177  18.463  21.325  0.00  0.00    +0.023 HD
ATOM     58  H   UNL     1      -5.442  18.257  21.061  0.00  0.00    +0.023 HD
ENDBRANCH   2  55
BRANCH   1  59
ATOM     59  C   UNL     1      -4.323  16.002  21.212  0.00  0.00    +0.020 C 
ATOM     60  H   UNL     1      -4.213  17.073  21.414  0.00  0.00    +0.036 HD
BRANCH  59  61
ATOM     61  C   UNL     1      -4.851  15.380  22.508  0.00  0.00    -0.057 C 
ATOM     62  H   UNL     1      -5.028  16.142  23.273  0.00  0.00    +0.023 HD
ATOM     63  H   UNL     1      -5.807  14.876  22.349  0.00  0.00    +0.023 HD
ATOM     64  H   UNL     1      -4.163  14.630  22.903  0.00  0.00    +0.023 HD
ENDBRANCH  59  61
BRANCH  59  65
ATOM     65  C   UNL     1      -2.898  15.497  20.828  0.00  0.00    +0.064 C 
ATOM     66  H   UNL     1      -2.236  15.755  21.665  0.00  0.00    +0.060 HD
BRANCH  65  67
ATOM     67  C   UNL     1      -2.246  16.021  19.510  0.00  0.00    -0.017 C 
ATOM     68  H   UNL     1      -2.490  15.336  18.696  0.00  0.00    +0.032 HD
BRANCH  67  69
ATOM     69  C   UNL     1      -2.909  17.367  19.163  0.00  0.00    -0.060 C 
ATOM     70  H   UNL     1      -3.997  17.277  19.110  0.00  0.00    +0.023 HD
ATOM     71  H   UNL     1      -2.556  17.753  18.198  0.00  0.00    +0.023 HD
ATOM     72  H   UNL     1      -2.684  18.118  19.930  0.00  0.00    +0.023 HD
ENDBRANCH  67  69
BRANCH  67  73
ATOM     73  C   UNL     1      -0.709  16.229  19.569  0.00  0.00    -0.046 C 
ATOM     74  H   UNL     1      -0.393  16.432  20.594  0.00  0.00    +0.027 HD
ATOM     75  H   UNL     1      -0.410  17.113  18.992  0.00  0.00    +0.027 HD
BRANCH  73  76
ATOM     76  C   UNL     1       0.123  15.027  19.082  0.00  0.00    -0.026 C 
ATOM     77  H   UNL     1      -0.394  14.113  19.405  0.00  0.00    +0.029 HD
ATOM     78  H   UNL     1       0.136  15.013  17.987  0.00  0.00    +0.029 HD
BRANCH  76  83
ATOM     79  C   UNL     1       3.648  13.780  19.272  0.00  0.00    +0.059 C 
ATOM     80  C   UNL     1       3.815  13.671  20.788  0.00  0.00    -0.000 C 
ATOM     81  C   UNL     1       2.472  13.500  21.481  0.00  0.00    +0.063 C 
ATOM     82  C   UNL     1       1.571  14.673  21.109  0.00  0.00    -0.000 C 
ATOM     83  C   UNL     1       1.572  14.958  19.598  0.00  0.00    +0.061 C 
ATOM     84  O   UNL     1       2.276  13.937  18.892  0.00  0.00    -0.373 OA
ATOM     85  H   UNL     1       3.964  12.829  18.823  0.00  0.00    +0.059 HD
ATOM     86  H   UNL     1       4.481  12.831  21.031  0.00  0.00    +0.032 HD
ATOM     87  H   UNL     1       4.331  14.554  21.196  0.00  0.00    +0.032 HD
ATOM     88  H   UNL     1       2.017  12.555  21.157  0.00  0.00    +0.060 HD
ATOM     89  H   UNL     1       0.555  14.485  21.478  0.00  0.00    +0.032 HD
ATOM     90  H   UNL     1       1.888  15.579  21.644  0.00  0.00    +0.032 HD
ATOM     91  H   UNL     1       2.047  15.926  19.404  0.00  0.00    +0.060 HD
BRANCH  79  92
ATOM     92  C   UNL     1       4.533  14.869  18.672  0.00  0.00    -0.039 C 
ATOM     93  H   UNL     1       4.902  15.558  19.438  0.00  0.00    +0.025 HD
ATOM     94  H   UNL     1       5.398  14.428  18.168  0.00  0.00    +0.025 HD
ATOM     95  H   UNL     1       3.970  15.467  17.947  0.00  0.00    +0.025 HD
ENDBRANCH  79  92
BRANCH  81  96
ATOM     96  O   UNL     1       2.709  13.447  22.893  0.00  0.00    -0.380 OA
BRANCH  96  97
ATOM     97  C   UNL     1       3.806  14.254  23.311  0.00  0.00    +0.037 C 
ATOM     98  H   UNL     1       4.533  14.369  22.501  0.00  0.00    +0.052 HD
ATOM     99  H   UNL     1       3.419  15.242  23.573  0.00  0.00    +0.052 HD
ATOM    100  H   UNL     1       4.286  13.828  24.196  0.00  0.00    +0.052 HD
ENDBRANCH  96  97
ENDBRANCH  81  96
ENDBRANCH  76  83
ENDBRANCH  73  76
ENDBRANCH  67  73
ENDBRANCH  65  67
BRANCH  65 101
ATOM    101  O   UNL     1      -2.916  14.061  20.789  0.00  0.00    -0.391 OA
ATOM    102  H   UNL     1      -2.547  13.742  21.630  0.00  0.00    +0.210 HD
ENDBRANCH  65 101
ENDBRANCH  59  65
ENDBRANCH   1  59
BRANCH  19 103
ATOM    103  O   UNL     1      -6.318   7.256  17.402  0.00  0.00    -0.385 OA
ATOM    104  H   UNL     1      -6.711   6.378  17.241  0.00  0.00    +0.210 HD
ENDBRANCH  19 103
BRANCH  18 105
ATOM    105  O   UNL     1      -8.809   6.534  16.675  0.00  0.00    -0.377 OA
BRANCH 105 106
ATOM    106  C   UNL     1      -9.637   6.188  17.781  0.00  0.00    +0.037 C 
ATOM    107  H   UNL     1      -9.612   5.107  17.957  0.00  0.00    +0.052 HD
ATOM    108  H   UNL     1     -10.664   6.477  17.543  0.00  0.00    +0.052 HD
ATOM    109  H   UNL     1      -9.320   6.727  18.680  0.00  0.00    +0.052 HD
ENDBRANCH 105 106
ENDBRANCH  18 105
BRANCH   9 110
ATOM    110  O   UNL     1     -11.797  13.278  17.243  0.00  0.00    -0.377 OA
BRANCH 110 111
ATOM    111  C   UNL     1     -12.311  12.617  18.389  0.00  0.00    +0.037 C 
ATOM    112  H   UNL     1     -12.885  11.748  18.058  0.00  0.00    +0.052 HD
ATOM    113  H   UNL     1     -12.976  13.283  18.947  0.00  0.00    +0.052 HD
ATOM    114  H   UNL     1     -11.501  12.268  19.035  0.00  0.00    +0.052 HD
ENDBRANCH 110 111
ENDBRANCH   9 110
BRANCH   5 115
ATOM    115  O   UNL     1      -8.906  14.141  19.613  0.00  0.00    -0.377 OA
BRANCH 115 116
ATOM    116  C   UNL     1      -9.235  13.899  20.974  0.00  0.00    +0.037 C 
ATOM    117  H   UNL     1      -9.419  14.844  21.495  0.00  0.00    +0.052 HD
ATOM    118  H   UNL     1      -8.442  13.339  21.479  0.00  0.00    +0.052 HD
ATOM    119  H   UNL     1     -10.153  13.306  21.000  0.00  0.00    +0.052 HD
ENDBRANCH 115 116
ENDBRANCH   5 115
BRANCH   3 120
ATOM    120  O   UNL     1      -7.331  17.757  18.089  0.00  0.00    -0.379 OA
BRANCH 120 121
ATOM    121  C   UNL     1      -6.452  17.547  16.991  0.00  0.00    +0.037 C 
ATOM    122  H   UNL     1      -6.991  17.600  16.044  0.00  0.00    +0.052 HD
ATOM    123  H   UNL     1      -5.631  18.269  17.004  0.00  0.00    +0.052 HD
ATOM    124  H   UNL     1      -6.024  16.545  17.085  0.00  0.00    +0.052 HD
ENDBRANCH 120 121
ENDBRANCH   3 120
TORSDOF 23
ENDMDL
MODEL 4
REMARK VINA RESULT:      -6.1      3.600      5.995
REMARK  Name = Lobophorolide_conf2
REMARK  23 active torsions:
REMARK  status: ('A' for Active; 'I' for Inactive)
REMARK    1  A    between atoms: C_1  and  C_2
REMARK    2  A    between atoms: C_4  and  O_53
REMARK    3  A    between atoms: C_6  and  C_8
REMARK    4  A    between atoms: C_8  and  C_9
REMARK    5  A    between atoms: C_9  and  C_10
REMARK    6  A    between atoms: C_10  and  C_11
REMARK    7  A    between atoms: C_10  and  C_12
REMARK    8  A    between atoms: C_12  and  C_13
REMARK    9  A    between atoms: C_12  and  O_52
REMARK   10  A    between atoms: C_13  and  C_14
REMARK   11  A    between atoms: C_13  and  C_15
REMARK   12  A    between atoms: C_16  and  C_51
REMARK   13  A    between atoms: C_17  and  O_49
REMARK   14  A    between atoms: C_19  and  O_47
REMARK   15  A    between atoms: C_23  and  O_45
REMARK   16  A    between atoms: C_32  and  O_43
REMARK   17  A    between atoms: C_33  and  O_42
REMARK   18  A    between atoms: C_35  and  C_41
REMARK   19  A    between atoms: O_43  and  C_44
REMARK   20  A    between atoms: O_45  and  C_46
REMARK   21  A    between atoms: O_47  and  C_48
REMARK   22  A    between atoms: O_49  and  C_50
REMARK   23  A    between atoms: O_53  and  C_54
REMARK                            x       y       z     vdW  Elec       q    Type
REMARK                         _______ _______ _______ _____ _____    ______ ____
ROOT
ATOM      1  C   UNL     1      -5.237  14.976  19.021  0.00  0.00    +0.113 C 
ATOM      2  C   UNL     1      -6.128  14.470  17.847  0.00  0.00    +0.020 C 
ATOM      3  C   UNL     1      -6.674  13.027  18.121  0.00  0.00    +0.067 C 
ATOM      4  C   UNL     1      -8.105  12.843  17.554  0.00  0.00    +0.003 C 
ATOM      5  C   UNL     1      -9.207  12.772  18.641  0.00  0.00    +0.094 C 
ATOM      6  C   UNL     1      -9.287  11.460  19.418  0.00  0.00    +0.145 C 
ATOM      7  C   UNL     1      -9.151  10.142  18.656  0.00  0.00    +0.083 C 
ATOM      8  O   UNL     1      -8.085  10.672  19.452  0.00  0.00    -0.363 OA
ATOM      9  C   UNL     1     -10.152  11.432  20.684  0.00  0.00    +0.094 C 
ATOM     10  C   UNL     1      -9.567  10.513  21.777  0.00  0.00    +0.003 C 
ATOM     11  C   UNL     1     -10.443  10.194  22.999  0.00  0.00    +0.065 C 
ATOM     12  C   UNL     1     -11.470   9.082  22.723  0.00  0.00    -0.008 C 
ATOM     13  C   UNL     1     -12.322   8.857  23.933  0.00  0.00    -0.083 C 
ATOM     14  C   UNL     1     -12.419   9.802  24.875  0.00  0.00    -0.059 C 
ATOM     15  C   UNL     1     -11.742  11.150  24.782  0.00  0.00    +0.080 C 
ATOM     16  O   UNL     1     -11.092  11.367  23.512  0.00  0.00    -0.369 OA
ATOM     17  C   UNL     1     -10.741  11.375  25.926  0.00  0.00    +0.006 C 
ATOM     18  C   UNL     1     -10.562  12.878  26.206  0.00  0.00    +0.090 C 
ATOM     19  C   UNL     1      -9.102  13.229  26.588  0.00  0.00    +0.100 C 
ATOM     20  C   UNL     1      -8.140  13.229  25.429  0.00  0.00    -0.051 C 
ATOM     21  C   UNL     1      -8.121  14.047  24.355  0.00  0.00    -0.052 C 
ATOM     22  C   UNL     1      -7.092  13.849  23.332  0.00  0.00    -0.052 C 
ATOM     23  C   UNL     1      -6.977  14.561  22.202  0.00  0.00    +0.023 C 
ATOM     24  C   UNL     1      -5.907  14.284  21.224  0.00  0.00    +0.332 C 
ATOM     25  O   UNL     1      -5.019  13.458  21.349  0.00  0.00    -0.246 OA
ATOM     26  O   UNL     1      -6.110  15.109  20.165  0.00  0.00    -0.458 OA
ATOM     27  H   UNL     1      -4.450  14.236  19.207  0.00  0.00    +0.074 HD
ATOM     28  H   UNL     1      -6.995  15.142  17.814  0.00  0.00    +0.036 HD
ATOM     29  H   UNL     1      -6.685  12.803  19.192  0.00  0.00    +0.060 HD
ATOM     30  H   UNL     1      -8.150  11.964  16.906  0.00  0.00    +0.032 HD
ATOM     31  H   UNL     1      -8.342  13.690  16.898  0.00  0.00    +0.032 HD
ATOM     32  H   UNL     1     -10.178  12.878  18.140  0.00  0.00    +0.063 HD
ATOM     33  H   UNL     1      -9.039  10.143  17.582  0.00  0.00    +0.059 HD
ATOM     34  H   UNL     1      -9.676   9.269  19.029  0.00  0.00    +0.059 HD
ATOM     35  H   UNL     1     -10.219  12.439  21.117  0.00  0.00    +0.063 HD
ATOM     36  H   UNL     1      -8.646  10.995  22.133  0.00  0.00    +0.032 HD
ATOM     37  H   UNL     1      -9.257   9.552  21.349  0.00  0.00    +0.032 HD
ATOM     38  H   UNL     1      -9.749   9.823  23.764  0.00  0.00    +0.060 HD
ATOM     39  H   UNL     1     -10.946   8.154  22.464  0.00  0.00    +0.033 HD
ATOM     40  H   UNL     1     -12.139   9.330  21.895  0.00  0.00    +0.033 HD
ATOM     41  H   UNL     1     -12.859   7.918  24.023  0.00  0.00    +0.057 HD
ATOM     42  H   UNL     1     -13.041   9.623  25.749  0.00  0.00    +0.059 HD
ATOM     43  H   UNL     1     -12.539  11.901  24.842  0.00  0.00    +0.064 HD
ATOM     44  H   UNL     1     -11.091  10.877  26.839  0.00  0.00    +0.032 HD
ATOM     45  H   UNL     1      -9.779  10.925  25.659  0.00  0.00    +0.032 HD
ATOM     46  H   UNL     1     -10.873  13.471  25.337  0.00  0.00    +0.063 HD
ATOM     47  H   UNL     1      -8.745  12.516  27.342  0.00  0.00    +0.066 HD
ATOM     48  H   UNL     1      -7.384  12.449  25.502  0.00  0.00    +0.060 HD
ATOM     49  H   UNL     1      -6.370  13.055  23.517  0.00  0.00    +0.062 HD
ATOM     50  H   UNL     1      -7.654  15.362  21.935  0.00  0.00    +0.069 HD
ENDROOT
BRANCH  21  51
ATOM     51  C   UNL     1      -9.106  15.170  24.142  0.00  0.00    -0.040 C 
ATOM     52  H   UNL     1     -10.106  14.867  24.470  0.00  0.00    +0.028 HD
ATOM     53  H   UNL     1      -9.157  15.455  23.088  0.00  0.00    +0.028 HD
ATOM     54  H   UNL     1      -8.849  16.085  24.679  0.00  0.00    +0.028 HD
ENDBRANCH  21  51
BRANCH   2  55
ATOM     55  C   UNL     1      -5.424  14.542  16.483  0.00  0.00    -0.057 C 
ATOM     56  H   UNL     1      -5.039  13.560  16.189  0.00  0.00    +0.023 HD
ATOM     57  H   UNL     1      -6.103  14.860  15.689  0.00  0.00    +0.023 HD
ATOM     58  H   UNL     1      -4.585  15.247  16.507  0.00  0.00    +0.023 HD
ENDBRANCH   2  55
BRANCH   1  59
ATOM     59  C   UNL     1      -4.536  16.348  18.777  0.00  0.00    +0.020 C 
ATOM     60  H   UNL     1      -4.347  16.423  17.700  0.00  0.00    +0.036 HD
BRANCH  59  61
ATOM     61  C   UNL     1      -5.431  17.537  19.133  0.00  0.00    -0.057 C 
ATOM     62  H   UNL     1      -5.271  17.861  20.166  0.00  0.00    +0.023 HD
ATOM     63  H   UNL     1      -5.215  18.403  18.503  0.00  0.00    +0.023 HD
ATOM     64  H   UNL     1      -6.487  17.302  18.992  0.00  0.00    +0.023 HD
ENDBRANCH  59  61
BRANCH  59  65
ATOM     65  C   UNL     1      -3.134  16.412  19.457  0.00  0.00    +0.064 C 
ATOM     66  H   UNL     1      -2.673  17.357  19.141  0.00  0.00    +0.060 HD
BRANCH  65  67
ATOM     67  C   UNL     1      -2.116  15.259  19.188  0.00  0.00    -0.017 C 
ATOM     68  H   UNL     1      -2.526  14.325  19.576  0.00  0.00    +0.032 HD
BRANCH  67  69
ATOM     69  C   UNL     1      -1.996  15.086  17.663  0.00  0.00    -0.060 C 
ATOM     70  H   UNL     1      -2.969  14.889  17.204  0.00  0.00    +0.023 HD
ATOM     71  H   UNL     1      -1.328  14.255  17.403  0.00  0.00    +0.023 HD
ATOM     72  H   UNL     1      -1.599  15.997  17.200  0.00  0.00    +0.023 HD
ENDBRANCH  67  69
BRANCH  67  73
ATOM     73  C   UNL     1      -0.695  15.482  19.772  0.00  0.00    -0.046 C 
ATOM     74  H   UNL     1      -0.574  14.921  20.701  0.00  0.00    +0.027 HD
ATOM     75  H   UNL     1      -0.542  16.534  20.045  0.00  0.00    +0.027 HD
BRANCH  73  76
ATOM     76  C   UNL     1       0.458  15.050  18.845  0.00  0.00    -0.026 C 
ATOM     77  H   UNL     1       0.234  14.036  18.488  0.00  0.00    +0.029 HD
ATOM     78  H   UNL     1       0.478  15.699  17.963  0.00  0.00    +0.029 HD
BRANCH  76  83
ATOM     79  C   UNL     1       4.007  13.947  19.305  0.00  0.00    +0.059 C 
ATOM     80  C   UNL     1       4.051  13.810  20.828  0.00  0.00    -0.000 C 
ATOM     81  C   UNL     1       2.664  13.566  21.402  0.00  0.00    +0.063 C 
ATOM     82  C   UNL     1       1.747  14.709  20.979  0.00  0.00    -0.000 C 
ATOM     83  C   UNL     1       1.861  15.030  19.479  0.00  0.00    +0.061 C 
ATOM     84  O   UNL     1       2.665  14.056  18.815  0.00  0.00    -0.373 OA
ATOM     85  H   UNL     1       4.399  13.021  18.866  0.00  0.00    +0.059 HD
ATOM     86  H   UNL     1       4.730  12.992  21.109  0.00  0.00    +0.032 HD
ATOM     87  H   UNL     1       4.492  14.703  21.295  0.00  0.00    +0.032 HD
ATOM     88  H   UNL     1       2.279  12.612  21.021  0.00  0.00    +0.060 HD
ATOM     89  H   UNL     1       0.712  14.471  21.257  0.00  0.00    +0.032 HD
ATOM     90  H   UNL     1       1.978  15.615  21.557  0.00  0.00    +0.032 HD
ATOM     91  H   UNL     1       2.308  16.021  19.345  0.00  0.00    +0.060 HD
BRANCH  79  92
ATOM     92  C   UNL     1       4.890  15.087  18.804  0.00  0.00    -0.039 C 
ATOM     93  H   UNL     1       4.294  15.920  18.418  0.00  0.00    +0.025 HD
ATOM     94  H   UNL     1       5.521  15.467  19.611  0.00  0.00    +0.025 HD
ATOM     95  H   UNL     1       5.531  14.745  17.985  0.00  0.00    +0.025 HD
ENDBRANCH  79  92
BRANCH  81  96
ATOM     96  O   UNL     1       2.785  13.490  22.827  0.00  0.00    -0.380 OA
BRANCH  96  97
ATOM     97  C   UNL     1       3.805  14.333  23.352  0.00  0.00    +0.037 C 
ATOM     98  H   UNL     1       3.482  15.379  23.350  0.00  0.00    +0.052 HD
ATOM     99  H   UNL     1       3.997  14.031  24.385  0.00  0.00    +0.052 HD
ATOM    100  H   UNL     1       4.733  14.220  22.784  0.00  0.00    +0.052 HD
ENDBRANCH  96  97
ENDBRANCH  81  96
ENDBRANCH  76  83
ENDBRANCH  73  76
ENDBRANCH  67  73
ENDBRANCH  65  67
BRANCH  65 101
ATOM    101  O   UNL     1      -3.318  16.537  20.876  0.00  0.00    -0.391 OA
ATOM    102  H   UNL     1      -4.180  16.961  21.022  0.00  0.00    +0.210 HD
ENDBRANCH  65 101
ENDBRANCH  59  65
ENDBRANCH   1  59
BRANCH  19 103
ATOM    103  O   UNL     1      -9.046  14.510  27.219  0.00  0.00    -0.385 OA
ATOM    104  H   UNL     1      -8.129  14.811  27.078  0.00  0.00    +0.210 HD
ENDBRANCH  19 103
BRANCH  18 105
ATOM    105  O   UNL     1     -11.401  13.210  27.342  0.00  0.00    -0.377 OA
BRANCH 105 106
ATOM    106  C   UNL     1     -11.426  12.177  28.323  0.00  0.00    +0.037 C 
ATOM    107  H   UNL     1     -11.964  12.508  29.217  0.00  0.00    +0.052 HD
ATOM    108  H   UNL     1     -10.394  11.948  28.605  0.00  0.00    +0.052 HD
ATOM    109  H   UNL     1     -11.886  11.271  27.915  0.00  0.00    +0.052 HD
ENDBRANCH 105 106
ENDBRANCH  18 105
BRANCH   9 110
ATOM    110  O   UNL     1     -11.452  10.971  20.291  0.00  0.00    -0.377 OA
BRANCH 110 111
ATOM    111  C   UNL     1     -12.419  12.011  20.290  0.00  0.00    +0.037 C 
ATOM    112  H   UNL     1     -13.278  11.683  20.880  0.00  0.00    +0.052 HD
ATOM    113  H   UNL     1     -12.755  12.218  19.270  0.00  0.00    +0.052 HD
ATOM    114  H   UNL     1     -12.015  12.920  20.745  0.00  0.00    +0.052 HD
ENDBRANCH 110 111
ENDBRANCH   9 110
BRANCH   5 115
ATOM    115  O   UNL     1      -9.029  13.857  19.566  0.00  0.00    -0.377 OA
BRANCH 115 116
ATOM    116  C   UNL     1      -9.692  15.049  19.167  0.00  0.00    +0.037 C 
ATOM    117  H   UNL     1     -10.443  15.334  19.910  0.00  0.00    +0.052 HD
ATOM    118  H   UNL     1     -10.159  14.932  18.185  0.00  0.00    +0.052 HD
ATOM    119  H   UNL     1      -8.947  15.846  19.107  0.00  0.00    +0.052 HD
ENDBRANCH 115 116
ENDBRANCH   5 115
BRANCH   3 120
ATOM    120  O   UNL     1      -5.844  12.058  17.446  0.00  0.00    -0.379 OA
BRANCH 120 121
ATOM    121  C   UNL     1      -4.931  11.395  18.311  0.00  0.00    +0.037 C 
ATOM    122  H   UNL     1      -4.682  10.403  17.929  0.00  0.00    +0.052 HD
ATOM    123  H   UNL     1      -4.023  11.988  18.450  0.00  0.00    +0.052 HD
ATOM    124  H   UNL     1      -5.411  11.275  19.286  0.00  0.00    +0.052 HD
ENDBRANCH 120 121
ENDBRANCH   3 120
TORSDOF 23
ENDMDL
MODEL 5
REMARK VINA RESULT:      -5.7      3.756     11.288
REMARK  Name = Lobophorolide_conf2
REMARK  23 active torsions:
REMARK  status: ('A' for Active; 'I' for Inactive)
REMARK    1  A    between atoms: C_1  and  C_2
REMARK    2  A    between atoms: C_4  and  O_53
REMARK    3  A    between atoms: C_6  and  C_8
REMARK    4  A    between atoms: C_8  and  C_9
REMARK    5  A    between atoms: C_9  and  C_10
REMARK    6  A    between atoms: C_10  and  C_11
REMARK    7  A    between atoms: C_10  and  C_12
REMARK    8  A    between atoms: C_12  and  C_13
REMARK    9  A    between atoms: C_12  and  O_52
REMARK   10  A    between atoms: C_13  and  C_14
REMARK   11  A    between atoms: C_13  and  C_15
REMARK   12  A    between atoms: C_16  and  C_51
REMARK   13  A    between atoms: C_17  and  O_49
REMARK   14  A    between atoms: C_19  and  O_47
REMARK   15  A    between atoms: C_23  and  O_45
REMARK   16  A    between atoms: C_32  and  O_43
REMARK   17  A    between atoms: C_33  and  O_42
REMARK   18  A    between atoms: C_35  and  C_41
REMARK   19  A    between atoms: O_43  and  C_44
REMARK   20  A    between atoms: O_45  and  C_46
REMARK   21  A    between atoms: O_47  and  C_48
REMARK   22  A    between atoms: O_49  and  C_50
REMARK   23  A    between atoms: O_53  and  C_54
REMARK                            x       y       z     vdW  Elec       q    Type
REMARK                         _______ _______ _______ _____ _____    ______ ____
ROOT
ATOM      1  C   UNL     1      -8.838   8.705  17.975  0.00  0.00    +0.113 C 
ATOM      2  C   UNL     1     -10.207   9.118  18.595  0.00  0.00    +0.020 C 
ATOM      3  C   UNL     1     -10.031   9.694  20.042  0.00  0.00    +0.067 C 
ATOM      4  C   UNL     1     -11.043  10.833  20.328  0.00  0.00    +0.003 C 
ATOM      5  C   UNL     1     -10.404  12.243  20.381  0.00  0.00    +0.094 C 
ATOM      6  C   UNL     1      -9.606  12.561  21.644  0.00  0.00    +0.145 C 
ATOM      7  C   UNL     1     -10.172  12.139  22.999  0.00  0.00    +0.083 C 
ATOM      8  O   UNL     1      -9.098  11.430  22.371  0.00  0.00    -0.363 OA
ATOM      9  C   UNL     1      -8.720  13.813  21.632  0.00  0.00    +0.094 C 
ATOM     10  C   UNL     1      -7.427  13.627  22.453  0.00  0.00    +0.003 C 
ATOM     11  C   UNL     1      -6.564  14.867  22.734  0.00  0.00    +0.065 C 
ATOM     12  C   UNL     1      -7.093  15.708  23.908  0.00  0.00    -0.008 C 
ATOM     13  C   UNL     1      -6.241  16.924  24.096  0.00  0.00    -0.083 C 
ATOM     14  C   UNL     1      -5.465  17.365  23.099  0.00  0.00    -0.059 C 
ATOM     15  C   UNL     1      -5.419  16.728  21.729  0.00  0.00    +0.080 C 
ATOM     16  O   UNL     1      -6.398  15.680  21.562  0.00  0.00    -0.369 OA
ATOM     17  C   UNL     1      -4.019  16.194  21.386  0.00  0.00    +0.006 C 
ATOM     18  C   UNL     1      -3.809  16.156  19.861  0.00  0.00    +0.090 C 
ATOM     19  C   UNL     1      -2.972  14.930  19.419  0.00  0.00    +0.100 C 
ATOM     20  C   UNL     1      -3.722  13.624  19.447  0.00  0.00    -0.051 C 
ATOM     21  C   UNL     1      -4.781  13.249  18.699  0.00  0.00    -0.052 C 
ATOM     22  C   UNL     1      -5.366  11.923  18.913  0.00  0.00    -0.052 C 
ATOM     23  C   UNL     1      -6.437  11.437  18.269  0.00  0.00    +0.023 C 
ATOM     24  C   UNL     1      -6.958  10.086  18.557  0.00  0.00    +0.332 C 
ATOM     25  O   UNL     1      -6.472   9.281  19.331  0.00  0.00    -0.246 OA
ATOM     26  O   UNL     1      -8.081   9.925  17.811  0.00  0.00    -0.458 OA
ATOM     27  H   UNL     1      -8.335   8.016  18.664  0.00  0.00    +0.074 HD
ATOM     28  H   UNL     1     -10.589   9.933  17.968  0.00  0.00    +0.036 HD
ATOM     29  H   UNL     1      -9.016  10.073  20.197  0.00  0.00    +0.060 HD
ATOM     30  H   UNL     1     -11.598  10.629  21.247  0.00  0.00    +0.032 HD
ATOM     31  H   UNL     1     -11.803  10.844  19.536  0.00  0.00    +0.032 HD
ATOM     32  H   UNL     1     -11.217  12.980  20.353  0.00  0.00    +0.063 HD
ATOM     33  H   UNL     1     -11.137  11.659  23.061  0.00  0.00    +0.059 HD
ATOM     34  H   UNL     1      -9.939  12.742  23.871  0.00  0.00    +0.059 HD
ATOM     35  H   UNL     1      -8.415  14.049  20.605  0.00  0.00    +0.063 HD
ATOM     36  H   UNL     1      -6.810  12.899  21.906  0.00  0.00    +0.032 HD
ATOM     37  H   UNL     1      -7.646  13.166  23.423  0.00  0.00    +0.032 HD
ATOM     38  H   UNL     1      -5.579  14.475  23.023  0.00  0.00    +0.060 HD
ATOM     39  H   UNL     1      -7.084  15.107  24.825  0.00  0.00    +0.033 HD
ATOM     40  H   UNL     1      -8.118  16.051  23.745  0.00  0.00    +0.033 HD
ATOM     41  H   UNL     1      -6.272  17.438  25.051  0.00  0.00    +0.057 HD
ATOM     42  H   UNL     1      -4.850  18.248  23.251  0.00  0.00    +0.059 HD
ATOM     43  H   UNL     1      -5.696  17.511  21.014  0.00  0.00    +0.064 HD
ATOM     44  H   UNL     1      -3.250  16.830  21.841  0.00  0.00    +0.032 HD
ATOM     45  H   UNL     1      -3.901  15.190  21.806  0.00  0.00    +0.032 HD
ATOM     46  H   UNL     1      -4.774  16.158  19.340  0.00  0.00    +0.063 HD
ATOM     47  H   UNL     1      -2.089  14.844  20.066  0.00  0.00    +0.066 HD
ATOM     48  H   UNL     1      -3.333  12.924  20.185  0.00  0.00    +0.060 HD
ATOM     49  H   UNL     1      -4.883  11.295  19.659  0.00  0.00    +0.062 HD
ATOM     50  H   UNL     1      -6.981  11.995  17.519  0.00  0.00    +0.069 HD
ENDROOT
BRANCH  21  51
ATOM     51  C   UNL     1      -5.407  14.122  17.638  0.00  0.00    -0.040 C 
ATOM     52  H   UNL     1      -4.664  14.389  16.879  0.00  0.00    +0.028 HD
ATOM     53  H   UNL     1      -5.808  15.041  18.072  0.00  0.00    +0.028 HD
ATOM     54  H   UNL     1      -6.246  13.652  17.124  0.00  0.00    +0.028 HD
ENDBRANCH  21  51
BRANCH   2  55
ATOM     55  C   UNL     1     -11.243   7.984  18.577  0.00  0.00    -0.057 C 
ATOM     56  H   UNL     1     -12.117   8.263  17.980  0.00  0.00    +0.023 HD
ATOM     57  H   UNL     1     -10.840   7.071  18.131  0.00  0.00    +0.023 HD
ATOM     58  H   UNL     1     -11.580   7.739  19.590  0.00  0.00    +0.023 HD
ENDBRANCH   2  55
BRANCH   1  59
ATOM     59  C   UNL     1      -8.927   7.993  16.590  0.00  0.00    +0.020 C 
ATOM     60  H   UNL     1      -9.912   7.514  16.538  0.00  0.00    +0.036 HD
BRANCH  59  61
ATOM     61  C   UNL     1      -8.873   8.976  15.418  0.00  0.00    -0.057 C 
ATOM     62  H   UNL     1      -8.478   8.500  14.516  0.00  0.00    +0.023 HD
ATOM     63  H   UNL     1      -9.869   9.345  15.161  0.00  0.00    +0.023 HD
ATOM     64  H   UNL     1      -8.266   9.851  15.656  0.00  0.00    +0.023 HD
ENDBRANCH  59  61
BRANCH  59  65
ATOM     65  C   UNL     1      -7.888   6.835  16.465  0.00  0.00    +0.064 C 
ATOM     66  H   UNL     1      -7.231   7.091  15.624  0.00  0.00    +0.060 HD
BRANCH  65  67
ATOM     67  C   UNL     1      -8.409   5.379  16.252  0.00  0.00    -0.017 C 
ATOM     68  H   UNL     1      -7.918   4.718  16.968  0.00  0.00    +0.032 HD
BRANCH  67  69
ATOM     69  C   UNL     1      -9.909   5.363  16.599  0.00  0.00    -0.060 C 
ATOM     70  H   UNL     1     -10.266   6.356  16.883  0.00  0.00    +0.023 HD
ATOM     71  H   UNL     1     -10.124   4.678  17.430  0.00  0.00    +0.023 HD
ATOM     72  H   UNL     1     -10.503   5.042  15.735  0.00  0.00    +0.023 HD
ENDBRANCH  67  69
BRANCH  67  73
ATOM     73  C   UNL     1      -8.228   4.815  14.818  0.00  0.00    -0.046 C 
ATOM     74  H   UNL     1      -8.486   3.754  14.793  0.00  0.00    +0.027 HD
ATOM     75  H   UNL     1      -7.178   4.866  14.505  0.00  0.00    +0.027 HD
BRANCH  73  76
ATOM     76  C   UNL     1      -9.090   5.503  13.741  0.00  0.00    -0.026 C 
ATOM     77  H   UNL     1     -10.125   5.520  14.106  0.00  0.00    +0.029 HD
ATOM     78  H   UNL     1      -8.774   6.546  13.634  0.00  0.00    +0.029 HD
BRANCH  76  83
ATOM     79  C   UNL     1      -8.159   2.972  11.142  0.00  0.00    +0.059 C 
ATOM     80  C   UNL     1      -7.872   3.895   9.957  0.00  0.00    -0.000 C 
ATOM     81  C   UNL     1      -7.489   5.291  10.424  0.00  0.00    +0.063 C 
ATOM     82  C   UNL     1      -8.612   5.846  11.294  0.00  0.00    -0.000 C 
ATOM     83  C   UNL     1      -9.089   4.837  12.352  0.00  0.00    +0.061 C 
ATOM     84  O   UNL     1      -8.237   3.693  12.378  0.00  0.00    -0.373 OA
ATOM     85  H   UNL     1      -7.307   2.290  11.260  0.00  0.00    +0.059 HD
ATOM     86  H   UNL     1      -7.071   3.468   9.337  0.00  0.00    +0.032 HD
ATOM     87  H   UNL     1      -8.738   3.957   9.281  0.00  0.00    +0.032 HD
ATOM     88  H   UNL     1      -6.556   5.236  11.000  0.00  0.00    +0.060 HD
ATOM     89  H   UNL     1      -8.285   6.785  11.759  0.00  0.00    +0.032 HD
ATOM     90  H   UNL     1      -9.467   6.139  10.669  0.00  0.00    +0.032 HD
ATOM     91  H   UNL     1     -10.113   4.520  12.127  0.00  0.00    +0.060 HD
BRANCH  79  92
ATOM     92  C   UNL     1      -9.394   2.105  10.911  0.00  0.00    -0.039 C 
ATOM     93  H   UNL     1     -10.098   2.174  11.745  0.00  0.00    +0.025 HD
ATOM     94  H   UNL     1      -9.916   2.416  10.001  0.00  0.00    +0.025 HD
ATOM     95  H   UNL     1      -9.112   1.052  10.813  0.00  0.00    +0.025 HD
ENDBRANCH  79  92
BRANCH  81  96
ATOM     96  O   UNL     1      -7.276   6.101   9.262  0.00  0.00    -0.380 OA
BRANCH  96  97
ATOM     97  C   UNL     1      -6.055   5.811   8.589  0.00  0.00    +0.037 C 
ATOM     98  H   UNL     1      -6.235   5.617   7.527  0.00  0.00    +0.052 HD
ATOM     99  H   UNL     1      -5.403   6.683   8.677  0.00  0.00    +0.052 HD
ATOM    100  H   UNL     1      -5.550   4.958   9.051  0.00  0.00    +0.052 HD
ENDBRANCH  96  97
ENDBRANCH  81  96
ENDBRANCH  76  83
ENDBRANCH  73  76
ENDBRANCH  67  73
ENDBRANCH  65  67
BRANCH  65 101
ATOM    101  O   UNL     1      -7.041   6.852  17.625  0.00  0.00    -0.391 OA
ATOM    102  H   UNL     1      -7.168   7.709  18.066  0.00  0.00    +0.210 HD
ENDBRANCH  65 101
ENDBRANCH  59  65
ENDBRANCH   1  59
BRANCH  19 103
ATOM    103  O   UNL     1      -2.460  15.126  18.100  0.00  0.00    -0.385 OA
ATOM    104  H   UNL     1      -2.661  14.293  17.634  0.00  0.00    +0.210 HD
ENDBRANCH  19 103
BRANCH  18 105
ATOM    105  O   UNL     1      -3.063  17.347  19.498  0.00  0.00    -0.377 OA
BRANCH 105 106
ATOM    106  C   UNL     1      -3.881  18.339  18.883  0.00  0.00    +0.037 C 
ATOM    107  H   UNL     1      -3.431  19.331  18.993  0.00  0.00    +0.052 HD
ATOM    108  H   UNL     1      -4.852  18.341  19.387  0.00  0.00    +0.052 HD
ATOM    109  H   UNL     1      -4.036  18.105  17.825  0.00  0.00    +0.052 HD
ENDBRANCH 105 106
ENDBRANCH  18 105
BRANCH   9 110
ATOM    110  O   UNL     1      -9.504  14.883  22.177  0.00  0.00    -0.377 OA
BRANCH 110 111
ATOM    111  C   UNL     1      -9.918  15.812  21.186  0.00  0.00    +0.037 C 
ATOM    112  H   UNL     1      -9.059  16.428  20.911  0.00  0.00    +0.052 HD
ATOM    113  H   UNL     1     -10.703  16.463  21.579  0.00  0.00    +0.052 HD
ATOM    114  H   UNL     1     -10.272  15.295  20.290  0.00  0.00    +0.052 HD
ENDBRANCH 110 111
ENDBRANCH   9 110
BRANCH   5 115
ATOM    115  O   UNL     1      -9.559  12.424  19.233  0.00  0.00    -0.377 OA
BRANCH 115 116
ATOM    116  C   UNL     1     -10.237  12.993  18.121  0.00  0.00    +0.037 C 
ATOM    117  H   UNL     1      -9.582  13.693  17.594  0.00  0.00    +0.052 HD
ATOM    118  H   UNL     1     -11.155  13.499  18.435  0.00  0.00    +0.052 HD
ATOM    119  H   UNL     1     -10.501  12.184  17.436  0.00  0.00    +0.052 HD
ENDBRANCH 115 116
ENDBRANCH   5 115
BRANCH   3 120
ATOM    120  O   UNL     1     -10.301   8.660  21.012  0.00  0.00    -0.379 OA
BRANCH 120 121
ATOM    121  C   UNL     1      -9.131   8.164  21.650  0.00  0.00    +0.037 C 
ATOM    122  H   UNL     1      -9.373   7.334  22.317  0.00  0.00    +0.052 HD
ATOM    123  H   UNL     1      -8.385   7.855  20.913  0.00  0.00    +0.052 HD
ATOM    124  H   UNL     1      -8.702   8.971  22.251  0.00  0.00    +0.052 HD
ENDBRANCH 120 121
ENDBRANCH   3 120
TORSDOF 23
ENDMDL
MODEL 6
REMARK VINA RESULT:      -5.6      5.258      9.873
REMARK  Name = Lobophorolide_conf2
REMARK  23 active torsions:
REMARK  status: ('A' for Active; 'I' for Inactive)
REMARK    1  A    between atoms: C_1  and  C_2
REMARK    2  A    between atoms: C_4  and  O_53
REMARK    3  A    between atoms: C_6  and  C_8
REMARK    4  A    between atoms: C_8  and  C_9
REMARK    5  A    between atoms: C_9  and  C_10
REMARK    6  A    between atoms: C_10  and  C_11
REMARK    7  A    between atoms: C_10  and  C_12
REMARK    8  A    between atoms: C_12  and  C_13
REMARK    9  A    between atoms: C_12  and  O_52
REMARK   10  A    between atoms: C_13  and  C_14
REMARK   11  A    between atoms: C_13  and  C_15
REMARK   12  A    between atoms: C_16  and  C_51
REMARK   13  A    between atoms: C_17  and  O_49
REMARK   14  A    between atoms: C_19  and  O_47
REMARK   15  A    between atoms: C_23  and  O_45
REMARK   16  A    between atoms: C_32  and  O_43
REMARK   17  A    between atoms: C_33  and  O_42
REMARK   18  A    between atoms: C_35  and  C_41
REMARK   19  A    between atoms: O_43  and  C_44
REMARK   20  A    between atoms: O_45  and  C_46
REMARK   21  A    between atoms: O_47  and  C_48
REMARK   22  A    between atoms: O_49  and  C_50
REMARK   23  A    between atoms: O_53  and  C_54
REMARK                            x       y       z     vdW  Elec       q    Type
REMARK                         _______ _______ _______ _____ _____    ______ ____
ROOT
ATOM      1  C   UNL     1     -11.115  13.401  24.106  0.00  0.00    +0.113 C 
ATOM      2  C   UNL     1     -10.625  14.754  23.506  0.00  0.00    +0.020 C 
ATOM      3  C   UNL     1      -9.159  14.645  22.964  0.00  0.00    +0.067 C 
ATOM      4  C   UNL     1      -8.956  15.511  21.695  0.00  0.00    +0.003 C 
ATOM      5  C   UNL     1      -8.817  14.689  20.389  0.00  0.00    +0.094 C 
ATOM      6  C   UNL     1      -7.476  13.985  20.189  0.00  0.00    +0.145 C 
ATOM      7  C   UNL     1      -6.190  14.736  20.531  0.00  0.00    +0.083 C 
ATOM      8  O   UNL     1      -6.721  13.715  21.383  0.00  0.00    -0.363 OA
ATOM      9  C   UNL     1      -7.380  12.935  19.075  0.00  0.00    +0.094 C 
ATOM     10  C   UNL     1      -6.439  11.769  19.444  0.00  0.00    +0.003 C 
ATOM     11  C   UNL     1      -6.053  10.773  18.338  0.00  0.00    +0.065 C 
ATOM     12  C   UNL     1      -4.924  11.295  17.434  0.00  0.00    -0.008 C 
ATOM     13  C   UNL     1      -4.633  10.304  16.350  0.00  0.00    -0.083 C 
ATOM     14  C   UNL     1      -5.541   9.378  16.021  0.00  0.00    -0.059 C 
ATOM     15  C   UNL     1      -6.910   9.285  16.655  0.00  0.00    +0.080 C 
ATOM     16  O   UNL     1      -7.189  10.379  17.554  0.00  0.00    -0.369 OA
ATOM     17  C   UNL     1      -7.122   7.946  17.380  0.00  0.00    +0.006 C 
ATOM     18  C   UNL     1      -8.619   7.592  17.443  0.00  0.00    +0.090 C 
ATOM     19  C   UNL     1      -8.997   6.896  18.775  0.00  0.00    +0.100 C 
ATOM     20  C   UNL     1      -9.064   7.819  19.962  0.00  0.00    -0.051 C 
ATOM     21  C   UNL     1      -9.919   8.841  20.182  0.00  0.00    -0.052 C 
ATOM     22  C   UNL     1      -9.786   9.624  21.412  0.00  0.00    -0.052 C 
ATOM     23  C   UNL     1     -10.540  10.682  21.741  0.00  0.00    +0.023 C 
ATOM     24  C   UNL     1     -10.327  11.414  23.005  0.00  0.00    +0.332 C 
ATOM     25  O   UNL     1      -9.522  11.125  23.874  0.00  0.00    -0.246 OA
ATOM     26  O   UNL     1     -11.183  12.468  23.005  0.00  0.00    -0.458 OA
ATOM     27  H   UNL     1     -10.390  13.072  24.861  0.00  0.00    +0.074 HD
ATOM     28  H   UNL     1     -11.274  14.953  22.643  0.00  0.00    +0.036 HD
ATOM     29  H   UNL     1      -8.898  13.607  22.732  0.00  0.00    +0.060 HD
ATOM     30  H   UNL     1      -8.100  16.178  21.820  0.00  0.00    +0.032 HD
ATOM     31  H   UNL     1      -9.818  16.178  21.575  0.00  0.00    +0.032 HD
ATOM     32  H   UNL     1      -8.913  15.384  19.544  0.00  0.00    +0.063 HD
ATOM     33  H   UNL     1      -6.232  15.761  20.870  0.00  0.00    +0.059 HD
ATOM     34  H   UNL     1      -5.290  14.510  19.969  0.00  0.00    +0.059 HD
ATOM     35  H   UNL     1      -8.368  12.499  18.882  0.00  0.00    +0.063 HD
ATOM     36  H   UNL     1      -6.934  11.209  20.250  0.00  0.00    +0.032 HD
ATOM     37  H   UNL     1      -5.503  12.147  19.871  0.00  0.00    +0.032 HD
ATOM     38  H   UNL     1      -5.676   9.887  18.865  0.00  0.00    +0.060 HD
ATOM     39  H   UNL     1      -4.021  11.462  18.032  0.00  0.00    +0.033 HD
ATOM     40  H   UNL     1      -5.182  12.240  16.949  0.00  0.00    +0.033 HD
ATOM     41  H   UNL     1      -3.677  10.358  15.840  0.00  0.00    +0.057 HD
ATOM     42  H   UNL     1      -5.315   8.664  15.234  0.00  0.00    +0.059 HD
ATOM     43  H   UNL     1      -7.636   9.377  15.839  0.00  0.00    +0.064 HD
ATOM     44  H   UNL     1      -6.583   7.145  16.860  0.00  0.00    +0.032 HD
ATOM     45  H   UNL     1      -6.709   8.013  18.392  0.00  0.00    +0.032 HD
ATOM     46  H   UNL     1      -9.233   8.490  17.305  0.00  0.00    +0.063 HD
ATOM     47  H   UNL     1      -8.267   6.102  18.986  0.00  0.00    +0.066 HD
ATOM     48  H   UNL     1      -8.303   7.608  20.711  0.00  0.00    +0.060 HD
ATOM     49  H   UNL     1      -9.006   9.311  22.105  0.00  0.00    +0.062 HD
ATOM     50  H   UNL     1     -11.331  11.066  21.110  0.00  0.00    +0.069 HD
ENDROOT
BRANCH  21  51
ATOM     51  C   UNL     1     -11.022   9.229  19.227  0.00  0.00    -0.040 C 
ATOM     52  H   UNL     1     -10.986  10.304  19.021  0.00  0.00    +0.028 HD
ATOM     53  H   UNL     1     -12.004   8.985  19.640  0.00  0.00    +0.028 HD
ATOM     54  H   UNL     1     -10.972   8.710  18.268  0.00  0.00    +0.028 HD
ENDBRANCH  21  51
BRANCH   2  55
ATOM     55  C   UNL     1     -10.765  15.931  24.483  0.00  0.00    -0.057 C 
ATOM     56  H   UNL     1     -10.490  16.874  24.000  0.00  0.00    +0.023 HD
ATOM     57  H   UNL     1     -11.792  16.050  24.835  0.00  0.00    +0.023 HD
ATOM     58  H   UNL     1     -10.124  15.795  25.362  0.00  0.00    +0.023 HD
ENDBRANCH   2  55
BRANCH   1  59
ATOM     59  C   UNL     1     -12.513  13.450  24.796  0.00  0.00    +0.020 C 
ATOM     60  H   UNL     1     -12.752  14.507  24.962  0.00  0.00    +0.036 HD
BRANCH  59  61
ATOM     61  C   UNL     1     -13.628  12.900  23.903  0.00  0.00    -0.057 C 
ATOM     62  H   UNL     1     -13.996  13.662  23.209  0.00  0.00    +0.023 HD
ATOM     63  H   UNL     1     -13.275  12.069  23.288  0.00  0.00    +0.023 HD
ATOM     64  H   UNL     1     -14.464  12.520  24.493  0.00  0.00    +0.023 HD
ENDBRANCH  59  61
BRANCH  59  65
ATOM     65  C   UNL     1     -12.485  12.797  26.212  0.00  0.00    +0.064 C 
ATOM     66  H   UNL     1     -13.033  13.472  26.882  0.00  0.00    +0.060 HD
BRANCH  65  67
ATOM     67  C   UNL     1     -11.103  12.478  26.864  0.00  0.00    -0.017 C 
ATOM     68  H   UNL     1     -10.322  12.576  26.108  0.00  0.00    +0.032 HD
BRANCH  67  69
ATOM     69  C   UNL     1     -10.825  13.560  27.924  0.00  0.00    -0.060 C 
ATOM     70  H   UNL     1      -9.807  13.487  28.314  0.00  0.00    +0.023 HD
ATOM     71  H   UNL     1     -11.517  13.481  28.773  0.00  0.00    +0.023 HD
ATOM     72  H   UNL     1     -10.934  14.562  27.492  0.00  0.00    +0.023 HD
ENDBRANCH  67  69
BRANCH  67  73
ATOM     73  C   UNL     1     -10.996  11.086  27.542  0.00  0.00    -0.046 C 
ATOM     74  H   UNL     1     -11.746  10.406  27.132  0.00  0.00    +0.027 HD
ATOM     75  H   UNL     1     -11.220  11.152  28.614  0.00  0.00    +0.027 HD
BRANCH  73  76
ATOM     76  C   UNL     1      -9.632  10.390  27.373  0.00  0.00    -0.026 C 
ATOM     77  H   UNL     1      -9.122  10.861  26.522  0.00  0.00    +0.029 HD
ATOM     78  H   UNL     1      -9.014  10.580  28.257  0.00  0.00    +0.029 HD
BRANCH  76  83
ATOM     79  C   UNL     1      -8.253   6.975  26.696  0.00  0.00    +0.059 C 
ATOM     80  C   UNL     1      -9.209   6.510  25.597  0.00  0.00    -0.000 C 
ATOM     81  C   UNL     1      -9.825   7.692  24.864  0.00  0.00    +0.063 C 
ATOM     82  C   UNL     1     -10.540   8.582  25.876  0.00  0.00    -0.000 C 
ATOM     83  C   UNL     1      -9.678   8.872  27.116  0.00  0.00    +0.061 C 
ATOM     84  O   UNL     1      -8.350   8.384  26.932  0.00  0.00    -0.373 OA
ATOM     85  H   UNL     1      -7.225   6.811  26.348  0.00  0.00    +0.059 HD
ATOM     86  H   UNL     1      -8.677   5.858  24.890  0.00  0.00    +0.032 HD
ATOM     87  H   UNL     1     -10.008   5.874  26.008  0.00  0.00    +0.032 HD
ATOM     88  H   UNL     1      -9.031   8.256  24.359  0.00  0.00    +0.060 HD
ATOM     89  H   UNL     1     -10.857   9.512  25.386  0.00  0.00    +0.032 HD
ATOM     90  H   UNL     1     -11.481   8.113  26.197  0.00  0.00    +0.032 HD
ATOM     91  H   UNL     1     -10.120   8.392  27.996  0.00  0.00    +0.060 HD
BRANCH  79  92
ATOM     92  C   UNL     1      -8.419   6.170  27.983  0.00  0.00    -0.039 C 
ATOM     93  H   UNL     1      -9.349   5.594  27.981  0.00  0.00    +0.025 HD
ATOM     94  H   UNL     1      -7.588   5.472  28.109  0.00  0.00    +0.025 HD
ATOM     95  H   UNL     1      -8.455   6.836  28.851  0.00  0.00    +0.025 HD
ENDBRANCH  79  92
BRANCH  81  96
ATOM     96  O   UNL     1     -10.734   7.177  23.884  0.00  0.00    -0.380 OA
BRANCH  96  97
ATOM     97  C   UNL     1     -11.383   5.978  24.293  0.00  0.00    +0.037 C 
ATOM     98  H   UNL     1     -12.424   6.174  24.569  0.00  0.00    +0.052 HD
ATOM     99  H   UNL     1     -11.374   5.282  23.450  0.00  0.00    +0.052 HD
ATOM    100  H   UNL     1     -10.850   5.512  25.126  0.00  0.00    +0.052 HD
ENDBRANCH  96  97
ENDBRANCH  81  96
ENDBRANCH  76  83
ENDBRANCH  73  76
ENDBRANCH  67  73
ENDBRANCH  65  67
BRANCH  65 101
ATOM    101  O   UNL     1     -13.262  11.589  26.175  0.00  0.00    -0.391 OA
ATOM    102  H   UNL     1     -12.694  10.868  26.495  0.00  0.00    +0.210 HD
ENDBRANCH  65 101
ENDBRANCH  59  65
ENDBRANCH   1  59
BRANCH  19 103
ATOM    103  O   UNL     1     -10.255   6.231  18.650  0.00  0.00    -0.385 OA
ATOM    104  H   UNL     1     -10.023   5.297  18.495  0.00  0.00    +0.210 HD
ENDBRANCH  19 103
BRANCH  18 105
ATOM    105  O   UNL     1      -8.887   6.654  16.369  0.00  0.00    -0.377 OA
BRANCH 105 106
ATOM    106  C   UNL     1      -7.821   5.729  16.172  0.00  0.00    +0.037 C 
ATOM    107  H   UNL     1      -7.012   6.191  15.597  0.00  0.00    +0.052 HD
ATOM    108  H   UNL     1      -8.207   4.878  15.606  0.00  0.00    +0.052 HD
ATOM    109  H   UNL     1      -7.445   5.368  17.135  0.00  0.00    +0.052 HD
ENDBRANCH 105 106
ENDBRANCH  18 105
BRANCH   9 110
ATOM    110  O   UNL     1      -6.897  13.612  17.906  0.00  0.00    -0.377 OA
BRANCH 110 111
ATOM    111  C   UNL     1      -7.950  14.060  17.065  0.00  0.00    +0.037 C 
ATOM    112  H   UNL     1      -8.429  13.186  16.618  0.00  0.00    +0.052 HD
ATOM    113  H   UNL     1      -7.555  14.690  16.263  0.00  0.00    +0.052 HD
ATOM    114  H   UNL     1      -8.701  14.609  17.639  0.00  0.00    +0.052 HD
ENDBRANCH 110 111
ENDBRANCH   9 110
BRANCH   5 115
ATOM    115  O   UNL     1      -9.872  13.716  20.326  0.00  0.00    -0.377 OA
BRANCH 115 116
ATOM    116  C   UNL     1     -11.052  14.208  19.706  0.00  0.00    +0.037 C 
ATOM    117  H   UNL     1     -10.798  14.805  18.824  0.00  0.00    +0.052 HD
ATOM    118  H   UNL     1     -11.648  14.804  20.404  0.00  0.00    +0.052 HD
ATOM    119  H   UNL     1     -11.647  13.351  19.382  0.00  0.00    +0.052 HD
ENDBRANCH 115 116
ENDBRANCH   5 115
BRANCH   3 120
ATOM    120  O   UNL     1      -8.238  15.152  23.952  0.00  0.00    -0.379 OA
BRANCH 120 121
ATOM    121  C   UNL     1      -7.574  14.130  24.685  0.00  0.00    +0.037 C 
ATOM    122  H   UNL     1      -6.943  14.558  25.466  0.00  0.00    +0.052 HD
ATOM    123  H   UNL     1      -8.294  13.429  25.117  0.00  0.00    +0.052 HD
ATOM    124  H   UNL     1      -6.934  13.576  23.993  0.00  0.00    +0.052 HD
ENDBRANCH 120 121
ENDBRANCH   3 120
TORSDOF 23
ENDMDL
MODEL 7
REMARK VINA RESULT:      -5.5      4.020     11.508
REMARK  Name = Lobophorolide_conf2
REMARK  23 active torsions:
REMARK  status: ('A' for Active; 'I' for Inactive)
REMARK    1  A    between atoms: C_1  and  C_2
REMARK    2  A    between atoms: C_4  and  O_53
REMARK    3  A    between atoms: C_6  and  C_8
REMARK    4  A    between atoms: C_8  and  C_9
REMARK    5  A    between atoms: C_9  and  C_10
REMARK    6  A    between atoms: C_10  and  C_11
REMARK    7  A    between atoms: C_10  and  C_12
REMARK    8  A    between atoms: C_12  and  C_13
REMARK    9  A    between atoms: C_12  and  O_52
REMARK   10  A    between atoms: C_13  and  C_14
REMARK   11  A    between atoms: C_13  and  C_15
REMARK   12  A    between atoms: C_16  and  C_51
REMARK   13  A    between atoms: C_17  and  O_49
REMARK   14  A    between atoms: C_19  and  O_47
REMARK   15  A    between atoms: C_23  and  O_45
REMARK   16  A    between atoms: C_32  and  O_43
REMARK   17  A    between atoms: C_33  and  O_42
REMARK   18  A    between atoms: C_35  and  C_41
REMARK   19  A    between atoms: O_43  and  C_44
REMARK   20  A    between atoms: O_45  and  C_46
REMARK   21  A    between atoms: O_47  and  C_48
REMARK   22  A    between atoms: O_49  and  C_50
REMARK   23  A    between atoms: O_53  and  C_54
REMARK                            x       y       z     vdW  Elec       q    Type
REMARK                         _______ _______ _______ _____ _____    ______ ____
ROOT
ATOM      1  C   UNL     1      -8.755   8.608  17.842  0.00  0.00    +0.113 C 
ATOM      2  C   UNL     1     -10.116   9.001  18.492  0.00  0.00    +0.020 C 
ATOM      3  C   UNL     1      -9.916   9.590  19.930  0.00  0.00    +0.067 C 
ATOM      4  C   UNL     1     -10.941  10.712  20.233  0.00  0.00    +0.003 C 
ATOM      5  C   UNL     1     -10.327  12.134  20.261  0.00  0.00    +0.094 C 
ATOM      6  C   UNL     1      -9.505  12.476  21.502  0.00  0.00    +0.145 C 
ATOM      7  C   UNL     1     -10.030  12.053  22.874  0.00  0.00    +0.083 C 
ATOM      8  O   UNL     1      -8.959  11.359  22.225  0.00  0.00    -0.363 OA
ATOM      9  C   UNL     1      -8.642  13.743  21.461  0.00  0.00    +0.094 C 
ATOM     10  C   UNL     1      -7.326  13.586  22.251  0.00  0.00    +0.003 C 
ATOM     11  C   UNL     1      -6.480  14.844  22.503  0.00  0.00    +0.065 C 
ATOM     12  C   UNL     1      -6.996  15.684  23.683  0.00  0.00    -0.008 C 
ATOM     13  C   UNL     1      -6.162  16.916  23.843  0.00  0.00    -0.083 C 
ATOM     14  C   UNL     1      -5.419  17.364  22.824  0.00  0.00    -0.059 C 
ATOM     15  C   UNL     1      -5.394  16.718  21.458  0.00  0.00    +0.080 C 
ATOM     16  O   UNL     1      -6.357  15.651  21.322  0.00  0.00    -0.369 OA
ATOM     17  C   UNL     1      -3.993  16.207  21.084  0.00  0.00    +0.006 C 
ATOM     18  C   UNL     1      -3.819  16.162  19.555  0.00  0.00    +0.090 C 
ATOM     19  C   UNL     1      -2.971  14.948  19.101  0.00  0.00    +0.100 C 
ATOM     20  C   UNL     1      -3.696  13.629  19.156  0.00  0.00    -0.051 C 
ATOM     21  C   UNL     1      -4.766  13.229  18.437  0.00  0.00    -0.052 C 
ATOM     22  C   UNL     1      -5.321  11.895  18.673  0.00  0.00    -0.052 C 
ATOM     23  C   UNL     1      -6.398  11.385  18.059  0.00  0.00    +0.023 C 
ATOM     24  C   UNL     1      -6.887  10.027  18.369  0.00  0.00    +0.332 C 
ATOM     25  O   UNL     1      -6.368   9.236  19.136  0.00  0.00    -0.246 OA
ATOM     26  O   UNL     1      -8.025   9.840  17.651  0.00  0.00    -0.458 OA
ATOM     27  H   UNL     1      -8.224   7.933  18.523  0.00  0.00    +0.074 HD
ATOM     28  H   UNL     1     -10.528   9.804  17.869  0.00  0.00    +0.036 HD
ATOM     29  H   UNL     1      -8.905   9.988  20.059  0.00  0.00    +0.060 HD
ATOM     30  H   UNL     1     -11.470  10.505  21.167  0.00  0.00    +0.032 HD
ATOM     31  H   UNL     1     -11.720  10.703  19.460  0.00  0.00    +0.032 HD
ATOM     32  H   UNL     1     -11.154  12.856  20.248  0.00  0.00    +0.063 HD
ATOM     33  H   UNL     1     -10.984  11.555  22.962  0.00  0.00    +0.059 HD
ATOM     34  H   UNL     1      -9.787  12.666  23.736  0.00  0.00    +0.059 HD
ATOM     35  H   UNL     1      -8.366  13.977  20.424  0.00  0.00    +0.063 HD
ATOM     36  H   UNL     1      -6.710  12.866  21.695  0.00  0.00    +0.032 HD
ATOM     37  H   UNL     1      -7.514  13.128  23.229  0.00  0.00    +0.032 HD
ATOM     38  H   UNL     1      -5.482  14.472  22.770  0.00  0.00    +0.060 HD
ATOM     39  H   UNL     1      -6.954  15.090  24.604  0.00  0.00    +0.033 HD
ATOM     40  H   UNL     1      -8.031  16.007  23.543  0.00  0.00    +0.033 HD
ATOM     41  H   UNL     1      -6.179  17.436  24.794  0.00  0.00    +0.057 HD
ATOM     42  H   UNL     1      -4.816  18.259  22.955  0.00  0.00    +0.059 HD
ATOM     43  H   UNL     1      -5.703  17.491  20.744  0.00  0.00    +0.064 HD
ATOM     44  H   UNL     1      -3.225  16.860  21.517  0.00  0.00    +0.032 HD
ATOM     45  H   UNL     1      -3.847  15.208  21.508  0.00  0.00    +0.032 HD
ATOM     46  H   UNL     1      -4.796  16.142  19.057  0.00  0.00    +0.063 HD
ATOM     47  H   UNL     1      -2.071  14.883  19.727  0.00  0.00    +0.066 HD
ATOM     48  H   UNL     1      -3.276  12.942  19.889  0.00  0.00    +0.060 HD
ATOM     49  H   UNL     1      -4.809  11.281  19.412  0.00  0.00    +0.062 HD
ATOM     50  H   UNL     1      -6.970  11.928  17.319  0.00  0.00    +0.069 HD
ENDROOT
BRANCH  21  51
ATOM     51  C   UNL     1      -5.433  14.083  17.386  0.00  0.00    -0.040 C 
ATOM     52  H   UNL     1      -5.336  15.144  17.640  0.00  0.00    +0.028 HD
ATOM     53  H   UNL     1      -6.495  13.841  17.298  0.00  0.00    +0.028 HD
ATOM     54  H   UNL     1      -5.019  13.948  16.385  0.00  0.00    +0.028 HD
ENDBRANCH  21  51
BRANCH   2  55
ATOM     55  C   UNL     1     -11.131   7.847  18.506  0.00  0.00    -0.057 C 
ATOM     56  H   UNL     1     -11.637   7.784  19.475  0.00  0.00    +0.023 HD
ATOM     57  H   UNL     1     -11.912   7.983  17.755  0.00  0.00    +0.023 HD
ATOM     58  H   UNL     1     -10.642   6.886  18.309  0.00  0.00    +0.023 HD
ENDBRANCH   2  55
BRANCH   1  59
ATOM     59  C   UNL     1      -8.864   7.884  16.464  0.00  0.00    +0.020 C 
ATOM     60  H   UNL     1      -9.816   7.340  16.463  0.00  0.00    +0.036 HD
BRANCH  59  61
ATOM     61  C   UNL     1      -8.935   8.863  15.290  0.00  0.00    -0.057 C 
ATOM     62  H   UNL     1      -8.367   8.496  14.429  0.00  0.00    +0.023 HD
ATOM     63  H   UNL     1      -9.963   8.999  14.944  0.00  0.00    +0.023 HD
ATOM     64  H   UNL     1      -8.564   9.851  15.567  0.00  0.00    +0.023 HD
ENDBRANCH  59  61
BRANCH  59  65
ATOM     65  C   UNL     1      -7.758   6.798  16.290  0.00  0.00    +0.064 C 
ATOM     66  H   UNL     1      -7.132   7.119  15.446  0.00  0.00    +0.060 HD
BRANCH  65  67
ATOM     67  C   UNL     1      -8.190   5.319  16.042  0.00  0.00    -0.017 C 
ATOM     68  H   UNL     1      -7.391   4.655  16.375  0.00  0.00    +0.032 HD
BRANCH  67  69
ATOM     69  C   UNL     1      -9.404   5.029  16.944  0.00  0.00    -0.060 C 
ATOM     70  H   UNL     1      -9.387   5.641  17.849  0.00  0.00    +0.023 HD
ATOM     71  H   UNL     1      -9.436   3.976  17.251  0.00  0.00    +0.023 HD
ATOM     72  H   UNL     1     -10.340   5.255  16.417  0.00  0.00    +0.023 HD
ENDBRANCH  67  69
BRANCH  67  73
ATOM     73  C   UNL     1      -8.570   4.977  14.577  0.00  0.00    -0.046 C 
ATOM     74  H   UNL     1      -7.746   5.223  13.904  0.00  0.00    +0.027 HD
ATOM     75  H   UNL     1      -9.416   5.589  14.237  0.00  0.00    +0.027 HD
BRANCH  73  76
ATOM     76  C   UNL     1      -8.913   3.495  14.329  0.00  0.00    -0.026 C 
ATOM     77  H   UNL     1      -9.125   3.037  15.304  0.00  0.00    +0.029 HD
ATOM     78  H   UNL     1      -9.834   3.428  13.741  0.00  0.00    +0.029 HD
BRANCH  76  83
ATOM     79  C   UNL     1      -7.437   1.248  11.723  0.00  0.00    +0.059 C 
ATOM     80  C   UNL     1      -6.692   0.254  12.614  0.00  0.00    -0.000 C 
ATOM     81  C   UNL     1      -7.304   0.192  14.005  0.00  0.00    +0.063 C 
ATOM     82  C   UNL     1      -7.292   1.591  14.613  0.00  0.00    -0.000 C 
ATOM     83  C   UNL     1      -7.821   2.658  13.639  0.00  0.00    +0.061 C 
ATOM     84  O   UNL     1      -8.362   2.049  12.468  0.00  0.00    -0.373 OA
ATOM     85  H   UNL     1      -8.054   0.679  11.016  0.00  0.00    +0.059 HD
ATOM     86  H   UNL     1      -6.699  -0.742  12.150  0.00  0.00    +0.032 HD
ATOM     87  H   UNL     1      -5.624   0.511  12.692  0.00  0.00    +0.032 HD
ATOM     88  H   UNL     1      -8.333  -0.180  13.930  0.00  0.00    +0.060 HD
ATOM     89  H   UNL     1      -7.865   1.589  15.549  0.00  0.00    +0.032 HD
ATOM     90  H   UNL     1      -6.274   1.862  14.922  0.00  0.00    +0.032 HD
ATOM     91  H   UNL     1      -7.007   3.333  13.352  0.00  0.00    +0.060 HD
BRANCH  79  92
ATOM     92  C   UNL     1      -6.484   2.104  10.893  0.00  0.00    -0.039 C 
ATOM     93  H   UNL     1      -6.095   2.949  11.469  0.00  0.00    +0.025 HD
ATOM     94  H   UNL     1      -5.634   1.509  10.548  0.00  0.00    +0.025 HD
ATOM     95  H   UNL     1      -7.000   2.520  10.021  0.00  0.00    +0.025 HD
ENDBRANCH  79  92
BRANCH  81  96
ATOM     96  O   UNL     1      -6.529  -0.725  14.787  0.00  0.00    -0.380 OA
BRANCH  96  97
ATOM     97  C   UNL     1      -5.269  -1.039  14.202  0.00  0.00    +0.037 C 
ATOM     98  H   UNL     1      -5.262  -0.786  13.137  0.00  0.00    +0.052 HD
ATOM     99  H   UNL     1      -4.504  -0.442  14.705  0.00  0.00    +0.052 HD
ATOM    100  H   UNL     1      -5.027  -2.096  14.344  0.00  0.00    +0.052 HD
ENDBRANCH  96  97
ENDBRANCH  81  96
ENDBRANCH  76  83
ENDBRANCH  73  76
ENDBRANCH  67  73
ENDBRANCH  65  67
BRANCH  65 101
ATOM    101  O   UNL     1      -6.894   6.836  17.437  0.00  0.00    -0.391 OA
ATOM    102  H   UNL     1      -5.983   6.717  17.119  0.00  0.00    +0.210 HD
ENDBRANCH  65 101
ENDBRANCH  59  65
ENDBRANCH   1  59
BRANCH  19 103
ATOM    103  O   UNL     1      -2.494  15.144  17.769  0.00  0.00    -0.385 OA
ATOM    104  H   UNL     1      -2.625  16.096  17.601  0.00  0.00    +0.210 HD
ENDBRANCH  19 103
BRANCH  18 105
ATOM    105  O   UNL     1      -3.104  17.364  19.166  0.00  0.00    -0.377 OA
BRANCH 105 106
ATOM    106  C   UNL     1      -3.975  18.392  18.702  0.00  0.00    +0.037 C 
ATOM    107  H   UNL     1      -3.462  19.031  17.975  0.00  0.00    +0.052 HD
ATOM    108  H   UNL     1      -4.266  19.006  19.558  0.00  0.00    +0.052 HD
ATOM    109  H   UNL     1      -4.877  17.959  18.258  0.00  0.00    +0.052 HD
ENDBRANCH 105 106
ENDBRANCH  18 105
BRANCH   9 110
ATOM    110  O   UNL     1      -9.432  14.803  22.017  0.00  0.00    -0.377 OA
BRANCH 110 111
ATOM    111  C   UNL     1      -9.883  15.719  21.031  0.00  0.00    +0.037 C 
ATOM    112  H   UNL     1      -9.534  15.374  20.055  0.00  0.00    +0.052 HD
ATOM    113  H   UNL     1      -9.470  16.714  21.218  0.00  0.00    +0.052 HD
ATOM    114  H   UNL     1     -10.976  15.764  21.010  0.00  0.00    +0.052 HD
ENDBRANCH 110 111
ENDBRANCH   9 110
BRANCH   5 115
ATOM    115  O   UNL     1      -9.513  12.322  19.092  0.00  0.00    -0.377 OA
BRANCH 115 116
ATOM    116  C   UNL     1     -10.193  12.987  18.036  0.00  0.00    +0.037 C 
ATOM    117  H   UNL     1     -10.859  12.293  17.515  0.00  0.00    +0.052 HD
ATOM    118  H   UNL     1      -9.486  13.433  17.330  0.00  0.00    +0.052 HD
ATOM    119  H   UNL     1     -10.800  13.784  18.474  0.00  0.00    +0.052 HD
ENDBRANCH 115 116
ENDBRANCH   5 115
BRANCH   3 120
ATOM    120  O   UNL     1     -10.143   8.558  20.913  0.00  0.00    -0.379 OA
BRANCH 120 121
ATOM    121  C   UNL     1      -8.946   8.055  21.494  0.00  0.00    +0.037 C 
ATOM    122  H   UNL     1      -8.717   8.575  22.426  0.00  0.00    +0.052 HD
ATOM    123  H   UNL     1      -9.017   6.978  21.665  0.00  0.00    +0.052 HD
ATOM    124  H   UNL     1      -8.126   8.235  20.793  0.00  0.00    +0.052 HD
ENDBRANCH 120 121
ENDBRANCH   3 120
TORSDOF 23
ENDMDL
MODEL 8
REMARK VINA RESULT:      -5.5      3.909     11.473
REMARK  Name = Lobophorolide_conf2
REMARK  23 active torsions:
REMARK  status: ('A' for Active; 'I' for Inactive)
REMARK    1  A    between atoms: C_1  and  C_2
REMARK    2  A    between atoms: C_4  and  O_53
REMARK    3  A    between atoms: C_6  and  C_8
REMARK    4  A    between atoms: C_8  and  C_9
REMARK    5  A    between atoms: C_9  and  C_10
REMARK    6  A    between atoms: C_10  and  C_11
REMARK    7  A    between atoms: C_10  and  C_12
REMARK    8  A    between atoms: C_12  and  C_13
REMARK    9  A    between atoms: C_12  and  O_52
REMARK   10  A    between atoms: C_13  and  C_14
REMARK   11  A    between atoms: C_13  and  C_15
REMARK   12  A    between atoms: C_16  and  C_51
REMARK   13  A    between atoms: C_17  and  O_49
REMARK   14  A    between atoms: C_19  and  O_47
REMARK   15  A    between atoms: C_23  and  O_45
REMARK   16  A    between atoms: C_32  and  O_43
REMARK   17  A    between atoms: C_33  and  O_42
REMARK   18  A    between atoms: C_35  and  C_41
REMARK   19  A    between atoms: O_43  and  C_44
REMARK   20  A    between atoms: O_45  and  C_46
REMARK   21  A    between atoms: O_47  and  C_48
REMARK   22  A    between atoms: O_49  and  C_50
REMARK   23  A    between atoms: O_53  and  C_54
REMARK                            x       y       z     vdW  Elec       q    Type
REMARK                         _______ _______ _______ _____ _____    ______ ____
ROOT
ATOM      1  C   UNL     1      -8.775   8.755  17.747  0.00  0.00    +0.113 C 
ATOM      2  C   UNL     1     -10.153   9.151  18.358  0.00  0.00    +0.020 C 
ATOM      3  C   UNL     1      -9.998   9.693  19.820  0.00  0.00    +0.067 C 
ATOM      4  C   UNL     1     -11.016  10.823  20.118  0.00  0.00    +0.003 C 
ATOM      5  C   UNL     1     -10.381  12.233  20.213  0.00  0.00    +0.094 C 
ATOM      6  C   UNL     1      -9.602  12.523  21.494  0.00  0.00    +0.145 C 
ATOM      7  C   UNL     1     -10.184  12.068  22.831  0.00  0.00    +0.083 C 
ATOM      8  O   UNL     1      -9.101  11.376  22.202  0.00  0.00    -0.363 OA
ATOM      9  C   UNL     1      -8.718  13.776  21.523  0.00  0.00    +0.094 C 
ATOM     10  C   UNL     1      -7.436  13.574  22.357  0.00  0.00    +0.003 C 
ATOM     11  C   UNL     1      -6.579  14.809  22.679  0.00  0.00    +0.065 C 
ATOM     12  C   UNL     1      -7.127  15.621  23.864  0.00  0.00    -0.008 C 
ATOM     13  C   UNL     1      -6.280  16.835  24.092  0.00  0.00    -0.083 C 
ATOM     14  C   UNL     1      -5.492  17.300  23.116  0.00  0.00    -0.059 C 
ATOM     15  C   UNL     1      -5.426  16.695  21.733  0.00  0.00    +0.080 C 
ATOM     16  O   UNL     1      -6.399  15.649  21.528  0.00  0.00    -0.369 OA
ATOM     17  C   UNL     1      -4.020  16.172  21.396  0.00  0.00    +0.006 C 
ATOM     18  C   UNL     1      -3.789  16.170  19.874  0.00  0.00    +0.090 C 
ATOM     19  C   UNL     1      -2.944  14.956  19.415  0.00  0.00    +0.100 C 
ATOM     20  C   UNL     1      -3.690  13.648  19.402  0.00  0.00    -0.051 C 
ATOM     21  C   UNL     1      -4.739  13.289  18.632  0.00  0.00    -0.052 C 
ATOM     22  C   UNL     1      -5.323  11.957  18.806  0.00  0.00    -0.052 C 
ATOM     23  C   UNL     1      -6.384  11.484  18.137  0.00  0.00    +0.023 C 
ATOM     24  C   UNL     1      -6.906  10.126  18.387  0.00  0.00    +0.332 C 
ATOM     25  O   UNL     1      -6.428   9.303  19.148  0.00  0.00    -0.246 OA
ATOM     26  O   UNL     1      -8.018   9.980  17.622  0.00  0.00    -0.458 OA
ATOM     27  H   UNL     1      -8.280   8.051  18.427  0.00  0.00    +0.074 HD
ATOM     28  H   UNL     1     -10.528   9.980  17.745  0.00  0.00    +0.036 HD
ATOM     29  H   UNL     1      -8.986  10.071  19.998  0.00  0.00    +0.060 HD
ATOM     30  H   UNL     1     -11.583  10.597  21.025  0.00  0.00    +0.032 HD
ATOM     31  H   UNL     1     -11.765  10.851  19.317  0.00  0.00    +0.032 HD
ATOM     32  H   UNL     1     -11.196  12.969  20.191  0.00  0.00    +0.063 HD
ATOM     33  H   UNL     1     -11.150  11.585  22.869  0.00  0.00    +0.059 HD
ATOM     34  H   UNL     1      -9.965  12.651  23.720  0.00  0.00    +0.059 HD
ATOM     35  H   UNL     1      -8.400  14.037  20.506  0.00  0.00    +0.063 HD
ATOM     36  H   UNL     1      -6.810  12.860  21.802  0.00  0.00    +0.032 HD
ATOM     37  H   UNL     1      -7.667  13.090  23.313  0.00  0.00    +0.032 HD
ATOM     38  H   UNL     1      -5.598  14.413  22.971  0.00  0.00    +0.060 HD
ATOM     39  H   UNL     1      -7.129  14.999  24.767  0.00  0.00    +0.033 HD
ATOM     40  H   UNL     1      -8.150  15.966  23.695  0.00  0.00    +0.033 HD
ATOM     41  H   UNL     1      -6.325  17.326  25.058  0.00  0.00    +0.057 HD
ATOM     42  H   UNL     1      -4.881  18.181  23.297  0.00  0.00    +0.059 HD
ATOM     43  H   UNL     1      -5.695  17.494  21.032  0.00  0.00    +0.064 HD
ATOM     44  H   UNL     1      -3.258  16.799  21.877  0.00  0.00    +0.032 HD
ATOM     45  H   UNL     1      -3.906  15.159  21.794  0.00  0.00    +0.032 HD
ATOM     46  H   UNL     1      -4.747  16.182  19.340  0.00  0.00    +0.063 HD
ATOM     47  H   UNL     1      -2.069  14.857  20.072  0.00  0.00    +0.066 HD
ATOM     48  H   UNL     1      -3.310  12.932  20.129  0.00  0.00    +0.060 HD
ATOM     49  H   UNL     1      -4.849  11.312  19.545  0.00  0.00    +0.062 HD
ATOM     50  H   UNL     1      -6.919  12.058  17.393  0.00  0.00    +0.069 HD
ENDROOT
BRANCH  21  51
ATOM     51  C   UNL     1      -5.352  14.185  17.583  0.00  0.00    -0.040 C 
ATOM     52  H   UNL     1      -5.986  14.943  18.055  0.00  0.00    +0.028 HD
ATOM     53  H   UNL     1      -5.960  13.610  16.880  0.00  0.00    +0.028 HD
ATOM     54  H   UNL     1      -4.616  14.709  16.971  0.00  0.00    +0.028 HD
ENDBRANCH  21  51
BRANCH   2  55
ATOM     55  C   UNL     1     -11.186   8.015  18.299  0.00  0.00    -0.057 C 
ATOM     56  H   UNL     1     -10.796   7.107  18.770  0.00  0.00    +0.023 HD
ATOM     57  H   UNL     1     -12.105   8.271  18.831  0.00  0.00    +0.023 HD
ATOM     58  H   UNL     1     -11.455   7.778  17.263  0.00  0.00    +0.023 HD
ENDBRANCH   2  55
BRANCH   1  59
ATOM     59  C   UNL     1      -8.843   8.075  16.345  0.00  0.00    +0.020 C 
ATOM     60  H   UNL     1      -9.853   7.662  16.238  0.00  0.00    +0.036 HD
BRANCH  59  61
ATOM     61  C   UNL     1      -8.672   9.073  15.198  0.00  0.00    -0.057 C 
ATOM     62  H   UNL     1      -9.411   8.905  14.408  0.00  0.00    +0.023 HD
ATOM     63  H   UNL     1      -8.815  10.102  15.538  0.00  0.00    +0.023 HD
ATOM     64  H   UNL     1      -7.670   9.023  14.767  0.00  0.00    +0.023 HD
ENDBRANCH  59  61
BRANCH  59  65
ATOM     65  C   UNL     1      -7.876   6.855  16.244  0.00  0.00    +0.064 C 
ATOM     66  H   UNL     1      -7.152   7.092  15.454  0.00  0.00    +0.060 HD
BRANCH  65  67
ATOM     67  C   UNL     1      -8.475   5.444  15.949  0.00  0.00    -0.017 C 
ATOM     68  H   UNL     1      -7.662   4.719  15.888  0.00  0.00    +0.032 HD
BRANCH  67  69
ATOM     69  C   UNL     1      -9.334   5.038  17.160  0.00  0.00    -0.060 C 
ATOM     70  H   UNL     1      -9.067   5.611  18.052  0.00  0.00    +0.023 HD
ATOM     71  H   UNL     1      -9.217   3.973  17.398  0.00  0.00    +0.023 HD
ATOM     72  H   UNL     1     -10.396   5.225  16.962  0.00  0.00    +0.023 HD
ENDBRANCH  67  69
BRANCH  67  73
ATOM     73  C   UNL     1      -9.350   5.351  14.670  0.00  0.00    -0.046 C 
ATOM     74  H   UNL     1      -9.857   6.300  14.488  0.00  0.00    +0.027 HD
ATOM     75  H   UNL     1     -10.152   4.612  14.796  0.00  0.00    +0.027 HD
BRANCH  73  76
ATOM     76  C   UNL     1      -8.575   5.011  13.383  0.00  0.00    -0.026 C 
ATOM     77  H   UNL     1      -8.939   5.680  12.591  0.00  0.00    +0.029 HD
ATOM     78  H   UNL     1      -7.513   5.239  13.526  0.00  0.00    +0.029 HD
BRANCH  76  83
ATOM     79  C   UNL     1      -8.133   1.293  13.449  0.00  0.00    +0.059 C 
ATOM     80  C   UNL     1      -7.709   1.046  12.001  0.00  0.00    -0.000 C 
ATOM     81  C   UNL     1      -7.084   2.290  11.388  0.00  0.00    +0.063 C 
ATOM     82  C   UNL     1      -8.083   3.440  11.480  0.00  0.00    -0.000 C 
ATOM     83  C   UNL     1      -8.710   3.563  12.878  0.00  0.00    +0.061 C 
ATOM     84  O   UNL     1      -8.068   2.681  13.798  0.00  0.00    -0.373 OA
ATOM     85  H   UNL     1      -7.410   0.796  14.108  0.00  0.00    +0.059 HD
ATOM     86  H   UNL     1      -7.004   0.203  11.957  0.00  0.00    +0.032 HD
ATOM     87  H   UNL     1      -8.562   0.720  11.386  0.00  0.00    +0.032 HD
ATOM     88  H   UNL     1      -6.167   2.540  11.935  0.00  0.00    +0.060 HD
ATOM     89  H   UNL     1      -7.592   4.375  11.181  0.00  0.00    +0.032 HD
ATOM     90  H   UNL     1      -8.883   3.308  10.739  0.00  0.00    +0.032 HD
ATOM     91  H   UNL     1      -9.777   3.319  12.829  0.00  0.00    +0.060 HD
BRANCH  79  92
ATOM     92  C   UNL     1      -9.503   0.694  13.758  0.00  0.00    -0.039 C 
ATOM     93  H   UNL     1     -10.312   1.386  13.511  0.00  0.00    +0.025 HD
ATOM     94  H   UNL     1      -9.657  -0.226  13.187  0.00  0.00    +0.025 HD
ATOM     95  H   UNL     1      -9.591   0.465  14.825  0.00  0.00    +0.025 HD
ENDBRANCH  79  92
BRANCH  81  96
ATOM     96  O   UNL     1      -6.753   1.990  10.027  0.00  0.00    -0.380 OA
BRANCH  96  97
ATOM     97  C   UNL     1      -5.383   1.648   9.842  0.00  0.00    +0.037 C 
ATOM     98  H   UNL     1      -5.213   1.260   8.833  0.00  0.00    +0.052 HD
ATOM     99  H   UNL     1      -4.786   2.554   9.971  0.00  0.00    +0.052 HD
ATOM    100  H   UNL     1      -5.062   0.917  10.590  0.00  0.00    +0.052 HD
ENDBRANCH  96  97
ENDBRANCH  81  96
ENDBRANCH  76  83
ENDBRANCH  73  76
ENDBRANCH  67  73
ENDBRANCH  65  67
BRANCH  65 101
ATOM    101  O   UNL     1      -7.105   6.780  17.453  0.00  0.00    -0.391 OA
ATOM    102  H   UNL     1      -7.018   5.841  17.686  0.00  0.00    +0.210 HD
ENDBRANCH  65 101
ENDBRANCH  59  65
ENDBRANCH   1  59
BRANCH  19 103
ATOM    103  O   UNL     1      -2.414  15.184  18.108  0.00  0.00    -0.385 OA
ATOM    104  H   UNL     1      -1.647  15.768  18.255  0.00  0.00    +0.210 HD
ENDBRANCH  19 103
BRANCH  18 105
ATOM    105  O   UNL     1      -3.041  17.371  19.549  0.00  0.00    -0.377 OA
BRANCH 105 106
ATOM    106  C   UNL     1      -3.849  18.367  18.929  0.00  0.00    +0.037 C 
ATOM    107  H   UNL     1      -3.671  18.389  17.848  0.00  0.00    +0.052 HD
ATOM    108  H   UNL     1      -3.572  19.339  19.345  0.00  0.00    +0.052 HD
ATOM    109  H   UNL     1      -4.908  18.186  19.136  0.00  0.00    +0.052 HD
ENDBRANCH 105 106
ENDBRANCH  18 105
BRANCH   9 110
ATOM    110  O   UNL     1      -9.512  14.832  22.082  0.00  0.00    -0.377 OA
BRANCH 110 111
ATOM    111  C   UNL     1      -9.913  15.784  21.108  0.00  0.00    +0.037 C 
ATOM    112  H   UNL     1      -9.384  16.720  21.303  0.00  0.00    +0.052 HD
ATOM    113  H   UNL     1     -10.988  15.970  21.177  0.00  0.00    +0.052 HD
ATOM    114  H   UNL     1      -9.653  15.445  20.101  0.00  0.00    +0.052 HD
ENDBRANCH 110 111
ENDBRANCH   9 110
BRANCH   5 115
ATOM    115  O   UNL     1      -9.521  12.442  19.082  0.00  0.00    -0.377 OA
BRANCH 115 116
ATOM    116  C   UNL     1     -10.197  12.989  17.957  0.00  0.00    +0.037 C 
ATOM    117  H   UNL     1     -10.816  13.838  18.262  0.00  0.00    +0.052 HD
ATOM    118  H   UNL     1     -10.812  12.234  17.459  0.00  0.00    +0.052 HD
ATOM    119  H   UNL     1      -9.443  13.348  17.251  0.00  0.00    +0.052 HD
ENDBRANCH 115 116
ENDBRANCH   5 115
BRANCH   3 120
ATOM    120  O   UNL     1     -10.279   8.636  20.762  0.00  0.00    -0.379 OA
BRANCH 120 121
ATOM    121  C   UNL     1      -9.114   8.115  21.391  0.00  0.00    +0.037 C 
ATOM    122  H   UNL     1      -8.717   7.266  20.832  0.00  0.00    +0.052 HD
ATOM    123  H   UNL     1      -8.351   8.890  21.502  0.00  0.00    +0.052 HD
ATOM    124  H   UNL     1      -9.393   7.767  22.389  0.00  0.00    +0.052 HD
ENDBRANCH 120 121
ENDBRANCH   3 120
TORSDOF 23
ENDMDL
MODEL 9
REMARK VINA RESULT:      -5.4      7.031     12.784
REMARK  Name = Lobophorolide_conf2
REMARK  23 active torsions:
REMARK  status: ('A' for Active; 'I' for Inactive)
REMARK    1  A    between atoms: C_1  and  C_2
REMARK    2  A    between atoms: C_4  and  O_53
REMARK    3  A    between atoms: C_6  and  C_8
REMARK    4  A    between atoms: C_8  and  C_9
REMARK    5  A    between atoms: C_9  and  C_10
REMARK    6  A    between atoms: C_10  and  C_11
REMARK    7  A    between atoms: C_10  and  C_12
REMARK    8  A    between atoms: C_12  and  C_13
REMARK    9  A    between atoms: C_12  and  O_52
REMARK   10  A    between atoms: C_13  and  C_14
REMARK   11  A    between atoms: C_13  and  C_15
REMARK   12  A    between atoms: C_16  and  C_51
REMARK   13  A    between atoms: C_17  and  O_49
REMARK   14  A    between atoms: C_19  and  O_47
REMARK   15  A    between atoms: C_23  and  O_45
REMARK   16  A    between atoms: C_32  and  O_43
REMARK   17  A    between atoms: C_33  and  O_42
REMARK   18  A    between atoms: C_35  and  C_41
REMARK   19  A    between atoms: O_43  and  C_44
REMARK   20  A    between atoms: O_45  and  C_46
REMARK   21  A    between atoms: O_47  and  C_48
REMARK   22  A    between atoms: O_49  and  C_50
REMARK   23  A    between atoms: O_53  and  C_54
REMARK                            x       y       z     vdW  Elec       q    Type
REMARK                         _______ _______ _______ _____ _____    ______ ____
ROOT
ATOM      1  C   UNL     1     -11.717   7.806  24.759  0.00  0.00    +0.113 C 
ATOM      2  C   UNL     1     -12.572   9.105  24.875  0.00  0.00    +0.020 C 
ATOM      3  C   UNL     1     -11.683  10.390  24.760  0.00  0.00    +0.067 C 
ATOM      4  C   UNL     1     -12.427  11.532  24.022  0.00  0.00    +0.003 C 
ATOM      5  C   UNL     1     -11.891  11.813  22.596  0.00  0.00    +0.094 C 
ATOM      6  C   UNL     1     -10.560  12.559  22.524  0.00  0.00    +0.145 C 
ATOM      7  C   UNL     1     -10.324  13.740  23.465  0.00  0.00    +0.083 C 
ATOM      8  O   UNL     1      -9.718  12.462  23.685  0.00  0.00    -0.363 OA
ATOM      9  C   UNL     1      -9.844  12.611  21.169  0.00  0.00    +0.094 C 
ATOM     10  C   UNL     1      -8.308  12.578  21.313  0.00  0.00    +0.003 C 
ATOM     11  C   UNL     1      -7.457  12.869  20.066  0.00  0.00    +0.065 C 
ATOM     12  C   UNL     1      -7.319  14.373  19.776  0.00  0.00    -0.008 C 
ATOM     13  C   UNL     1      -6.526  14.586  18.524  0.00  0.00    -0.083 C 
ATOM     14  C   UNL     1      -6.396  13.597  17.632  0.00  0.00    -0.059 C 
ATOM     15  C   UNL     1      -7.055  12.244  17.779  0.00  0.00    +0.080 C 
ATOM     16  O   UNL     1      -7.948  12.173  18.910  0.00  0.00    -0.369 OA
ATOM     17  C   UNL     1      -6.026  11.105  17.854  0.00  0.00    +0.006 C 
ATOM     18  C   UNL     1      -6.641   9.782  17.363  0.00  0.00    +0.090 C 
ATOM     19  C   UNL     1      -6.126   8.565  18.171  0.00  0.00    +0.100 C 
ATOM     20  C   UNL     1      -6.715   8.441  19.551  0.00  0.00    -0.051 C 
ATOM     21  C   UNL     1      -8.000   8.205  19.896  0.00  0.00    -0.052 C 
ATOM     22  C   UNL     1      -8.352   8.142  21.316  0.00  0.00    -0.052 C 
ATOM     23  C   UNL     1      -9.588   7.952  21.799  0.00  0.00    +0.023 C 
ATOM     24  C   UNL     1      -9.847   7.909  23.251  0.00  0.00    +0.332 C 
ATOM     25  O   UNL     1      -9.007   7.983  24.131  0.00  0.00    -0.246 OA
ATOM     26  O   UNL     1     -11.189   7.786  23.414  0.00  0.00    -0.458 OA
ATOM     27  H   UNL     1     -10.911   7.851  25.500  0.00  0.00    +0.074 HD
ATOM     28  H   UNL     1     -13.246   9.101  24.009  0.00  0.00    +0.036 HD
ATOM     29  H   UNL     1     -10.746  10.178  24.235  0.00  0.00    +0.060 HD
ATOM     30  H   UNL     1     -12.415  12.445  24.622  0.00  0.00    +0.032 HD
ATOM     31  H   UNL     1     -13.487  11.268  23.931  0.00  0.00    +0.032 HD
ATOM     32  H   UNL     1     -12.618  12.458  22.086  0.00  0.00    +0.063 HD
ATOM     33  H   UNL     1     -11.103  14.061  24.141  0.00  0.00    +0.059 HD
ATOM     34  H   UNL     1      -9.687  14.552  23.132  0.00  0.00    +0.059 HD
ATOM     35  H   UNL     1     -10.125  11.742  20.560  0.00  0.00    +0.063 HD
ATOM     36  H   UNL     1      -8.048  11.574  21.677  0.00  0.00    +0.032 HD
ATOM     37  H   UNL     1      -7.977  13.275  22.092  0.00  0.00    +0.032 HD
ATOM     38  H   UNL     1      -6.457  12.482  20.301  0.00  0.00    +0.060 HD
ATOM     39  H   UNL     1      -6.817  14.866  20.617  0.00  0.00    +0.033 HD
ATOM     40  H   UNL     1      -8.287  14.860  19.635  0.00  0.00    +0.033 HD
ATOM     41  H   UNL     1      -6.068  15.555  18.358  0.00  0.00    +0.057 HD
ATOM     42  H   UNL     1      -5.816  13.766  16.729  0.00  0.00    +0.059 HD
ATOM     43  H   UNL     1      -7.685  12.109  16.892  0.00  0.00    +0.064 HD
ATOM     44  H   UNL     1      -5.149  11.346  17.240  0.00  0.00    +0.032 HD
ATOM     45  H   UNL     1      -5.680  10.997  18.888  0.00  0.00    +0.032 HD
ATOM     46  H   UNL     1      -7.736   9.825  17.411  0.00  0.00    +0.063 HD
ATOM     47  H   UNL     1      -5.033   8.627  18.259  0.00  0.00    +0.066 HD
ATOM     48  H   UNL     1      -5.980   8.573  20.343  0.00  0.00    +0.060 HD
ATOM     49  H   UNL     1      -7.534   8.265  22.024  0.00  0.00    +0.062 HD
ATOM     50  H   UNL     1     -10.458   7.829  21.168  0.00  0.00    +0.069 HD
ENDROOT
BRANCH  21  51
ATOM     51  C   UNL     1      -9.109   7.995  18.894  0.00  0.00    -0.040 C 
ATOM     52  H   UNL     1      -9.911   7.394  19.335  0.00  0.00    +0.028 HD
ATOM     53  H   UNL     1      -8.741   7.484  18.001  0.00  0.00    +0.028 HD
ATOM     54  H   UNL     1      -9.556   8.923  18.535  0.00  0.00    +0.028 HD
ENDBRANCH  21  51
BRANCH   2  55
ATOM     55  C   UNL     1     -13.435   9.145  26.145  0.00  0.00    -0.057 C 
ATOM     56  H   UNL     1     -14.352   8.561  26.013  0.00  0.00    +0.023 HD
ATOM     57  H   UNL     1     -12.915   8.717  27.005  0.00  0.00    +0.023 HD
ATOM     58  H   UNL     1     -13.715  10.173  26.402  0.00  0.00    +0.023 HD
ENDBRANCH   2  55
BRANCH   1  59
ATOM     59  C   UNL     1     -12.496   6.477  25.000  0.00  0.00    +0.020 C 
ATOM     60  H   UNL     1     -13.202   6.663  25.818  0.00  0.00    +0.036 HD
BRANCH  59  61
ATOM     61  C   UNL     1     -13.345   6.066  23.794  0.00  0.00    -0.057 C 
ATOM     62  H   UNL     1     -12.879   5.246  23.239  0.00  0.00    +0.023 HD
ATOM     63  H   UNL     1     -14.330   5.708  24.103  0.00  0.00    +0.023 HD
ATOM     64  H   UNL     1     -13.515   6.905  23.117  0.00  0.00    +0.023 HD
ENDBRANCH  59  61
BRANCH  59  65
ATOM     65  C   UNL     1     -11.558   5.338  25.504  0.00  0.00    +0.064 C 
ATOM     66  H   UNL     1     -12.128   4.403  25.428  0.00  0.00    +0.060 HD
BRANCH  65  67
ATOM     67  C   UNL     1     -10.969   5.434  26.946  0.00  0.00    -0.017 C 
ATOM     68  H   UNL     1     -10.252   6.256  26.984  0.00  0.00    +0.032 HD
BRANCH  67  69
ATOM     69  C   UNL     1     -12.119   5.811  27.898  0.00  0.00    -0.060 C 
ATOM     70  H   UNL     1     -12.481   4.942  28.454  0.00  0.00    +0.023 HD
ATOM     71  H   UNL     1     -12.970   6.239  27.352  0.00  0.00    +0.023 HD
ATOM     72  H   UNL     1     -11.785   6.550  28.635  0.00  0.00    +0.023 HD
ENDBRANCH  67  69
BRANCH  67  73
ATOM     73  C   UNL     1     -10.297   4.138  27.474  0.00  0.00    -0.046 C 
ATOM     74  H   UNL     1      -9.235   4.130  27.217  0.00  0.00    +0.027 HD
ATOM     75  H   UNL     1     -10.720   3.250  26.989  0.00  0.00    +0.027 HD
BRANCH  73  76
ATOM     76  C   UNL     1     -10.381   3.944  29.001  0.00  0.00    -0.026 C 
ATOM     77  H   UNL     1      -9.382   4.138  29.415  0.00  0.00    +0.029 HD
ATOM     78  H   UNL     1     -11.052   4.697  29.427  0.00  0.00    +0.029 HD
BRANCH  76  83
ATOM     79  C   UNL     1     -10.229   0.783  31.003  0.00  0.00    +0.059 C 
ATOM     80  C   UNL     1     -10.504  -0.245  29.905  0.00  0.00    -0.000 C 
ATOM     81  C   UNL     1     -10.123   0.294  28.535  0.00  0.00    +0.063 C 
ATOM     82  C   UNL     1     -10.892   1.587  28.282  0.00  0.00    -0.000 C 
ATOM     83  C   UNL     1     -10.829   2.551  29.479  0.00  0.00    +0.061 C 
ATOM     84  O   UNL     1      -9.915   2.073  30.465  0.00  0.00    -0.373 OA
ATOM     85  H   UNL     1      -9.329   0.472  31.548  0.00  0.00    +0.059 HD
ATOM     86  H   UNL     1      -9.954  -1.173  30.117  0.00  0.00    +0.032 HD
ATOM     87  H   UNL     1     -11.562  -0.550  29.901  0.00  0.00    +0.032 HD
ATOM     88  H   UNL     1      -9.043   0.485  28.510  0.00  0.00    +0.060 HD
ATOM     89  H   UNL     1     -10.515   2.064  27.368  0.00  0.00    +0.032 HD
ATOM     90  H   UNL     1     -11.943   1.366  28.055  0.00  0.00    +0.032 HD
ATOM     91  H   UNL     1     -11.824   2.650  29.927  0.00  0.00    +0.060 HD
BRANCH  79  92
ATOM     92  C   UNL     1     -11.363   0.854  32.023  0.00  0.00    -0.039 C 
ATOM     93  H   UNL     1     -11.740   1.875  32.137  0.00  0.00    +0.025 HD
ATOM     94  H   UNL     1     -12.197   0.218  31.714  0.00  0.00    +0.025 HD
ATOM     95  H   UNL     1     -11.016   0.527  33.008  0.00  0.00    +0.025 HD
ENDBRANCH  79  92
BRANCH  81  96
ATOM     96  O   UNL     1     -10.446  -0.707  27.563  0.00  0.00    -0.380 OA
BRANCH  96  97
ATOM     97  C   UNL     1     -11.605  -0.395  26.797  0.00  0.00    +0.037 C 
ATOM     98  H   UNL     1     -11.413   0.450  26.128  0.00  0.00    +0.052 HD
ATOM     99  H   UNL     1     -11.856  -1.268  26.189  0.00  0.00    +0.052 HD
ATOM    100  H   UNL     1     -12.455  -0.178  27.449  0.00  0.00    +0.052 HD
ENDBRANCH  96  97
ENDBRANCH  81  96
ENDBRANCH  76  83
ENDBRANCH  73  76
ENDBRANCH  67  73
ENDBRANCH  65  67
BRANCH  65 101
ATOM    101  O   UNL     1     -10.471   5.194  24.576  0.00  0.00    -0.391 OA
ATOM    102  H   UNL     1      -9.705   5.661  24.950  0.00  0.00    +0.210 HD
ENDBRANCH  65 101
ENDBRANCH  59  65
ENDBRANCH   1  59
BRANCH  19 103
ATOM    103  O   UNL     1      -6.381   7.351  17.462  0.00  0.00    -0.385 OA
ATOM    104  H   UNL     1      -6.970   6.844  18.051  0.00  0.00    +0.210 HD
ENDBRANCH  19 103
BRANCH  18 105
ATOM    105  O   UNL     1      -6.225   9.598  15.985  0.00  0.00    -0.377 OA
BRANCH 105 106
ATOM    106  C   UNL     1      -4.837   9.858  15.793  0.00  0.00    +0.037 C 
ATOM    107  H   UNL     1      -4.352   9.009  15.300  0.00  0.00    +0.052 HD
ATOM    108  H   UNL     1      -4.377   9.998  16.775  0.00  0.00    +0.052 HD
ATOM    109  H   UNL     1      -4.695  10.770  15.206  0.00  0.00    +0.052 HD
ENDBRANCH 105 106
ENDBRANCH  18 105
BRANCH   9 110
ATOM    110  O   UNL     1     -10.256  13.825  20.526  0.00  0.00    -0.377 OA
BRANCH 110 111
ATOM    111  C   UNL     1     -11.149  13.591  19.447  0.00  0.00    +0.037 C 
ATOM    112  H   UNL     1     -11.221  12.513  19.287  0.00  0.00    +0.052 HD
ATOM    113  H   UNL     1     -10.771  14.055  18.532  0.00  0.00    +0.052 HD
ATOM    114  H   UNL     1     -12.148  13.972  19.678  0.00  0.00    +0.052 HD
ENDBRANCH 110 111
ENDBRANCH   9 110
BRANCH   5 115
ATOM    115  O   UNL     1     -11.773  10.573  21.882  0.00  0.00    -0.377 OA
BRANCH 115 116
ATOM    116  C   UNL     1     -12.969  10.196  21.211  0.00  0.00    +0.037 C 
ATOM    117  H   UNL     1     -12.789  10.102  20.136  0.00  0.00    +0.052 HD
ATOM    118  H   UNL     1     -13.771  10.917  21.398  0.00  0.00    +0.052 HD
ATOM    119  H   UNL     1     -13.279   9.221  21.595  0.00  0.00    +0.052 HD
ENDBRANCH 115 116
ENDBRANCH   5 115
BRANCH   3 120
ATOM    120  O   UNL     1     -11.380  10.890  26.079  0.00  0.00    -0.379 OA
BRANCH 120 121
ATOM    121  C   UNL     1     -10.100  10.491  26.556  0.00  0.00    +0.037 C 
ATOM    122  H   UNL     1      -9.576   9.893  25.808  0.00  0.00    +0.052 HD
ATOM    123  H   UNL     1      -9.500  11.361  26.838  0.00  0.00    +0.052 HD
ATOM    124  H   UNL     1     -10.245   9.874  27.447  0.00  0.00    +0.052 HD
ENDBRANCH 120 121
ENDBRANCH   3 120
TORSDOF 23
ENDMDL
MODEL 10
REMARK VINA RESULT:      -5.3      5.926     11.019
REMARK  Name = Lobophorolide_conf2
REMARK  23 active torsions:
REMARK  status: ('A' for Active; 'I' for Inactive)
REMARK    1  A    between atoms: C_1  and  C_2
REMARK    2  A    between atoms: C_4  and  O_53
REMARK    3  A    between atoms: C_6  and  C_8
REMARK    4  A    between atoms: C_8  and  C_9
REMARK    5  A    between atoms: C_9  and  C_10
REMARK    6  A    between atoms: C_10  and  C_11
REMARK    7  A    between atoms: C_10  and  C_12
REMARK    8  A    between atoms: C_12  and  C_13
REMARK    9  A    between atoms: C_12  and  O_52
REMARK   10  A    between atoms: C_13  and  C_14
REMARK   11  A    between atoms: C_13  and  C_15
REMARK   12  A    between atoms: C_16  and  C_51
REMARK   13  A    between atoms: C_17  and  O_49
REMARK   14  A    between atoms: C_19  and  O_47
REMARK   15  A    between atoms: C_23  and  O_45
REMARK   16  A    between atoms: C_32  and  O_43
REMARK   17  A    between atoms: C_33  and  O_42
REMARK   18  A    between atoms: C_35  and  C_41
REMARK   19  A    between atoms: O_43  and  C_44
REMARK   20  A    between atoms: O_45  and  C_46
REMARK   21  A    between atoms: O_47  and  C_48
REMARK   22  A    between atoms: O_49  and  C_50
REMARK   23  A    between atoms: O_53  and  C_54
REMARK                            x       y       z     vdW  Elec       q    Type
REMARK                         _______ _______ _______ _____ _____    ______ ____
ROOT
ATOM      1  C   UNL     1     -12.083   8.359  24.202  0.00  0.00    +0.113 C 
ATOM      2  C   UNL     1     -12.747   9.764  24.315  0.00  0.00    +0.020 C 
ATOM      3  C   UNL     1     -11.677  10.908  24.307  0.00  0.00    +0.067 C 
ATOM      4  C   UNL     1     -12.197  12.169  23.570  0.00  0.00    +0.003 C 
ATOM      5  C   UNL     1     -11.530  12.411  22.193  0.00  0.00    +0.094 C 
ATOM      6  C   UNL     1     -10.104  12.957  22.234  0.00  0.00    +0.145 C 
ATOM      7  C   UNL     1      -9.765  14.061  23.235  0.00  0.00    +0.083 C 
ATOM      8  O   UNL     1      -9.365  12.702  23.442  0.00  0.00    -0.363 OA
ATOM      9  C   UNL     1      -9.296  12.943  20.930  0.00  0.00    +0.094 C 
ATOM     10  C   UNL     1      -7.795  12.682  21.170  0.00  0.00    +0.003 C 
ATOM     11  C   UNL     1      -6.828  12.883  19.992  0.00  0.00    +0.065 C 
ATOM     12  C   UNL     1      -6.455  14.359  19.771  0.00  0.00    -0.008 C 
ATOM     13  C   UNL     1      -5.557  14.491  18.581  0.00  0.00    -0.083 C 
ATOM     14  C   UNL     1      -5.510  13.521  17.661  0.00  0.00    -0.059 C 
ATOM     15  C   UNL     1      -6.364  12.275  17.712  0.00  0.00    +0.080 C 
ATOM     16  O   UNL     1      -7.334  12.301  18.781  0.00  0.00    -0.369 OA
ATOM     17  C   UNL     1      -5.518  10.995  17.807  0.00  0.00    +0.006 C 
ATOM     18  C   UNL     1      -6.282   9.792  17.225  0.00  0.00    +0.090 C 
ATOM     19  C   UNL     1      -6.003   8.489  18.016  0.00  0.00    +0.100 C 
ATOM     20  C   UNL     1      -6.698   8.411  19.350  0.00  0.00    -0.051 C 
ATOM     21  C   UNL     1      -8.023   8.355  19.603  0.00  0.00    -0.052 C 
ATOM     22  C   UNL     1      -8.477   8.302  20.995  0.00  0.00    -0.052 C 
ATOM     23  C   UNL     1      -9.757   8.280  21.391  0.00  0.00    +0.023 C 
ATOM     24  C   UNL     1     -10.118   8.232  22.821  0.00  0.00    +0.332 C 
ATOM     25  O   UNL     1      -9.339   8.157  23.754  0.00  0.00    -0.246 OA
ATOM     26  O   UNL     1     -11.472   8.302  22.893  0.00  0.00    -0.458 OA
ATOM     27  H   UNL     1     -11.331   8.263  24.994  0.00  0.00    +0.074 HD
ATOM     28  H   UNL     1     -13.355   9.885  23.409  0.00  0.00    +0.036 HD
ATOM     29  H   UNL     1     -10.747  10.578  23.834  0.00  0.00    +0.060 HD
ATOM     30  H   UNL     1     -12.095  13.052  24.205  0.00  0.00    +0.032 HD
ATOM     31  H   UNL     1     -13.276  12.066  23.401  0.00  0.00    +0.032 HD
ATOM     32  H   UNL     1     -12.120  13.171  21.664  0.00  0.00    +0.063 HD
ATOM     33  H   UNL     1     -10.534  14.472  23.872  0.00  0.00    +0.059 HD
ATOM     34  H   UNL     1      -8.997  14.781  22.975  0.00  0.00    +0.059 HD
ATOM     35  H   UNL     1      -9.658  12.144  20.271  0.00  0.00    +0.063 HD
ATOM     36  H   UNL     1      -7.707  11.640  21.509  0.00  0.00    +0.032 HD
ATOM     37  H   UNL     1      -7.421  13.299  21.996  0.00  0.00    +0.032 HD
ATOM     38  H   UNL     1      -5.913  12.347  20.274  0.00  0.00    +0.060 HD
ATOM     39  H   UNL     1      -5.947  14.747  20.661  0.00  0.00    +0.033 HD
ATOM     40  H   UNL     1      -7.332  14.986  19.588  0.00  0.00    +0.033 HD
ATOM     41  H   UNL     1      -4.954  15.387  18.482  0.00  0.00    +0.057 HD
ATOM     42  H   UNL     1      -4.851  13.629  16.803  0.00  0.00    +0.059 HD
ATOM     43  H   UNL     1      -6.945  12.260  16.782  0.00  0.00    +0.064 HD
ATOM     44  H   UNL     1      -4.575  11.124  17.260  0.00  0.00    +0.032 HD
ATOM     45  H   UNL     1      -5.262  10.807  18.855  0.00  0.00    +0.032 HD
ATOM     46  H   UNL     1      -7.359   9.993  17.206  0.00  0.00    +0.063 HD
ATOM     47  H   UNL     1      -4.922   8.388  18.175  0.00  0.00    +0.066 HD
ATOM     48  H   UNL     1      -6.007   8.411  20.191  0.00  0.00    +0.060 HD
ATOM     49  H   UNL     1      -7.700   8.283  21.758  0.00  0.00    +0.062 HD
ATOM     50  H   UNL     1     -10.591   8.305  20.701  0.00  0.00    +0.069 HD
ENDROOT
BRANCH  21  51
ATOM     51  C   UNL     1      -9.080   8.340  18.526  0.00  0.00    -0.040 C 
ATOM     52  H   UNL     1      -9.066   7.383  17.993  0.00  0.00    +0.028 HD
ATOM     53  H   UNL     1      -8.917   9.144  17.804  0.00  0.00    +0.028 HD
ATOM     54  H   UNL     1     -10.093   8.488  18.904  0.00  0.00    +0.028 HD
ENDBRANCH  21  51
BRANCH   2  55
ATOM     55  C   UNL     1     -13.680   9.892  25.529  0.00  0.00    -0.057 C 
ATOM     56  H   UNL     1     -13.942   8.906  25.927  0.00  0.00    +0.023 HD
ATOM     57  H   UNL     1     -13.212  10.443  26.347  0.00  0.00    +0.023 HD
ATOM     58  H   UNL     1     -14.607  10.413  25.263  0.00  0.00    +0.023 HD
ENDBRANCH   2  55
BRANCH   1  59
ATOM     59  C   UNL     1     -13.060   7.151  24.340  0.00  0.00    +0.020 C 
ATOM     60  H   UNL     1     -13.784   7.413  25.120  0.00  0.00    +0.036 HD
BRANCH  59  61
ATOM     61  C   UNL     1     -13.876   6.906  23.069  0.00  0.00    -0.057 C 
ATOM     62  H   UNL     1     -14.839   6.439  23.297  0.00  0.00    +0.023 HD
ATOM     63  H   UNL     1     -14.103   7.843  22.553  0.00  0.00    +0.023 HD
ATOM     64  H   UNL     1     -13.335   6.280  22.358  0.00  0.00    +0.023 HD
ENDBRANCH  59  61
BRANCH  59  65
ATOM     65  C   UNL     1     -12.331   5.872  24.855  0.00  0.00    +0.064 C 
ATOM     66  H   UNL     1     -13.096   5.090  24.950  0.00  0.00    +0.060 HD
BRANCH  65  67
ATOM     67  C   UNL     1     -11.541   5.947  26.199  0.00  0.00    -0.017 C 
ATOM     68  H   UNL     1     -11.259   6.985  26.388  0.00  0.00    +0.032 HD
BRANCH  67  69
ATOM     69  C   UNL     1     -12.504   5.542  27.331  0.00  0.00    -0.060 C 
ATOM     70  H   UNL     1     -12.587   6.328  28.087  0.00  0.00    +0.023 HD
ATOM     71  H   UNL     1     -12.171   4.625  27.835  0.00  0.00    +0.023 HD
ATOM     72  H   UNL     1     -13.512   5.364  26.937  0.00  0.00    +0.023 HD
ENDBRANCH  67  69
BRANCH  67  73
ATOM     73  C   UNL     1     -10.281   5.045  26.278  0.00  0.00    -0.046 C 
ATOM     74  H   UNL     1     -10.266   4.341  25.444  0.00  0.00    +0.027 HD
ATOM     75  H   UNL     1     -10.298   4.424  27.182  0.00  0.00    +0.027 HD
BRANCH  73  76
ATOM     76  C   UNL     1      -8.941   5.805  26.237  0.00  0.00    -0.026 C 
ATOM     77  H   UNL     1      -8.147   5.068  26.059  0.00  0.00    +0.029 HD
ATOM     78  H   UNL     1      -8.936   6.489  25.382  0.00  0.00    +0.029 HD
BRANCH  76  83
ATOM     79  C   UNL     1      -9.253   6.925  29.797  0.00  0.00    +0.059 C 
ATOM     80  C   UNL     1      -9.082   8.434  29.621  0.00  0.00    -0.000 C 
ATOM     81  C   UNL     1      -9.465   8.874  28.216  0.00  0.00    +0.063 C 
ATOM     82  C   UNL     1      -8.616   8.104  27.210  0.00  0.00    -0.000 C 
ATOM     83  C   UNL     1      -8.576   6.596  27.508  0.00  0.00    +0.061 C 
ATOM     84  O   UNL     1      -9.492   6.262  28.550  0.00  0.00    -0.373 OA
ATOM     85  H   UNL     1     -10.156   6.749  30.395  0.00  0.00    +0.059 HD
ATOM     86  H   UNL     1      -9.689   8.968  30.367  0.00  0.00    +0.032 HD
ATOM     87  H   UNL     1      -8.049   8.746  29.837  0.00  0.00    +0.032 HD
ATOM     88  H   UNL     1     -10.530   8.666  28.051  0.00  0.00    +0.060 HD
ATOM     89  H   UNL     1      -8.986   8.298  26.195  0.00  0.00    +0.032 HD
ATOM     90  H   UNL     1      -7.590   8.494  27.201  0.00  0.00    +0.032 HD
ATOM     91  H   UNL     1      -7.564   6.304  27.810  0.00  0.00    +0.060 HD
BRANCH  79  92
ATOM     92  C   UNL     1      -8.087   6.299  30.559  0.00  0.00    -0.039 C 
ATOM     93  H   UNL     1      -8.316   6.181  31.622  0.00  0.00    +0.025 HD
ATOM     94  H   UNL     1      -7.849   5.312  30.152  0.00  0.00    +0.025 HD
ATOM     95  H   UNL     1      -7.197   6.933  30.490  0.00  0.00    +0.025 HD
ENDBRANCH  79  92
BRANCH  81  96
ATOM     96  O   UNL     1      -9.241  10.285  28.120  0.00  0.00    -0.380 OA
BRANCH  96  97
ATOM     97  C   UNL     1      -9.016  10.907  29.382  0.00  0.00    +0.037 C 
ATOM     98  H   UNL     1      -7.949  10.921  29.623  0.00  0.00    +0.052 HD
ATOM     99  H   UNL     1      -9.372  11.939  29.319  0.00  0.00    +0.052 HD
ATOM    100  H   UNL     1      -9.578  10.399  30.171  0.00  0.00    +0.052 HD
ENDBRANCH  96  97
ENDBRANCH  81  96
ENDBRANCH  76  83
ENDBRANCH  73  76
ENDBRANCH  67  73
ENDBRANCH  65  67
BRANCH  65 101
ATOM    101  O   UNL     1     -11.441   5.407  23.828  0.00  0.00    -0.391 OA
ATOM    102  H   UNL     1     -11.923   5.445  22.985  0.00  0.00    +0.210 HD
ENDBRANCH  65 101
ENDBRANCH  59  65
ENDBRANCH   1  59
BRANCH  19 103
ATOM    103  O   UNL     1      -6.382   7.348  17.244  0.00  0.00    -0.385 OA
ATOM    104  H   UNL     1      -6.840   7.720  16.468  0.00  0.00    +0.210 HD
ENDBRANCH  19 103
BRANCH  18 105
ATOM    105  O   UNL     1      -5.804   9.591  15.870  0.00  0.00    -0.377 OA
BRANCH 105 106
ATOM    106  C   UNL     1      -4.382   9.543  15.794  0.00  0.00    +0.037 C 
ATOM    107  H   UNL     1      -3.949  10.515  16.053  0.00  0.00    +0.052 HD
ATOM    108  H   UNL     1      -4.103   9.303  14.764  0.00  0.00    +0.052 HD
ATOM    109  H   UNL     1      -3.989   8.763  16.453  0.00  0.00    +0.052 HD
ENDBRANCH 105 106
ENDBRANCH  18 105
BRANCH   9 110
ATOM    110  O   UNL     1      -9.485  14.223  20.311  0.00  0.00    -0.377 OA
BRANCH 110 111
ATOM    111  C   UNL     1     -10.324  14.154  19.168  0.00  0.00    +0.037 C 
ATOM    112  H   UNL     1      -9.695  14.013  18.286  0.00  0.00    +0.052 HD
ATOM    113  H   UNL     1     -10.886  15.086  19.051  0.00  0.00    +0.052 HD
ATOM    114  H   UNL     1     -11.013  13.308  19.240  0.00  0.00    +0.052 HD
ENDBRANCH 110 111
ENDBRANCH   9 110
BRANCH   5 115
ATOM    115  O   UNL     1     -11.544  11.189  21.438  0.00  0.00    -0.377 OA
BRANCH 115 116
ATOM    116  C   UNL     1     -12.722  11.022  20.662  0.00  0.00    +0.037 C 
ATOM    117  H   UNL     1     -13.608  11.266  21.257  0.00  0.00    +0.052 HD
ATOM    118  H   UNL     1     -12.799  10.002  20.274  0.00  0.00    +0.052 HD
ATOM    119  H   UNL     1     -12.672  11.714  19.818  0.00  0.00    +0.052 HD
ENDBRANCH 115 116
ENDBRANCH   5 115
BRANCH   3 120
ATOM    120  O   UNL     1     -11.396  11.319  25.662  0.00  0.00    -0.379 OA
BRANCH 120 121
ATOM    121  C   UNL     1     -11.744  12.673  25.926  0.00  0.00    +0.037 C 
ATOM    122  H   UNL     1     -12.599  12.981  25.320  0.00  0.00    +0.052 HD
ATOM    123  H   UNL     1     -11.958  12.821  26.989  0.00  0.00    +0.052 HD
ATOM    124  H   UNL     1     -10.891  13.302  25.660  0.00  0.00    +0.052 HD
ENDBRANCH 120 121
ENDBRANCH   3 120
TORSDOF 23
ENDMDL
