MODEL 1
REMARK VINA RESULT:      -4.9      0.000      0.000
REMARK  Name = Mycalolide B_conf2
REMARK  35 active torsions:
REMARK  status: ('A' for Active; 'I' for Inactive)
REMARK    1  A    between atoms: C_1  and  C_2
REMARK    2  A    between atoms: C_3  and  O_72
REMARK    3  A    between atoms: C_22  and  O_70
REMARK    4  A    between atoms: C_23  and  C_69
REMARK    5  A    between atoms: C_29  and  O_68
REMARK    6  A    between atoms: C_34  and  C_35
REMARK    7  A    between atoms: C_35  and  C_36
REMARK    8  A    between atoms: C_36  and  C_37
REMARK    9  A    between atoms: C_36  and  O_66
REMARK   10  A    between atoms: C_37  and  C_38
REMARK   11  A    between atoms: C_37  and  C_39
REMARK   12  A    between atoms: C_39  and  C_40
REMARK   13  A    between atoms: C_40  and  C_41
REMARK   14  A    between atoms: C_41  and  C_42
REMARK   15  A    between atoms: C_41  and  O_57
REMARK   16  A    between atoms: C_42  and  C_43
REMARK   17  A    between atoms: C_42  and  C_44
REMARK   18  A    between atoms: C_44  and  C_45
REMARK   19  A    between atoms: C_44  and  O_53
REMARK   20  A    between atoms: C_45  and  C_46
REMARK   21  A    between atoms: C_45  and  C_47
REMARK   22  A    between atoms: C_48  and  N_49
REMARK   23  A    between atoms: N_49  and  C_50
REMARK   24  A    between atoms: O_53  and  C_54
REMARK   25  A    between atoms: C_54  and  C_56
REMARK   26  A    between atoms: O_57  and  C_58
REMARK   27  A    between atoms: C_58  and  C_60
REMARK   28  A    between atoms: C_60  and  C_61
REMARK   29  A    between atoms: C_60  and  O_64
REMARK   30  A    between atoms: C_61  and  O_62
REMARK   31  A    between atoms: O_62  and  C_63
REMARK   32  A    between atoms: O_64  and  C_65
REMARK   33  A    between atoms: O_66  and  C_67
REMARK   34  A    between atoms: O_70  and  C_71
REMARK   35  A    between atoms: O_72  and  C_73
REMARK                            x       y       z     vdW  Elec       q    Type
REMARK                         _______ _______ _______ _____ _____    ______ ____
ROOT
ATOM      1  C   UNL     1       2.263  20.740  22.830  0.00  0.00    +0.011 C 
ATOM      2  H   UNL     1       1.789  20.083  22.094  0.00  0.00    +0.033 HD
ATOM      3  H   UNL     1       3.289  20.382  22.916  0.00  0.00    +0.033 HD
ENDROOT
BRANCH   1  36
ATOM      4  C   UNL     1       3.445  23.085  22.566  0.00  0.00    +0.020 C 
ATOM      5  C   UNL     1       4.877  22.582  22.212  0.00  0.00    +0.068 C 
ATOM      6  C   UNL     1       5.131  22.085  20.763  0.00  0.00    -0.008 C 
ATOM      7  C   UNL     1       4.697  20.680  20.457  0.00  0.00    -0.077 C 
ATOM      8  C   UNL     1       5.495  19.604  20.571  0.00  0.00    -0.003 C 
ATOM      9  C   UNL     1       4.982  18.293  20.375  0.00  0.00    +0.220 A 
ATOM     10  N   UNL     1       3.742  17.968  20.034  0.00  0.00    -0.205 NA
ATOM     11  C   UNL     1       3.713  16.596  20.045  0.00  0.00    +0.164 A 
ATOM     12  C   UNL     1       4.947  16.109  20.369  0.00  0.00    +0.125 A 
ATOM     13  O   UNL     1       5.775  17.171  20.558  0.00  0.00    -0.443 OA
ATOM     14  C   UNL     1       2.460  15.718  19.753  0.00  0.00    +0.250 A 
ATOM     15  N   UNL     1       1.275  16.212  19.440  0.00  0.00    -0.203 NA
ATOM     16  C   UNL     1       0.479  15.104  19.288  0.00  0.00    +0.164 A 
ATOM     17  C   UNL     1       1.210  13.968  19.519  0.00  0.00    +0.125 A 
ATOM     18  O   UNL     1       2.484  14.342  19.813  0.00  0.00    -0.442 OA
ATOM     19  C   UNL     1      -1.033  15.119  18.908  0.00  0.00    +0.249 A 
ATOM     20  N   UNL     1      -1.717  16.226  18.673  0.00  0.00    -0.210 NA
ATOM     21  C   UNL     1      -2.984  15.789  18.360  0.00  0.00    +0.109 A 
ATOM     22  C   UNL     1      -3.021  14.416  18.426  0.00  0.00    +0.118 A 
ATOM     23  O   UNL     1      -1.785  13.974  18.779  0.00  0.00    -0.442 OA
ATOM     24  C   UNL     1      -4.068  16.758  18.017  0.00  0.00    +0.113 C 
ATOM     25  C   UNL     1      -4.838  17.305  19.243  0.00  0.00    +0.051 C 
ATOM     26  C   UNL     1      -4.743  18.828  19.219  0.00  0.00    +0.161 C 
ATOM     27  O   UNL     1      -5.706  19.514  18.873  0.00  0.00    -0.292 OA
ATOM     28  C   UNL     1      -3.445  19.475  19.575  0.00  0.00    -0.023 C 
ATOM     29  C   UNL     1      -3.210  20.753  19.228  0.00  0.00    -0.078 C 
ATOM     30  C   UNL     1      -1.957  21.521  19.551  0.00  0.00    -0.008 C 
ATOM     31  C   UNL     1      -0.640  20.857  19.097  0.00  0.00    +0.069 C 
ATOM     32  C   UNL     1       0.529  21.843  19.036  0.00  0.00    +0.071 C 
ATOM     33  C   UNL     1       0.799  22.479  20.377  0.00  0.00    +0.310 C 
ATOM     34  O   UNL     1       0.035  23.244  20.949  0.00  0.00    -0.251 OA
ATOM     35  O   UNL     1       2.001  22.059  20.858  0.00  0.00    -0.461 OA
ATOM     36  C   UNL     1       2.221  22.177  22.285  0.00  0.00    +0.110 C 
ATOM     37  H   UNL     1       3.426  23.261  23.648  0.00  0.00    +0.036 HD
ATOM     38  H   UNL     1       5.553  23.441  22.332  0.00  0.00    +0.060 HD
ATOM     39  H   UNL     1       6.214  22.139  20.588  0.00  0.00    +0.033 HD
ATOM     40  H   UNL     1       4.684  22.771  20.034  0.00  0.00    +0.033 HD
ATOM     41  H   UNL     1       3.660  20.532  20.162  0.00  0.00    +0.057 HD
ATOM     42  H   UNL     1       6.526  19.702  20.890  0.00  0.00    +0.067 HD
ATOM     43  H   UNL     1       5.386  15.125  20.472  0.00  0.00    +0.105 HD
ATOM     44  H   UNL     1       0.999  12.910  19.514  0.00  0.00    +0.105 HD
ATOM     45  H   UNL     1      -3.780  13.667  18.260  0.00  0.00    +0.105 HD
ATOM     46  H   UNL     1      -3.592  17.596  17.485  0.00  0.00    +0.067 HD
ATOM     47  H   UNL     1      -5.908  17.089  19.116  0.00  0.00    +0.041 HD
ATOM     48  H   UNL     1      -2.700  18.888  20.105  0.00  0.00    +0.065 HD
ATOM     49  H   UNL     1      -3.982  21.304  18.682  0.00  0.00    +0.057 HD
ATOM     50  H   UNL     1      -2.048  22.497  19.062  0.00  0.00    +0.033 HD
ATOM     51  H   UNL     1      -1.954  21.691  20.633  0.00  0.00    +0.033 HD
ATOM     52  H   UNL     1      -0.782  20.430  18.096  0.00  0.00    +0.060 HD
ATOM     53  H   UNL     1       0.336  22.646  18.317  0.00  0.00    +0.040 HD
ATOM     54  H   UNL     1       1.434  21.323  18.697  0.00  0.00    +0.040 HD
ATOM     55  H   UNL     1       1.356  22.681  22.740  0.00  0.00    +0.074 HD
BRANCH   4  56
ATOM     56  C   UNL     1       3.214  24.461  21.913  0.00  0.00    -0.057 C 
ATOM     57  H   UNL     1       2.157  24.597  21.659  0.00  0.00    +0.023 HD
ATOM     58  H   UNL     1       3.783  24.547  20.983  0.00  0.00    +0.023 HD
ATOM     59  H   UNL     1       3.511  25.284  22.568  0.00  0.00    +0.023 HD
ENDBRANCH   4  56
BRANCH  25  60
ATOM     60  C   UNL     1      -4.465  16.755  20.619  0.00  0.00    -0.053 C 
ATOM     61  H   UNL     1      -5.221  16.047  20.972  0.00  0.00    +0.024 HD
ATOM     62  H   UNL     1      -3.497  16.246  20.628  0.00  0.00    +0.024 HD
ATOM     63  H   UNL     1      -4.402  17.560  21.357  0.00  0.00    +0.024 HD
ENDBRANCH  25  60
BRANCH  31  64
ATOM     64  O   UNL     1      -0.316  19.777  19.978  0.00  0.00    -0.391 OA
ATOM     65  H   UNL     1       0.298  19.175  19.510  0.00  0.00    +0.210 HD
ENDBRANCH  31  64
BRANCH  24  66
ATOM     66  O   UNL     1      -5.036  16.172  17.116  0.00  0.00    -0.373 OA
BRANCH  66  67
ATOM     67  C   UNL     1      -5.550  17.118  16.180  0.00  0.00    +0.037 C 
ATOM     68  H   UNL     1      -4.951  18.035  16.183  0.00  0.00    +0.052 HD
ATOM     69  H   UNL     1      -5.513  16.675  15.178  0.00  0.00    +0.052 HD
ATOM     70  H   UNL     1      -6.598  17.351  16.415  0.00  0.00    +0.052 HD
ENDBRANCH  66  67
ENDBRANCH  24  66
BRANCH   5  71
ATOM     71  O   UNL     1       5.349  21.567  23.114  0.00  0.00    -0.379 OA
BRANCH  71  72
ATOM     72  C   UNL     1       5.926  22.063  24.312  0.00  0.00    +0.037 C 
ATOM     73  H   UNL     1       5.187  22.635  24.878  0.00  0.00    +0.052 HD
ATOM     74  H   UNL     1       6.747  22.734  24.040  0.00  0.00    +0.052 HD
ATOM     75  H   UNL     1       6.335  21.261  24.931  0.00  0.00    +0.052 HD
ENDBRANCH  71  72
ENDBRANCH   5  71
ENDBRANCH   1  36
BRANCH   1  76
ATOM     76  C   UNL     1       1.566  20.580  24.195  0.00  0.00    +0.064 C 
ATOM     77  H   UNL     1       1.028  19.623  24.224  0.00  0.00    +0.060 HD
BRANCH  76  78
ATOM     78  C   UNL     1       2.637  20.581  25.334  0.00  0.00    -0.017 C 
ATOM     79  H   UNL     1       3.630  20.511  24.865  0.00  0.00    +0.032 HD
BRANCH  78  80
ATOM     80  C   UNL     1       2.644  21.876  26.149  0.00  0.00    -0.060 C 
ATOM     81  H   UNL     1       1.930  22.599  25.744  0.00  0.00    +0.023 HD
ATOM     82  H   UNL     1       3.635  22.338  26.161  0.00  0.00    +0.023 HD
ATOM     83  H   UNL     1       2.336  21.697  27.186  0.00  0.00    +0.023 HD
ENDBRANCH  78  80
BRANCH  78  84
ATOM     84  C   UNL     1       2.418  19.326  26.224  0.00  0.00    -0.045 C 
ATOM     85  H   UNL     1       2.200  19.640  27.247  0.00  0.00    +0.027 HD
ATOM     86  H   UNL     1       1.507  18.821  25.883  0.00  0.00    +0.027 HD
BRANCH  84  87
ATOM     87  C   UNL     1       3.533  18.273  26.187  0.00  0.00    -0.015 C 
ATOM     88  H   UNL     1       3.606  17.877  27.209  0.00  0.00    +0.030 HD
ATOM     89  H   UNL     1       3.234  17.439  25.541  0.00  0.00    +0.030 HD
BRANCH  87  90
ATOM     90  C   UNL     1       4.927  18.800  25.783  0.00  0.00    +0.109 C 
ATOM     91  H   UNL     1       4.877  19.890  25.775  0.00  0.00    +0.074 HD
BRANCH  90  92
ATOM     92  C   UNL     1       5.324  18.319  24.354  0.00  0.00    +0.031 C 
ATOM     93  H   UNL     1       5.286  19.200  23.698  0.00  0.00    +0.037 HD
BRANCH  92  94
ATOM     94  C   UNL     1       4.316  17.306  23.781  0.00  0.00    -0.056 C 
ATOM     95  H   UNL     1       3.290  17.552  24.071  0.00  0.00    +0.023 HD
ATOM     96  H   UNL     1       4.525  16.287  24.115  0.00  0.00    +0.023 HD
ATOM     97  H   UNL     1       4.343  17.315  22.686  0.00  0.00    +0.023 HD
ENDBRANCH  92  94
BRANCH  92  98
ATOM     98  C   UNL     1       6.773  17.739  24.246  0.00  0.00    +0.115 C 
ATOM     99  H   UNL     1       7.251  17.912  25.219  0.00  0.00    +0.074 HD
BRANCH  98 100
ATOM    100  C   UNL     1       6.854  16.217  23.945  0.00  0.00    +0.013 C 
ATOM    101  H   UNL     1       5.954  15.917  23.398  0.00  0.00    +0.038 HD
BRANCH 100 102
ATOM    102  C   UNL     1       6.952  15.360  25.211  0.00  0.00    -0.056 C 
ATOM    103  H   UNL     1       7.593  15.819  25.967  0.00  0.00    +0.024 HD
ATOM    104  H   UNL     1       5.963  15.225  25.662  0.00  0.00    +0.024 HD
ATOM    105  H   UNL     1       7.362  14.367  24.992  0.00  0.00    +0.024 HD
ENDBRANCH 100 102
BRANCH 100 106
ATOM    106  C   UNL     1       8.051  15.903  23.060  0.00  0.00    -0.064 C 
ATOM    107  C   UNL     1       9.270  15.628  23.550  0.00  0.00    -0.005 C 
ATOM    108  H   UNL     1       7.859  15.889  21.992  0.00  0.00    +0.059 HD
ATOM    109  H   UNL     1       9.401  15.617  24.633  0.00  0.00    +0.078 HD
BRANCH 107 110
ATOM    110  N   UNL     1      10.416  15.331  22.830  0.00  0.00    -0.284 N 
ATOM    111  C   UNL     1      11.062  16.198  21.947  0.00  0.00    +0.206 C 
ATOM    112  O   UNL     1      10.774  17.348  21.645  0.00  0.00    -0.279 OA
ATOM    113  H   UNL     1      11.956  15.732  21.502  0.00  0.00    +0.126 HD
BRANCH 110 114
ATOM    114  C   UNL     1      11.007  14.015  23.057  0.00  0.00    +0.007 C 
ATOM    115  H   UNL     1      10.387  13.398  23.713  0.00  0.00    +0.043 HD
ATOM    116  H   UNL     1      11.110  13.504  22.095  0.00  0.00    +0.043 HD
ATOM    117  H   UNL     1      11.993  14.132  23.514  0.00  0.00    +0.043 HD
ENDBRANCH 110 114
ENDBRANCH 107 110
ENDBRANCH 100 106
ENDBRANCH  98 100
BRANCH  98 118
ATOM    118  O   UNL     1       7.486  18.434  23.197  0.00  0.00    -0.461 OA
BRANCH 118 119
ATOM    119  C   UNL     1       8.284  19.466  23.585  0.00  0.00    +0.304 C 
ATOM    120  O   UNL     1       8.611  19.729  24.735  0.00  0.00    -0.251 OA
BRANCH 119 121
ATOM    121  C   UNL     1       8.690  20.283  22.399  0.00  0.00    +0.033 C 
ATOM    122  H   UNL     1       8.365  19.792  21.479  0.00  0.00    +0.034 HD
ATOM    123  H   UNL     1       8.217  21.267  22.459  0.00  0.00    +0.034 HD
ATOM    124  H   UNL     1       9.775  20.429  22.399  0.00  0.00    +0.034 HD
ENDBRANCH 119 121
ENDBRANCH 118 119
ENDBRANCH  98 118
ENDBRANCH  92  98
ENDBRANCH  90  92
BRANCH  90 125
ATOM    125  O   UNL     1       5.904  18.337  26.740  0.00  0.00    -0.459 OA
BRANCH 125 126
ATOM    126  C   UNL     1       5.843  18.867  28.001  0.00  0.00    +0.339 C 
ATOM    127  O   UNL     1       5.891  18.218  29.039  0.00  0.00    -0.248 OA
BRANCH 126 128
ATOM    128  C   UNL     1       5.797  20.399  27.925  0.00  0.00    +0.178 C 
ATOM    129  H   UNL     1       5.191  20.670  27.049  0.00  0.00    +0.074 HD
BRANCH 128 130
ATOM    130  C   UNL     1       5.079  20.923  29.178  0.00  0.00    +0.084 C 
ATOM    131  H   UNL     1       5.211  22.008  29.235  0.00  0.00    +0.059 HD
ATOM    132  H   UNL     1       5.526  20.499  30.085  0.00  0.00    +0.059 HD
BRANCH 130 133
ATOM    133  O   UNL     1       3.666  20.693  29.224  0.00  0.00    -0.380 OA
BRANCH 133 134
ATOM    134  C   UNL     1       3.214  20.121  30.445  0.00  0.00    +0.037 C 
ATOM    135  H   UNL     1       3.912  20.324  31.261  0.00  0.00    +0.052 HD
ATOM    136  H   UNL     1       2.250  20.575  30.696  0.00  0.00    +0.052 HD
ATOM    137  H   UNL     1       3.050  19.045  30.330  0.00  0.00    +0.052 HD
ENDBRANCH 133 134
ENDBRANCH 130 133
ENDBRANCH 128 130
BRANCH 128 138
ATOM    138  O   UNL     1       7.047  21.082  27.797  0.00  0.00    -0.366 OA
BRANCH 138 139
ATOM    139  C   UNL     1       6.925  22.493  27.904  0.00  0.00    +0.038 C 
ATOM    140  H   UNL     1       7.911  22.930  27.738  0.00  0.00    +0.052 HD
ATOM    141  H   UNL     1       6.242  22.880  27.144  0.00  0.00    +0.052 HD
ATOM    142  H   UNL     1       6.582  22.789  28.900  0.00  0.00    +0.052 HD
ENDBRANCH 138 139
ENDBRANCH 128 138
ENDBRANCH 126 128
ENDBRANCH 125 126
ENDBRANCH  90 125
ENDBRANCH  87  90
ENDBRANCH  84  87
ENDBRANCH  78  84
ENDBRANCH  76  78
BRANCH  76 143
ATOM    143  O   UNL     1       0.641  21.668  24.330  0.00  0.00    -0.379 OA
BRANCH 143 144
ATOM    144  C   UNL     1      -0.689  21.228  24.578  0.00  0.00    +0.037 C 
ATOM    145  H   UNL     1      -1.346  22.102  24.562  0.00  0.00    +0.052 HD
ATOM    146  H   UNL     1      -0.766  20.745  25.553  0.00  0.00    +0.052 HD
ATOM    147  H   UNL     1      -1.008  20.537  23.791  0.00  0.00    +0.052 HD
ENDBRANCH 143 144
ENDBRANCH  76 143
ENDBRANCH   1  76
TORSDOF 35
ENDMDL
MODEL 2
REMARK VINA RESULT:      -4.9     10.819     17.745
REMARK  Name = Mycalolide B_conf2
REMARK  35 active torsions:
REMARK  status: ('A' for Active; 'I' for Inactive)
REMARK    1  A    between atoms: C_1  and  C_2
REMARK    2  A    between atoms: C_3  and  O_72
REMARK    3  A    between atoms: C_22  and  O_70
REMARK    4  A    between atoms: C_23  and  C_69
REMARK    5  A    between atoms: C_29  and  O_68
REMARK    6  A    between atoms: C_34  and  C_35
REMARK    7  A    between atoms: C_35  and  C_36
REMARK    8  A    between atoms: C_36  and  C_37
REMARK    9  A    between atoms: C_36  and  O_66
REMARK   10  A    between atoms: C_37  and  C_38
REMARK   11  A    between atoms: C_37  and  C_39
REMARK   12  A    between atoms: C_39  and  C_40
REMARK   13  A    between atoms: C_40  and  C_41
REMARK   14  A    between atoms: C_41  and  C_42
REMARK   15  A    between atoms: C_41  and  O_57
REMARK   16  A    between atoms: C_42  and  C_43
REMARK   17  A    between atoms: C_42  and  C_44
REMARK   18  A    between atoms: C_44  and  C_45
REMARK   19  A    between atoms: C_44  and  O_53
REMARK   20  A    between atoms: C_45  and  C_46
REMARK   21  A    between atoms: C_45  and  C_47
REMARK   22  A    between atoms: C_48  and  N_49
REMARK   23  A    between atoms: N_49  and  C_50
REMARK   24  A    between atoms: O_53  and  C_54
REMARK   25  A    between atoms: C_54  and  C_56
REMARK   26  A    between atoms: O_57  and  C_58
REMARK   27  A    between atoms: C_58  and  C_60
REMARK   28  A    between atoms: C_60  and  C_61
REMARK   29  A    between atoms: C_60  and  O_64
REMARK   30  A    between atoms: C_61  and  O_62
REMARK   31  A    between atoms: O_62  and  C_63
REMARK   32  A    between atoms: O_64  and  C_65
REMARK   33  A    between atoms: O_66  and  C_67
REMARK   34  A    between atoms: O_70  and  C_71
REMARK   35  A    between atoms: O_72  and  C_73
REMARK                            x       y       z     vdW  Elec       q    Type
REMARK                         _______ _______ _______ _____ _____    ______ ____
ROOT
ATOM      1  C   UNL     1     -10.410   9.238  17.476  0.00  0.00    +0.011 C 
ATOM      2  H   UNL     1      -9.671   9.687  18.146  0.00  0.00    +0.033 HD
ATOM      3  H   UNL     1      -9.851   8.938  16.589  0.00  0.00    +0.033 HD
ENDROOT
BRANCH   1  36
ATOM      4  C   UNL     1     -11.190   6.718  17.359  0.00  0.00    +0.020 C 
ATOM      5  C   UNL     1      -9.975   6.139  16.572  0.00  0.00    +0.068 C 
ATOM      6  C   UNL     1      -8.659   5.887  17.356  0.00  0.00    -0.008 C 
ATOM      7  C   UNL     1      -7.781   7.086  17.582  0.00  0.00    -0.077 C 
ATOM      8  C   UNL     1      -6.785   7.454  16.758  0.00  0.00    -0.003 C 
ATOM      9  C   UNL     1      -6.072   8.664  16.976  0.00  0.00    +0.220 A 
ATOM     10  N   UNL     1      -6.244   9.520  17.975  0.00  0.00    -0.205 NA
ATOM     11  C   UNL     1      -5.388  10.559  17.711  0.00  0.00    +0.164 A 
ATOM     12  C   UNL     1      -4.690  10.305  16.566  0.00  0.00    +0.125 A 
ATOM     13  O   UNL     1      -5.090   9.093  16.096  0.00  0.00    -0.443 OA
ATOM     14  C   UNL     1      -5.243  11.849  18.572  0.00  0.00    +0.250 A 
ATOM     15  N   UNL     1      -5.930  12.074  19.678  0.00  0.00    -0.203 NA
ATOM     16  C   UNL     1      -5.507  13.313  20.091  0.00  0.00    +0.164 A 
ATOM     17  C   UNL     1      -4.575  13.804  19.215  0.00  0.00    +0.125 A 
ATOM     18  O   UNL     1      -4.389  12.877  18.237  0.00  0.00    -0.442 OA
ATOM     19  C   UNL     1      -6.001  14.062  21.365  0.00  0.00    +0.249 A 
ATOM     20  N   UNL     1      -6.890  13.563  22.208  0.00  0.00    -0.210 NA
ATOM     21  C   UNL     1      -7.021  14.527  23.182  0.00  0.00    +0.109 A 
ATOM     22  C   UNL     1      -6.201  15.590  22.883  0.00  0.00    +0.118 A 
ATOM     23  O   UNL     1      -5.548  15.311  21.725  0.00  0.00    -0.442 OA
ATOM     24  C   UNL     1      -7.946  14.329  24.339  0.00  0.00    +0.113 C 
ATOM     25  C   UNL     1      -9.403  14.773  24.066  0.00  0.00    +0.051 C 
ATOM     26  C   UNL     1     -10.317  13.578  24.326  0.00  0.00    +0.161 C 
ATOM     27  O   UNL     1     -11.001  13.519  25.349  0.00  0.00    -0.292 OA
ATOM     28  C   UNL     1     -10.331  12.455  23.343  0.00  0.00    -0.023 C 
ATOM     29  C   UNL     1     -10.825  11.255  23.696  0.00  0.00    -0.078 C 
ATOM     30  C   UNL     1     -10.919  10.057  22.791  0.00  0.00    -0.008 C 
ATOM     31  C   UNL     1      -9.596   9.632  22.119  0.00  0.00    +0.069 C 
ATOM     32  C   UNL     1      -9.635   8.196  21.591  0.00  0.00    +0.071 C 
ATOM     33  C   UNL     1     -10.728   8.003  20.568  0.00  0.00    +0.310 C 
ATOM     34  O   UNL     1     -11.924   8.068  20.810  0.00  0.00    -0.251 OA
ATOM     35  O   UNL     1     -10.182   7.769  19.343  0.00  0.00    -0.461 OA
ATOM     36  C   UNL     1     -11.018   8.017  18.188  0.00  0.00    +0.110 C 
ATOM     37  H   UNL     1     -11.966   6.951  16.622  0.00  0.00    +0.036 HD
ATOM     38  H   UNL     1     -10.277   5.145  16.212  0.00  0.00    +0.060 HD
ATOM     39  H   UNL     1      -8.074   5.156  16.781  0.00  0.00    +0.033 HD
ATOM     40  H   UNL     1      -8.867   5.402  18.317  0.00  0.00    +0.033 HD
ATOM     41  H   UNL     1      -7.999   7.706  18.450  0.00  0.00    +0.057 HD
ATOM     42  H   UNL     1      -6.553   6.883  15.867  0.00  0.00    +0.067 HD
ATOM     43  H   UNL     1      -3.916  10.813  16.005  0.00  0.00    +0.105 HD
ATOM     44  H   UNL     1      -3.996  14.712  19.145  0.00  0.00    +0.105 HD
ATOM     45  H   UNL     1      -5.982  16.536  23.354  0.00  0.00    +0.105 HD
ATOM     46  H   UNL     1      -7.933  13.255  24.579  0.00  0.00    +0.067 HD
ATOM     47  H   UNL     1      -9.695  15.518  24.820  0.00  0.00    +0.041 HD
ATOM     48  H   UNL     1      -9.925  12.628  22.350  0.00  0.00    +0.065 HD
ATOM     49  H   UNL     1     -11.212  11.119  24.711  0.00  0.00    +0.057 HD
ATOM     50  H   UNL     1     -11.289   9.225  23.401  0.00  0.00    +0.033 HD
ATOM     51  H   UNL     1     -11.683  10.281  22.037  0.00  0.00    +0.033 HD
ATOM     52  H   UNL     1      -8.784   9.705  22.853  0.00  0.00    +0.060 HD
ATOM     53  H   UNL     1      -9.804   7.478  22.401  0.00  0.00    +0.040 HD
ATOM     54  H   UNL     1      -8.669   7.942  21.137  0.00  0.00    +0.040 HD
ATOM     55  H   UNL     1     -12.025   8.297  18.528  0.00  0.00    +0.074 HD
BRANCH   4  56
ATOM     56  C   UNL     1     -11.782   5.619  18.261  0.00  0.00    -0.057 C 
ATOM     57  H   UNL     1     -12.759   5.922  18.652  0.00  0.00    +0.023 HD
ATOM     58  H   UNL     1     -11.133   5.435  19.122  0.00  0.00    +0.023 HD
ATOM     59  H   UNL     1     -11.913   4.674  17.728  0.00  0.00    +0.023 HD
ENDBRANCH   4  56
BRANCH  25  60
ATOM     60  C   UNL     1      -9.709  15.412  22.712  0.00  0.00    -0.053 C 
ATOM     61  H   UNL     1      -8.874  15.272  22.020  0.00  0.00    +0.024 HD
ATOM     62  H   UNL     1     -10.609  15.007  22.242  0.00  0.00    +0.024 HD
ATOM     63  H   UNL     1      -9.869  16.489  22.817  0.00  0.00    +0.024 HD
ENDBRANCH  25  60
BRANCH  31  64
ATOM     64  O   UNL     1      -9.287  10.532  21.051  0.00  0.00    -0.391 OA
ATOM     65  H   UNL     1      -9.818  10.274  20.271  0.00  0.00    +0.210 HD
ENDBRANCH  31  64
BRANCH  24  66
ATOM     66  O   UNL     1      -7.483  15.037  25.513  0.00  0.00    -0.373 OA
BRANCH  66  67
ATOM     67  C   UNL     1      -8.384  16.066  25.919  0.00  0.00    +0.037 C 
ATOM     68  H   UNL     1      -9.422  15.721  25.856  0.00  0.00    +0.052 HD
ATOM     69  H   UNL     1      -8.164  16.334  26.958  0.00  0.00    +0.052 HD
ATOM     70  H   UNL     1      -8.245  16.959  25.293  0.00  0.00    +0.052 HD
ENDBRANCH  66  67
ENDBRANCH  24  66
BRANCH   5  71
ATOM     71  O   UNL     1      -9.650   6.911  15.403  0.00  0.00    -0.379 OA
BRANCH  71  72
ATOM     72  C   UNL     1     -10.582   6.793  14.339  0.00  0.00    +0.037 C 
ATOM     73  H   UNL     1     -11.061   5.811  14.364  0.00  0.00    +0.052 HD
ATOM     74  H   UNL     1     -10.032   6.884  13.397  0.00  0.00    +0.052 HD
ATOM     75  H   UNL     1     -11.337   7.581  14.367  0.00  0.00    +0.052 HD
ENDBRANCH  71  72
ENDBRANCH   5  71
ENDBRANCH   1  36
BRANCH   1  76
ATOM     76  C   UNL     1     -11.455  10.295  17.070  0.00  0.00    +0.064 C 
ATOM     77  H   UNL     1     -10.964  11.267  16.938  0.00  0.00    +0.060 HD
BRANCH  76  78
ATOM     78  C   UNL     1     -12.115   9.885  15.713  0.00  0.00    -0.017 C 
ATOM     79  H   UNL     1     -11.471   9.128  15.238  0.00  0.00    +0.032 HD
BRANCH  78  80
ATOM     80  C   UNL     1     -13.486   9.227  15.887  0.00  0.00    -0.060 C 
ATOM     81  H   UNL     1     -14.284   9.883  15.528  0.00  0.00    +0.023 HD
ATOM     82  H   UNL     1     -13.684   8.981  16.933  0.00  0.00    +0.023 HD
ATOM     83  H   UNL     1     -13.565   8.307  15.297  0.00  0.00    +0.023 HD
ENDBRANCH  78  80
BRANCH  78  84
ATOM     84  C   UNL     1     -12.174  11.134  14.791  0.00  0.00    -0.045 C 
ATOM     85  H   UNL     1     -12.691  10.877  13.864  0.00  0.00    +0.027 HD
ATOM     86  H   UNL     1     -12.813  11.884  15.272  0.00  0.00    +0.027 HD
BRANCH  84  87
ATOM     87  C   UNL     1     -10.834  11.828  14.511  0.00  0.00    -0.015 C 
ATOM     88  H   UNL     1     -10.209  11.641  15.394  0.00  0.00    +0.030 HD
ATOM     89  H   UNL     1     -10.339  11.347  13.660  0.00  0.00    +0.030 HD
BRANCH  87  90
ATOM     90  C   UNL     1     -10.913  13.356  14.301  0.00  0.00    +0.109 C 
ATOM     91  H   UNL     1      -9.891  13.736  14.267  0.00  0.00    +0.074 HD
BRANCH  90  92
ATOM     92  C   UNL     1     -11.654  14.053  15.483  0.00  0.00    +0.031 C 
ATOM     93  H   UNL     1     -12.591  13.503  15.642  0.00  0.00    +0.037 HD
BRANCH  92  94
ATOM     94  C   UNL     1     -12.052  15.502  15.145  0.00  0.00    -0.056 C 
ATOM     95  H   UNL     1     -12.556  15.565  14.176  0.00  0.00    +0.023 HD
ATOM     96  H   UNL     1     -11.186  16.169  15.116  0.00  0.00    +0.023 HD
ATOM     97  H   UNL     1     -12.753  15.892  15.890  0.00  0.00    +0.023 HD
ENDBRANCH  92  94
BRANCH  92  98
ATOM     98  C   UNL     1     -10.878  14.024  16.841  0.00  0.00    +0.115 C 
ATOM     99  H   UNL     1     -11.343  13.235  17.448  0.00  0.00    +0.074 HD
BRANCH  98 100
ATOM    100  C   UNL     1      -9.363  13.702  16.730  0.00  0.00    +0.013 C 
ATOM    101  H   UNL     1      -9.170  13.243  15.754  0.00  0.00    +0.038 HD
BRANCH 100 102
ATOM    102  C   UNL     1      -8.874  12.737  17.815  0.00  0.00    -0.056 C 
ATOM    103  H   UNL     1      -8.165  13.213  18.496  0.00  0.00    +0.024 HD
ATOM    104  H   UNL     1      -9.714  12.380  18.420  0.00  0.00    +0.024 HD
ATOM    105  H   UNL     1      -8.376  11.864  17.380  0.00  0.00    +0.024 HD
ENDBRANCH 100 102
BRANCH 100 106
ATOM    106  C   UNL     1      -8.531  14.973  16.809  0.00  0.00    -0.064 C 
ATOM    107  C   UNL     1      -7.192  14.965  16.903  0.00  0.00    -0.005 C 
ATOM    108  H   UNL     1      -9.084  15.905  16.761  0.00  0.00    +0.059 HD
ATOM    109  H   UNL     1      -6.680  14.003  16.909  0.00  0.00    +0.078 HD
BRANCH 107 110
ATOM    110  N   UNL     1      -6.350  16.064  16.980  0.00  0.00    -0.284 N 
ATOM    111  C   UNL     1      -5.481  16.487  15.973  0.00  0.00    +0.206 C 
ATOM    112  O   UNL     1      -5.296  16.009  14.862  0.00  0.00    -0.279 OA
ATOM    113  H   UNL     1      -4.923  17.388  16.272  0.00  0.00    +0.126 HD
BRANCH 110 114
ATOM    114  C   UNL     1      -6.421  16.856  18.204  0.00  0.00    +0.007 C 
ATOM    115  H   UNL     1      -7.082  17.720  18.092  0.00  0.00    +0.043 HD
ATOM    116  H   UNL     1      -6.809  16.225  19.010  0.00  0.00    +0.043 HD
ATOM    117  H   UNL     1      -5.422  17.209  18.469  0.00  0.00    +0.043 HD
ENDBRANCH 110 114
ENDBRANCH 107 110
ENDBRANCH 100 106
ENDBRANCH  98 100
BRANCH  98 118
ATOM    118  O   UNL     1     -11.008  15.310  17.490  0.00  0.00    -0.461 OA
BRANCH 118 119
ATOM    119  C   UNL     1     -11.576  15.311  18.727  0.00  0.00    +0.304 C 
ATOM    120  O   UNL     1     -11.188  14.674  19.698  0.00  0.00    -0.251 OA
BRANCH 119 121
ATOM    121  C   UNL     1     -12.791  16.185  18.740  0.00  0.00    +0.033 C 
ATOM    122  H   UNL     1     -13.461  15.879  19.547  0.00  0.00    +0.034 HD
ATOM    123  H   UNL     1     -12.489  17.222  18.908  0.00  0.00    +0.034 HD
ATOM    124  H   UNL     1     -13.300  16.133  17.773  0.00  0.00    +0.034 HD
ENDBRANCH 119 121
ENDBRANCH 118 119
ENDBRANCH  98 118
ENDBRANCH  92  98
ENDBRANCH  90  92
BRANCH  90 125
ATOM    125  O   UNL     1     -11.607  13.629  13.065  0.00  0.00    -0.459 OA
BRANCH 125 126
ATOM    126  C   UNL     1     -10.841  13.970  11.982  0.00  0.00    +0.339 C 
ATOM    127  O   UNL     1      -9.967  14.828  11.981  0.00  0.00    -0.248 OA
BRANCH 126 128
ATOM    128  C   UNL     1     -11.176  13.057  10.794  0.00  0.00    +0.178 C 
ATOM    129  H   UNL     1     -10.526  12.173  10.862  0.00  0.00    +0.074 HD
BRANCH 128 130
ATOM    130  C   UNL     1     -12.631  12.588  10.941  0.00  0.00    +0.084 C 
ATOM    131  H   UNL     1     -13.183  12.854  10.034  0.00  0.00    +0.059 HD
ATOM    132  H   UNL     1     -13.121  13.103  11.776  0.00  0.00    +0.059 HD
BRANCH 130 133
ATOM    133  O   UNL     1     -12.813  11.178  11.115  0.00  0.00    -0.380 OA
BRANCH 133 134
ATOM    134  C   UNL     1     -11.598  10.439  11.153  0.00  0.00    +0.037 C 
ATOM    135  H   UNL     1     -11.676   9.517  10.572  0.00  0.00    +0.052 HD
ATOM    136  H   UNL     1     -10.810  11.058  10.712  0.00  0.00    +0.052 HD
ATOM    137  H   UNL     1     -11.308  10.226  12.186  0.00  0.00    +0.052 HD
ENDBRANCH 133 134
ENDBRANCH 130 133
ENDBRANCH 128 130
BRANCH 128 138
ATOM    138  O   UNL     1     -11.002  13.603   9.484  0.00  0.00    -0.366 OA
BRANCH 138 139
ATOM    139  C   UNL     1     -10.737  12.615   8.499  0.00  0.00    +0.038 C 
ATOM    140  H   UNL     1     -10.895  13.066   7.518  0.00  0.00    +0.052 HD
ATOM    141  H   UNL     1      -9.699  12.277   8.561  0.00  0.00    +0.052 HD
ATOM    142  H   UNL     1     -11.414  11.761   8.597  0.00  0.00    +0.052 HD
ENDBRANCH 138 139
ENDBRANCH 128 138
ENDBRANCH 126 128
ENDBRANCH 125 126
ENDBRANCH  90 125
ENDBRANCH  87  90
ENDBRANCH  84  87
ENDBRANCH  78  84
ENDBRANCH  76  78
BRANCH  76 143
ATOM    143  O   UNL     1     -12.418  10.371  18.130  0.00  0.00    -0.379 OA
BRANCH 143 144
ATOM    144  C   UNL     1     -12.086  11.357  19.101  0.00  0.00    +0.037 C 
ATOM    145  H   UNL     1     -12.107  10.885  20.087  0.00  0.00    +0.052 HD
ATOM    146  H   UNL     1     -12.804  12.178  19.085  0.00  0.00    +0.052 HD
ATOM    147  H   UNL     1     -11.076  11.737  18.918  0.00  0.00    +0.052 HD
ENDBRANCH 143 144
ENDBRANCH  76 143
ENDBRANCH   1  76
TORSDOF 35
ENDMDL
MODEL 3
REMARK VINA RESULT:      -4.8     11.917     19.294
REMARK  Name = Mycalolide B_conf2
REMARK  35 active torsions:
REMARK  status: ('A' for Active; 'I' for Inactive)
REMARK    1  A    between atoms: C_1  and  C_2
REMARK    2  A    between atoms: C_3  and  O_72
REMARK    3  A    between atoms: C_22  and  O_70
REMARK    4  A    between atoms: C_23  and  C_69
REMARK    5  A    between atoms: C_29  and  O_68
REMARK    6  A    between atoms: C_34  and  C_35
REMARK    7  A    between atoms: C_35  and  C_36
REMARK    8  A    between atoms: C_36  and  C_37
REMARK    9  A    between atoms: C_36  and  O_66
REMARK   10  A    between atoms: C_37  and  C_38
REMARK   11  A    between atoms: C_37  and  C_39
REMARK   12  A    between atoms: C_39  and  C_40
REMARK   13  A    between atoms: C_40  and  C_41
REMARK   14  A    between atoms: C_41  and  C_42
REMARK   15  A    between atoms: C_41  and  O_57
REMARK   16  A    between atoms: C_42  and  C_43
REMARK   17  A    between atoms: C_42  and  C_44
REMARK   18  A    between atoms: C_44  and  C_45
REMARK   19  A    between atoms: C_44  and  O_53
REMARK   20  A    between atoms: C_45  and  C_46
REMARK   21  A    between atoms: C_45  and  C_47
REMARK   22  A    between atoms: C_48  and  N_49
REMARK   23  A    between atoms: N_49  and  C_50
REMARK   24  A    between atoms: O_53  and  C_54
REMARK   25  A    between atoms: C_54  and  C_56
REMARK   26  A    between atoms: O_57  and  C_58
REMARK   27  A    between atoms: C_58  and  C_60
REMARK   28  A    between atoms: C_60  and  C_61
REMARK   29  A    between atoms: C_60  and  O_64
REMARK   30  A    between atoms: C_61  and  O_62
REMARK   31  A    between atoms: O_62  and  C_63
REMARK   32  A    between atoms: O_64  and  C_65
REMARK   33  A    between atoms: O_66  and  C_67
REMARK   34  A    between atoms: O_70  and  C_71
REMARK   35  A    between atoms: O_72  and  C_73
REMARK                            x       y       z     vdW  Elec       q    Type
REMARK                         _______ _______ _______ _____ _____    ______ ____
ROOT
ATOM      1  C   UNL     1      -9.035   6.180  15.043  0.00  0.00    +0.011 C 
ATOM      2  H   UNL     1      -8.878   5.482  14.214  0.00  0.00    +0.033 HD
ATOM      3  H   UNL     1      -8.909   7.173  14.612  0.00  0.00    +0.033 HD
ENDROOT
BRANCH   1  36
ATOM      4  C   UNL     1     -11.344   7.245  15.752  0.00  0.00    +0.020 C 
ATOM      5  C   UNL     1     -11.505   8.250  14.571  0.00  0.00    +0.068 C 
ATOM      6  C   UNL     1     -11.976   7.687  13.202  0.00  0.00    -0.008 C 
ATOM      7  C   UNL     1     -10.918   7.046  12.349  0.00  0.00    -0.077 C 
ATOM      8  C   UNL     1     -10.205   7.701  11.417  0.00  0.00    -0.003 C 
ATOM      9  C   UNL     1      -9.141   7.057  10.728  0.00  0.00    +0.220 A 
ATOM     10  N   UNL     1      -8.756   5.795  10.865  0.00  0.00    -0.205 NA
ATOM     11  C   UNL     1      -7.653   5.666  10.058  0.00  0.00    +0.164 A 
ATOM     12  C   UNL     1      -7.402   6.848   9.423  0.00  0.00    +0.125 A 
ATOM     13  O   UNL     1      -8.352   7.739   9.815  0.00  0.00    -0.443 OA
ATOM     14  C   UNL     1      -6.798   4.373   9.899  0.00  0.00    +0.250 A 
ATOM     15  N   UNL     1      -7.060   3.239  10.524  0.00  0.00    -0.203 NA
ATOM     16  C   UNL     1      -6.062   2.391  10.114  0.00  0.00    +0.164 A 
ATOM     17  C   UNL     1      -5.219   3.043   9.253  0.00  0.00    +0.125 A 
ATOM     18  O   UNL     1      -5.679   4.314   9.099  0.00  0.00    -0.442 OA
ATOM     19  C   UNL     1      -5.898   0.904  10.552  0.00  0.00    +0.249 A 
ATOM     20  N   UNL     1      -6.733   0.287  11.372  0.00  0.00    -0.210 NA
ATOM     21  C   UNL     1      -6.236  -0.993  11.472  0.00  0.00    +0.109 A 
ATOM     22  C   UNL     1      -5.100  -1.101  10.705  0.00  0.00    +0.118 A 
ATOM     23  O   UNL     1      -4.869   0.102  10.115  0.00  0.00    -0.442 OA
ATOM     24  C   UNL     1      -6.918  -2.018  12.318  0.00  0.00    +0.113 C 
ATOM     25  C   UNL     1      -6.479  -2.007  13.803  0.00  0.00    +0.051 C 
ATOM     26  C   UNL     1      -7.726  -1.815  14.662  0.00  0.00    +0.161 C 
ATOM     27  O   UNL     1      -8.216  -2.762  15.280  0.00  0.00    -0.292 OA
ATOM     28  C   UNL     1      -8.373  -0.471  14.703  0.00  0.00    -0.023 C 
ATOM     29  C   UNL     1      -9.639  -0.344  15.138  0.00  0.00    -0.078 C 
ATOM     30  C   UNL     1     -10.391   0.955  15.251  0.00  0.00    -0.008 C 
ATOM     31  C   UNL     1     -10.449   1.798  13.959  0.00  0.00    +0.069 C 
ATOM     32  C   UNL     1     -11.564   2.846  13.987  0.00  0.00    +0.071 C 
ATOM     33  C   UNL     1     -11.397   3.813  15.133  0.00  0.00    +0.310 C 
ATOM     34  O   UNL     1     -11.493   3.513  16.315  0.00  0.00    -0.251 OA
ATOM     35  O   UNL     1     -11.104   5.054  14.657  0.00  0.00    -0.461 OA
ATOM     36  C   UNL     1     -10.467   5.980  15.569  0.00  0.00    +0.110 C 
ATOM     37  H   UNL     1     -10.882   7.795  16.579  0.00  0.00    +0.036 HD
ATOM     38  H   UNL     1     -12.293   8.958  14.864  0.00  0.00    +0.060 HD
ATOM     39  H   UNL     1     -12.391   8.529  12.632  0.00  0.00    +0.033 HD
ATOM     40  H   UNL     1     -12.809   6.987  13.336  0.00  0.00    +0.033 HD
ATOM     41  H   UNL     1     -10.699   5.996  12.531  0.00  0.00    +0.057 HD
ATOM     42  H   UNL     1     -10.369   8.755  11.222  0.00  0.00    +0.067 HD
ATOM     43  H   UNL     1      -6.676   7.197   8.701  0.00  0.00    +0.105 HD
ATOM     44  H   UNL     1      -4.328   2.775   8.706  0.00  0.00    +0.105 HD
ATOM     45  H   UNL     1      -4.403  -1.896  10.485  0.00  0.00    +0.105 HD
ATOM     46  H   UNL     1      -7.999  -1.814  12.259  0.00  0.00    +0.067 HD
ATOM     47  H   UNL     1      -6.105  -3.005  14.070  0.00  0.00    +0.041 HD
ATOM     48  H   UNL     1      -7.804   0.390  14.363  0.00  0.00    +0.065 HD
ATOM     49  H   UNL     1     -10.182  -1.239  15.458  0.00  0.00    +0.057 HD
ATOM     50  H   UNL     1     -11.412   0.706  15.558  0.00  0.00    +0.033 HD
ATOM     51  H   UNL     1      -9.929   1.525  16.065  0.00  0.00    +0.033 HD
ATOM     52  H   UNL     1     -10.627   1.131  13.106  0.00  0.00    +0.060 HD
ATOM     53  H   UNL     1     -12.549   2.378  14.084  0.00  0.00    +0.040 HD
ATOM     54  H   UNL     1     -11.569   3.406  13.043  0.00  0.00    +0.040 HD
ATOM     55  H   UNL     1     -10.394   5.513  16.562  0.00  0.00    +0.074 HD
BRANCH   4  56
ATOM     56  C   UNL     1     -12.737   6.824  16.254  0.00  0.00    -0.057 C 
ATOM     57  H   UNL     1     -13.519   7.433  15.787  0.00  0.00    +0.023 HD
ATOM     58  H   UNL     1     -12.818   6.971  17.336  0.00  0.00    +0.023 HD
ATOM     59  H   UNL     1     -12.956   5.775  16.039  0.00  0.00    +0.023 HD
ENDBRANCH   4  56
BRANCH  25  60
ATOM     60  C   UNL     1      -5.377  -1.029  14.209  0.00  0.00    -0.053 C 
ATOM     61  H   UNL     1      -4.620  -1.530  14.818  0.00  0.00    +0.024 HD
ATOM     62  H   UNL     1      -4.874  -0.571  13.353  0.00  0.00    +0.024 HD
ATOM     63  H   UNL     1      -5.786  -0.208  14.807  0.00  0.00    +0.024 HD
ENDBRANCH  25  60
BRANCH  31  64
ATOM     64  O   UNL     1      -9.188   2.437  13.743  0.00  0.00    -0.391 OA
ATOM     65  H   UNL     1      -8.620   2.263  14.520  0.00  0.00    +0.210 HD
ENDBRANCH  31  64
BRANCH  24  66
ATOM     66  O   UNL     1      -6.704  -3.354  11.806  0.00  0.00    -0.373 OA
BRANCH  66  67
ATOM     67  C   UNL     1      -7.921  -4.083  11.663  0.00  0.00    +0.037 C 
ATOM     68  H   UNL     1      -7.967  -4.910  12.381  0.00  0.00    +0.052 HD
ATOM     69  H   UNL     1      -8.761  -3.405  11.853  0.00  0.00    +0.052 HD
ATOM     70  H   UNL     1      -8.012  -4.469  10.638  0.00  0.00    +0.052 HD
ENDBRANCH  66  67
ENDBRANCH  24  66
BRANCH   5  71
ATOM     71  O   UNL     1     -10.322   9.033  14.341  0.00  0.00    -0.379 OA
BRANCH  71  72
ATOM     72  C   UNL     1      -9.944   9.866  15.426  0.00  0.00    +0.037 C 
ATOM     73  H   UNL     1     -10.650   9.752  16.253  0.00  0.00    +0.052 HD
ATOM     74  H   UNL     1      -9.981  10.905  15.083  0.00  0.00    +0.052 HD
ATOM     75  H   UNL     1      -8.928   9.658  15.767  0.00  0.00    +0.052 HD
ENDBRANCH  71  72
ENDBRANCH   5  71
ENDBRANCH   1  36
BRANCH   1  76
ATOM     76  C   UNL     1      -7.951   5.964  16.116  0.00  0.00    +0.064 C 
ATOM     77  H   UNL     1      -6.966   5.899  15.637  0.00  0.00    +0.060 HD
BRANCH  76  78
ATOM     78  C   UNL     1      -7.942   7.177  17.103  0.00  0.00    -0.017 C 
ATOM     79  H   UNL     1      -8.616   7.948  16.698  0.00  0.00    +0.032 HD
BRANCH  78  80
ATOM     80  C   UNL     1      -8.485   6.826  18.490  0.00  0.00    -0.060 C 
ATOM     81  H   UNL     1      -8.784   5.774  18.540  0.00  0.00    +0.023 HD
ATOM     82  H   UNL     1      -9.347   7.444  18.753  0.00  0.00    +0.023 HD
ATOM     83  H   UNL     1      -7.720   6.958  19.263  0.00  0.00    +0.023 HD
ENDBRANCH  78  80
BRANCH  78  84
ATOM     84  C   UNL     1      -6.503   7.759  17.164  0.00  0.00    -0.045 C 
ATOM     85  H   UNL     1      -5.789   6.946  17.321  0.00  0.00    +0.027 HD
ATOM     86  H   UNL     1      -6.256   8.162  16.174  0.00  0.00    +0.027 HD
BRANCH  84  87
ATOM     87  C   UNL     1      -6.280   8.902  18.161  0.00  0.00    -0.015 C 
ATOM     88  H   UNL     1      -6.621   8.522  19.134  0.00  0.00    +0.030 HD
ATOM     89  H   UNL     1      -5.208   9.108  18.256  0.00  0.00    +0.030 HD
BRANCH  87  90
ATOM     90  C   UNL     1      -7.058  10.202  17.861  0.00  0.00    +0.109 C 
ATOM     91  H   UNL     1      -7.821   9.964  17.118  0.00  0.00    +0.074 HD
BRANCH  90  92
ATOM     92  C   UNL     1      -6.124  11.299  17.267  0.00  0.00    +0.031 C 
ATOM     93  H   UNL     1      -6.604  11.666  16.350  0.00  0.00    +0.037 HD
BRANCH  92  94
ATOM     94  C   UNL     1      -4.756  10.731  16.845  0.00  0.00    -0.056 C 
ATOM     95  H   UNL     1      -4.782  10.336  15.825  0.00  0.00    +0.023 HD
ATOM     96  H   UNL     1      -4.423   9.928  17.508  0.00  0.00    +0.023 HD
ATOM     97  H   UNL     1      -3.993  11.517  16.858  0.00  0.00    +0.023 HD
ENDBRANCH  92  94
BRANCH  92  98
ATOM     98  C   UNL     1      -5.914  12.542  18.194  0.00  0.00    +0.115 C 
ATOM     99  H   UNL     1      -6.760  12.553  18.895  0.00  0.00    +0.074 HD
BRANCH  98 100
ATOM    100  C   UNL     1      -4.607  12.529  19.032  0.00  0.00    +0.013 C 
ATOM    101  H   UNL     1      -4.026  11.639  18.766  0.00  0.00    +0.038 HD
BRANCH 100 102
ATOM    102  C   UNL     1      -4.863  12.497  20.542  0.00  0.00    -0.056 C 
ATOM    103  H   UNL     1      -5.832  12.055  20.783  0.00  0.00    +0.024 HD
ATOM    104  H   UNL     1      -4.098  11.901  21.050  0.00  0.00    +0.024 HD
ATOM    105  H   UNL     1      -4.846  13.505  20.973  0.00  0.00    +0.024 HD
ENDBRANCH 100 102
BRANCH 100 106
ATOM    106  C   UNL     1      -3.749  13.745  18.718  0.00  0.00    -0.064 C 
ATOM    107  C   UNL     1      -3.291  14.580  19.663  0.00  0.00    -0.005 C 
ATOM    108  H   UNL     1      -3.501  13.892  17.671  0.00  0.00    +0.059 HD
ATOM    109  H   UNL     1      -3.536  14.367  20.704  0.00  0.00    +0.078 HD
BRANCH 107 110
ATOM    110  N   UNL     1      -2.507  15.709  19.477  0.00  0.00    -0.284 N 
ATOM    111  C   UNL     1      -1.159  15.819  19.821  0.00  0.00    +0.206 C 
ATOM    112  O   UNL     1      -0.418  14.984  20.322  0.00  0.00    -0.279 OA
ATOM    113  H   UNL     1      -0.756  16.814  19.569  0.00  0.00    +0.126 HD
BRANCH 110 114
ATOM    114  C   UNL     1      -3.148  16.849  18.831  0.00  0.00    +0.007 C 
ATOM    115  H   UNL     1      -3.119  17.743  19.461  0.00  0.00    +0.043 HD
ATOM    116  H   UNL     1      -2.621  17.066  17.896  0.00  0.00    +0.043 HD
ATOM    117  H   UNL     1      -4.190  16.607  18.613  0.00  0.00    +0.043 HD
ENDBRANCH 110 114
ENDBRANCH 107 110
ENDBRANCH 100 106
ENDBRANCH  98 100
BRANCH  98 118
ATOM    118  O   UNL     1      -5.907  13.742  17.385  0.00  0.00    -0.461 OA
BRANCH 118 119
ATOM    119  C   UNL     1      -7.045  14.488  17.395  0.00  0.00    +0.304 C 
ATOM    120  O   UNL     1      -7.719  14.786  16.418  0.00  0.00    -0.251 OA
BRANCH 119 121
ATOM    121  C   UNL     1      -7.355  14.944  18.787  0.00  0.00    +0.033 C 
ATOM    122  H   UNL     1      -7.909  14.167  19.319  0.00  0.00    +0.034 HD
ATOM    123  H   UNL     1      -6.421  15.137  19.320  0.00  0.00    +0.034 HD
ATOM    124  H   UNL     1      -7.926  15.877  18.756  0.00  0.00    +0.034 HD
ENDBRANCH 119 121
ENDBRANCH 118 119
ENDBRANCH  98 118
ENDBRANCH  92  98
ENDBRANCH  90  92
BRANCH  90 125
ATOM    125  O   UNL     1      -7.660  10.686  19.081  0.00  0.00    -0.459 OA
BRANCH 125 126
ATOM    126  C   UNL     1      -8.986  11.025  19.031  0.00  0.00    +0.339 C 
ATOM    127  O   UNL     1      -9.426  12.075  18.579  0.00  0.00    -0.248 OA
BRANCH 126 128
ATOM    128  C   UNL     1      -9.846   9.860  19.540  0.00  0.00    +0.178 C 
ATOM    129  H   UNL     1      -9.190   8.984  19.642  0.00  0.00    +0.074 HD
BRANCH 128 130
ATOM    130  C   UNL     1     -10.372  10.223  20.936  0.00  0.00    +0.084 C 
ATOM    131  H   UNL     1     -11.382   9.815  21.052  0.00  0.00    +0.059 HD
ATOM    132  H   UNL     1     -10.452  11.310  21.049  0.00  0.00    +0.059 HD
BRANCH 130 133
ATOM    133  O   UNL     1      -9.612   9.712  22.037  0.00  0.00    -0.380 OA
BRANCH 133 134
ATOM    134  C   UNL     1      -9.190   8.364  21.872  0.00  0.00    +0.037 C 
ATOM    135  H   UNL     1      -8.265   8.305  21.292  0.00  0.00    +0.052 HD
ATOM    136  H   UNL     1      -9.002   7.942  22.864  0.00  0.00    +0.052 HD
ATOM    137  H   UNL     1      -9.979   7.767  21.405  0.00  0.00    +0.052 HD
ENDBRANCH 133 134
ENDBRANCH 130 133
ENDBRANCH 128 130
BRANCH 128 138
ATOM    138  O   UNL     1     -10.951   9.461  18.725  0.00  0.00    -0.366 OA
BRANCH 138 139
ATOM    139  C   UNL     1     -11.917   8.695  19.431  0.00  0.00    +0.038 C 
ATOM    140  H   UNL     1     -12.396   8.021  18.720  0.00  0.00    +0.052 HD
ATOM    141  H   UNL     1     -11.439   8.095  20.209  0.00  0.00    +0.052 HD
ATOM    142  H   UNL     1     -12.688   9.334  19.871  0.00  0.00    +0.052 HD
ENDBRANCH 138 139
ENDBRANCH 128 138
ENDBRANCH 126 128
ENDBRANCH 125 126
ENDBRANCH  90 125
ENDBRANCH  87  90
ENDBRANCH  84  87
ENDBRANCH  78  84
ENDBRANCH  76  78
BRANCH  76 143
ATOM    143  O   UNL     1      -8.254   4.732  16.786  0.00  0.00    -0.379 OA
BRANCH 143 144
ATOM    144  C   UNL     1      -7.514   3.632  16.270  0.00  0.00    +0.037 C 
ATOM    145  H   UNL     1      -8.110   3.161  15.483  0.00  0.00    +0.052 HD
ATOM    146  H   UNL     1      -7.312   2.897  17.050  0.00  0.00    +0.052 HD
ATOM    147  H   UNL     1      -6.575   3.985  15.832  0.00  0.00    +0.052 HD
ENDBRANCH 143 144
ENDBRANCH  76 143
ENDBRANCH   1  76
TORSDOF 35
ENDMDL
MODEL 4
REMARK VINA RESULT:      -4.8     12.240     19.920
REMARK  Name = Mycalolide B_conf2
REMARK  35 active torsions:
REMARK  status: ('A' for Active; 'I' for Inactive)
REMARK    1  A    between atoms: C_1  and  C_2
REMARK    2  A    between atoms: C_3  and  O_72
REMARK    3  A    between atoms: C_22  and  O_70
REMARK    4  A    between atoms: C_23  and  C_69
REMARK    5  A    between atoms: C_29  and  O_68
REMARK    6  A    between atoms: C_34  and  C_35
REMARK    7  A    between atoms: C_35  and  C_36
REMARK    8  A    between atoms: C_36  and  C_37
REMARK    9  A    between atoms: C_36  and  O_66
REMARK   10  A    between atoms: C_37  and  C_38
REMARK   11  A    between atoms: C_37  and  C_39
REMARK   12  A    between atoms: C_39  and  C_40
REMARK   13  A    between atoms: C_40  and  C_41
REMARK   14  A    between atoms: C_41  and  C_42
REMARK   15  A    between atoms: C_41  and  O_57
REMARK   16  A    between atoms: C_42  and  C_43
REMARK   17  A    between atoms: C_42  and  C_44
REMARK   18  A    between atoms: C_44  and  C_45
REMARK   19  A    between atoms: C_44  and  O_53
REMARK   20  A    between atoms: C_45  and  C_46
REMARK   21  A    between atoms: C_45  and  C_47
REMARK   22  A    between atoms: C_48  and  N_49
REMARK   23  A    between atoms: N_49  and  C_50
REMARK   24  A    between atoms: O_53  and  C_54
REMARK   25  A    between atoms: C_54  and  C_56
REMARK   26  A    between atoms: O_57  and  C_58
REMARK   27  A    between atoms: C_58  and  C_60
REMARK   28  A    between atoms: C_60  and  C_61
REMARK   29  A    between atoms: C_60  and  O_64
REMARK   30  A    between atoms: C_61  and  O_62
REMARK   31  A    between atoms: O_62  and  C_63
REMARK   32  A    between atoms: O_64  and  C_65
REMARK   33  A    between atoms: O_66  and  C_67
REMARK   34  A    between atoms: O_70  and  C_71
REMARK   35  A    between atoms: O_72  and  C_73
REMARK                            x       y       z     vdW  Elec       q    Type
REMARK                         _______ _______ _______ _____ _____    ______ ____
ROOT
ATOM      1  C   UNL     1      -9.343   6.445  14.921  0.00  0.00    +0.011 C 
ATOM      2  H   UNL     1      -9.202   5.811  14.040  0.00  0.00    +0.033 HD
ATOM      3  H   UNL     1      -9.253   7.468  14.557  0.00  0.00    +0.033 HD
ENDROOT
BRANCH   1  36
ATOM      4  C   UNL     1     -11.698   7.391  15.648  0.00  0.00    +0.020 C 
ATOM      5  C   UNL     1     -11.940   8.351  14.443  0.00  0.00    +0.068 C 
ATOM      6  C   UNL     1     -12.402   7.723  13.101  0.00  0.00    -0.008 C 
ATOM      7  C   UNL     1     -11.325   7.121  12.243  0.00  0.00    -0.077 C 
ATOM      8  C   UNL     1     -10.669   7.790  11.279  0.00  0.00    -0.003 C 
ATOM      9  C   UNL     1      -9.583   7.190  10.587  0.00  0.00    +0.220 A 
ATOM     10  N   UNL     1      -9.120   5.958  10.750  0.00  0.00    -0.205 NA
ATOM     11  C   UNL     1      -8.027   5.871   9.924  0.00  0.00    +0.164 A 
ATOM     12  C   UNL     1      -7.859   7.047   9.253  0.00  0.00    +0.125 A 
ATOM     13  O   UNL     1      -8.853   7.892   9.640  0.00  0.00    -0.443 OA
ATOM     14  C   UNL     1      -7.100   4.627   9.784  0.00  0.00    +0.250 A 
ATOM     15  N   UNL     1      -7.282   3.497  10.445  0.00  0.00    -0.203 NA
ATOM     16  C   UNL     1      -6.243   2.698  10.037  0.00  0.00    +0.164 A 
ATOM     17  C   UNL     1      -5.457   3.374   9.141  0.00  0.00    +0.125 A 
ATOM     18  O   UNL     1      -5.995   4.611   8.962  0.00  0.00    -0.442 OA
ATOM     19  C   UNL     1      -5.983   1.237  10.513  0.00  0.00    +0.249 A 
ATOM     20  N   UNL     1      -6.764   0.596  11.366  0.00  0.00    -0.210 NA
ATOM     21  C   UNL     1      -6.189  -0.649  11.491  0.00  0.00    +0.109 A 
ATOM     22  C   UNL     1      -5.064  -0.712  10.704  0.00  0.00    +0.118 A 
ATOM     23  O   UNL     1      -4.916   0.485  10.077  0.00  0.00    -0.442 OA
ATOM     24  C   UNL     1      -6.794  -1.688  12.379  0.00  0.00    +0.113 C 
ATOM     25  C   UNL     1      -6.328  -1.609  13.853  0.00  0.00    +0.051 C 
ATOM     26  C   UNL     1      -7.567  -1.467  14.732  0.00  0.00    +0.161 C 
ATOM     27  O   UNL     1      -7.988  -2.423  15.386  0.00  0.00    -0.292 OA
ATOM     28  C   UNL     1      -8.293  -0.163  14.749  0.00  0.00    -0.023 C 
ATOM     29  C   UNL     1      -9.556  -0.098  15.207  0.00  0.00    -0.078 C 
ATOM     30  C   UNL     1     -10.381   1.157  15.299  0.00  0.00    -0.008 C 
ATOM     31  C   UNL     1     -10.514   1.957  13.987  0.00  0.00    +0.069 C 
ATOM     32  C   UNL     1     -11.688   2.939  14.009  0.00  0.00    +0.071 C 
ATOM     33  C   UNL     1     -11.557   3.946  15.125  0.00  0.00    +0.310 C 
ATOM     34  O   UNL     1     -11.614   3.674  16.316  0.00  0.00    -0.251 OA
ATOM     35  O   UNL     1     -11.348   5.188  14.609  0.00  0.00    -0.461 OA
ATOM     36  C   UNL     1     -10.750   6.176  15.482  0.00  0.00    +0.110 C 
ATOM     37  H   UNL     1     -11.253   7.991  16.450  0.00  0.00    +0.036 HD
ATOM     38  H   UNL     1     -12.764   9.020  14.733  0.00  0.00    +0.060 HD
ATOM     39  H   UNL     1     -12.878   8.522  12.516  0.00  0.00    +0.033 HD
ATOM     40  H   UNL     1     -13.189   6.978  13.271  0.00  0.00    +0.033 HD
ATOM     41  H   UNL     1     -11.040   6.091  12.450  0.00  0.00    +0.057 HD
ATOM     42  H   UNL     1     -10.900   8.826  11.059  0.00  0.00    +0.067 HD
ATOM     43  H   UNL     1      -7.169   7.418   8.506  0.00  0.00    +0.105 HD
ATOM     44  H   UNL     1      -4.562   3.144   8.584  0.00  0.00    +0.105 HD
ATOM     45  H   UNL     1      -4.325  -1.470  10.492  0.00  0.00    +0.105 HD
ATOM     46  H   UNL     1      -7.885  -1.551  12.336  0.00  0.00    +0.067 HD
ATOM     47  H   UNL     1      -5.890  -2.575  14.140  0.00  0.00    +0.041 HD
ATOM     48  H   UNL     1      -7.782   0.721  14.375  0.00  0.00    +0.065 HD
ATOM     49  H   UNL     1     -10.038  -1.014  15.563  0.00  0.00    +0.057 HD
ATOM     50  H   UNL     1     -11.380   0.857  15.634  0.00  0.00    +0.033 HD
ATOM     51  H   UNL     1      -9.938   1.776  16.089  0.00  0.00    +0.033 HD
ATOM     52  H   UNL     1     -10.668   1.257  13.156  0.00  0.00    +0.060 HD
ATOM     53  H   UNL     1     -12.641   2.416  14.139  0.00  0.00    +0.040 HD
ATOM     54  H   UNL     1     -11.744   3.470  13.051  0.00  0.00    +0.040 HD
ATOM     55  H   UNL     1     -10.631   5.742  16.485  0.00  0.00    +0.074 HD
BRANCH   4  56
ATOM     56  C   UNL     1     -13.053   6.903  16.191  0.00  0.00    -0.057 C 
ATOM     57  H   UNL     1     -13.281   7.378  17.151  0.00  0.00    +0.023 HD
ATOM     58  H   UNL     1     -13.035   5.823  16.362  0.00  0.00    +0.023 HD
ATOM     59  H   UNL     1     -13.876   7.122  15.505  0.00  0.00    +0.023 HD
ENDBRANCH   4  56
BRANCH  25  60
ATOM     60  C   UNL     1      -5.279  -0.557  14.210  0.00  0.00    -0.053 C 
ATOM     61  H   UNL     1      -5.543   0.415  13.782  0.00  0.00    +0.024 HD
ATOM     62  H   UNL     1      -5.152  -0.428  15.288  0.00  0.00    +0.024 HD
ATOM     63  H   UNL     1      -4.298  -0.833  13.811  0.00  0.00    +0.024 HD
ENDBRANCH  25  60
BRANCH  31  64
ATOM     64  O   UNL     1      -9.298   2.664  13.727  0.00  0.00    -0.391 OA
ATOM     65  H   UNL     1      -9.287   2.916  12.782  0.00  0.00    +0.210 HD
ENDBRANCH  31  64
BRANCH  24  66
ATOM     66  O   UNL     1      -6.510  -3.023  11.899  0.00  0.00    -0.373 OA
BRANCH  66  67
ATOM     67  C   UNL     1      -5.650  -3.746  12.778  0.00  0.00    +0.037 C 
ATOM     68  H   UNL     1      -5.811  -3.442  13.818  0.00  0.00    +0.052 HD
ATOM     69  H   UNL     1      -5.872  -4.815  12.685  0.00  0.00    +0.052 HD
ATOM     70  H   UNL     1      -4.600  -3.584  12.497  0.00  0.00    +0.052 HD
ENDBRANCH  66  67
ENDBRANCH  24  66
BRANCH   5  71
ATOM     71  O   UNL     1     -10.810   9.195  14.168  0.00  0.00    -0.379 OA
BRANCH  71  72
ATOM     72  C   UNL     1     -10.960  10.540  14.595  0.00  0.00    +0.037 C 
ATOM     73  H   UNL     1     -11.034  11.205  13.731  0.00  0.00    +0.052 HD
ATOM     74  H   UNL     1     -10.066  10.815  15.165  0.00  0.00    +0.052 HD
ATOM     75  H   UNL     1     -11.828  10.670  15.245  0.00  0.00    +0.052 HD
ENDBRANCH  71  72
ENDBRANCH   5  71
ENDBRANCH   1  36
BRANCH   1  76
ATOM     76  C   UNL     1      -8.216   6.179  15.938  0.00  0.00    +0.064 C 
ATOM     77  H   UNL     1      -7.321   5.824  15.411  0.00  0.00    +0.060 HD
BRANCH  76  78
ATOM     78  C   UNL     1      -7.858   7.506  16.682  0.00  0.00    -0.017 C 
ATOM     79  H   UNL     1      -6.808   7.440  17.007  0.00  0.00    +0.032 HD
BRANCH  78  80
ATOM     80  C   UNL     1      -7.947   8.742  15.784  0.00  0.00    -0.060 C 
ATOM     81  H   UNL     1      -7.054   8.836  15.158  0.00  0.00    +0.023 HD
ATOM     82  H   UNL     1      -8.058   9.658  16.370  0.00  0.00    +0.023 HD
ATOM     83  H   UNL     1      -8.793   8.672  15.092  0.00  0.00    +0.023 HD
ENDBRANCH  78  80
BRANCH  78  84
ATOM     84  C   UNL     1      -8.760   7.628  17.942  0.00  0.00    -0.045 C 
ATOM     85  H   UNL     1      -9.499   6.824  17.939  0.00  0.00    +0.027 HD
ATOM     86  H   UNL     1      -8.140   7.436  18.826  0.00  0.00    +0.027 HD
BRANCH  84  87
ATOM     87  C   UNL     1      -9.420   8.995  18.169  0.00  0.00    -0.015 C 
ATOM     88  H   UNL     1      -8.771   9.727  17.669  0.00  0.00    +0.030 HD
ATOM     89  H   UNL     1     -10.390   9.026  17.661  0.00  0.00    +0.030 HD
BRANCH  87  90
ATOM     90  C   UNL     1      -9.565   9.421  19.646  0.00  0.00    +0.109 C 
ATOM     91  H   UNL     1     -10.629   9.563  19.844  0.00  0.00    +0.074 HD
BRANCH  90  92
ATOM     92  C   UNL     1      -8.833  10.769  19.922  0.00  0.00    +0.031 C 
ATOM     93  H   UNL     1      -8.117  10.584  20.735  0.00  0.00    +0.037 HD
BRANCH  92  94
ATOM     94  C   UNL     1      -9.795  11.859  20.430  0.00  0.00    -0.056 C 
ATOM     95  H   UNL     1     -10.602  11.434  21.034  0.00  0.00    +0.023 HD
ATOM     96  H   UNL     1     -10.249  12.420  19.609  0.00  0.00    +0.023 HD
ATOM     97  H   UNL     1      -9.265  12.571  21.072  0.00  0.00    +0.023 HD
ENDBRANCH  92  94
BRANCH  92  98
ATOM     98  C   UNL     1      -8.008  11.318  18.712  0.00  0.00    +0.115 C 
ATOM     99  H   UNL     1      -8.226  10.657  17.862  0.00  0.00    +0.074 HD
BRANCH  98 100
ATOM    100  C   UNL     1      -8.353  12.770  18.281  0.00  0.00    +0.013 C 
ATOM    101  H   UNL     1      -9.020  13.211  19.029  0.00  0.00    +0.038 HD
BRANCH 100 102
ATOM    102  C   UNL     1      -9.050  12.841  16.918  0.00  0.00    -0.056 C 
ATOM    103  H   UNL     1     -10.135  12.757  17.009  0.00  0.00    +0.024 HD
ATOM    104  H   UNL     1      -8.837  13.796  16.426  0.00  0.00    +0.024 HD
ATOM    105  H   UNL     1      -8.713  12.037  16.253  0.00  0.00    +0.024 HD
ENDBRANCH 100 102
BRANCH 100 106
ATOM    106  C   UNL     1      -7.100  13.631  18.223  0.00  0.00    -0.064 C 
ATOM    107  C   UNL     1      -6.723  14.298  17.122  0.00  0.00    -0.005 C 
ATOM    108  H   UNL     1      -6.528  13.697  19.142  0.00  0.00    +0.059 HD
ATOM    109  H   UNL     1      -7.353  14.230  16.234  0.00  0.00    +0.078 HD
BRANCH 107 110
ATOM    110  N   UNL     1      -5.604  15.104  16.970  0.00  0.00    -0.284 N 
ATOM    111  C   UNL     1      -5.134  15.612  15.759  0.00  0.00    +0.206 C 
ATOM    112  O   UNL     1      -5.591  15.471  14.633  0.00  0.00    -0.279 OA
ATOM    113  H   UNL     1      -4.233  16.230  15.901  0.00  0.00    +0.126 HD
BRANCH 110 114
ATOM    114  C   UNL     1      -4.898  15.476  18.192  0.00  0.00    +0.007 C 
ATOM    115  H   UNL     1      -5.226  16.447  18.573  0.00  0.00    +0.043 HD
ATOM    116  H   UNL     1      -5.095  14.719  18.958  0.00  0.00    +0.043 HD
ATOM    117  H   UNL     1      -3.825  15.521  17.994  0.00  0.00    +0.043 HD
ENDBRANCH 110 114
ENDBRANCH 107 110
ENDBRANCH 100 106
ENDBRANCH  98 100
BRANCH  98 118
ATOM    118  O   UNL     1      -6.600  11.279  19.039  0.00  0.00    -0.461 OA
BRANCH 118 119
ATOM    119  C   UNL     1      -5.905  10.193  18.605  0.00  0.00    +0.304 C 
ATOM    120  O   UNL     1      -5.873   9.095  19.146  0.00  0.00    -0.251 OA
BRANCH 119 121
ATOM    121  C   UNL     1      -5.132  10.531  17.368  0.00  0.00    +0.033 C 
ATOM    122  H   UNL     1      -5.615  10.088  16.494  0.00  0.00    +0.034 HD
ATOM    123  H   UNL     1      -5.106  11.616  17.244  0.00  0.00    +0.034 HD
ATOM    124  H   UNL     1      -4.101  10.176  17.463  0.00  0.00    +0.034 HD
ENDBRANCH 119 121
ENDBRANCH 118 119
ENDBRANCH  98 118
ENDBRANCH  92  98
ENDBRANCH  90  92
BRANCH  90 125
ATOM    125  O   UNL     1      -9.016   8.389  20.493  0.00  0.00    -0.459 OA
BRANCH 125 126
ATOM    126  C   UNL     1      -9.535   8.276  21.755  0.00  0.00    +0.339 C 
ATOM    127  O   UNL     1      -8.873   8.209  22.784  0.00  0.00    -0.248 OA
BRANCH 126 128
ATOM    128  C   UNL     1     -11.068   8.337  21.700  0.00  0.00    +0.178 C 
ATOM    129  H   UNL     1     -11.356   8.489  20.651  0.00  0.00    +0.074 HD
BRANCH 128 130
ATOM    130  C   UNL     1     -11.621   6.977  22.151  0.00  0.00    +0.084 C 
ATOM    131  H   UNL     1     -12.257   7.126  23.030  0.00  0.00    +0.059 HD
ATOM    132  H   UNL     1     -10.807   6.309  22.456  0.00  0.00    +0.059 HD
BRANCH 130 133
ATOM    133  O   UNL     1     -12.431   6.289  21.191  0.00  0.00    -0.380 OA
BRANCH 133 134
ATOM    134  C   UNL     1     -12.155   6.645  19.842  0.00  0.00    +0.037 C 
ATOM    135  H   UNL     1     -11.613   7.592  19.784  0.00  0.00    +0.052 HD
ATOM    136  H   UNL     1     -11.527   5.862  19.406  0.00  0.00    +0.052 HD
ATOM    137  H   UNL     1     -13.079   6.689  19.258  0.00  0.00    +0.052 HD
ENDBRANCH 133 134
ENDBRANCH 130 133
ENDBRANCH 128 130
BRANCH 128 138
ATOM    138  O   UNL     1     -11.706   9.364  22.463  0.00  0.00    -0.366 OA
BRANCH 138 139
ATOM    139  C   UNL     1     -12.751  10.017  21.754  0.00  0.00    +0.038 C 
ATOM    140  H   UNL     1     -13.699   9.594  22.088  0.00  0.00    +0.052 HD
ATOM    141  H   UNL     1     -12.754  11.088  21.973  0.00  0.00    +0.052 HD
ATOM    142  H   UNL     1     -12.663   9.856  20.676  0.00  0.00    +0.052 HD
ENDBRANCH 138 139
ENDBRANCH 128 138
ENDBRANCH 126 128
ENDBRANCH 125 126
ENDBRANCH  90 125
ENDBRANCH  87  90
ENDBRANCH  84  87
ENDBRANCH  78  84
ENDBRANCH  76  78
BRANCH  76 143
ATOM    143  O   UNL     1      -8.687   5.170  16.842  0.00  0.00    -0.379 OA
BRANCH 143 144
ATOM    144  C   UNL     1      -8.077   3.904  16.615  0.00  0.00    +0.037 C 
ATOM    145  H   UNL     1      -7.095   3.909  17.097  0.00  0.00    +0.052 HD
ATOM    146  H   UNL     1      -7.947   3.718  15.548  0.00  0.00    +0.052 HD
ATOM    147  H   UNL     1      -8.682   3.111  17.065  0.00  0.00    +0.052 HD
ENDBRANCH 143 144
ENDBRANCH  76 143
ENDBRANCH   1  76
TORSDOF 35
ENDMDL
MODEL 5
REMARK VINA RESULT:      -4.8      8.459     15.769
REMARK  Name = Mycalolide B_conf2
REMARK  35 active torsions:
REMARK  status: ('A' for Active; 'I' for Inactive)
REMARK    1  A    between atoms: C_1  and  C_2
REMARK    2  A    between atoms: C_3  and  O_72
REMARK    3  A    between atoms: C_22  and  O_70
REMARK    4  A    between atoms: C_23  and  C_69
REMARK    5  A    between atoms: C_29  and  O_68
REMARK    6  A    between atoms: C_34  and  C_35
REMARK    7  A    between atoms: C_35  and  C_36
REMARK    8  A    between atoms: C_36  and  C_37
REMARK    9  A    between atoms: C_36  and  O_66
REMARK   10  A    between atoms: C_37  and  C_38
REMARK   11  A    between atoms: C_37  and  C_39
REMARK   12  A    between atoms: C_39  and  C_40
REMARK   13  A    between atoms: C_40  and  C_41
REMARK   14  A    between atoms: C_41  and  C_42
REMARK   15  A    between atoms: C_41  and  O_57
REMARK   16  A    between atoms: C_42  and  C_43
REMARK   17  A    between atoms: C_42  and  C_44
REMARK   18  A    between atoms: C_44  and  C_45
REMARK   19  A    between atoms: C_44  and  O_53
REMARK   20  A    between atoms: C_45  and  C_46
REMARK   21  A    between atoms: C_45  and  C_47
REMARK   22  A    between atoms: C_48  and  N_49
REMARK   23  A    between atoms: N_49  and  C_50
REMARK   24  A    between atoms: O_53  and  C_54
REMARK   25  A    between atoms: C_54  and  C_56
REMARK   26  A    between atoms: O_57  and  C_58
REMARK   27  A    between atoms: C_58  and  C_60
REMARK   28  A    between atoms: C_60  and  C_61
REMARK   29  A    between atoms: C_60  and  O_64
REMARK   30  A    between atoms: C_61  and  O_62
REMARK   31  A    between atoms: O_62  and  C_63
REMARK   32  A    between atoms: O_64  and  C_65
REMARK   33  A    between atoms: O_66  and  C_67
REMARK   34  A    between atoms: O_70  and  C_71
REMARK   35  A    between atoms: O_72  and  C_73
REMARK                            x       y       z     vdW  Elec       q    Type
REMARK                         _______ _______ _______ _____ _____    ______ ____
ROOT
ATOM      1  C   UNL     1      -8.206   9.973  17.252  0.00  0.00    +0.011 C 
ATOM      2  H   UNL     1      -8.570   9.584  16.296  0.00  0.00    +0.033 HD
ATOM      3  H   UNL     1      -8.862  10.809  17.491  0.00  0.00    +0.033 HD
ENDROOT
BRANCH   1  36
ATOM      4  C   UNL     1      -8.480   9.274  19.783  0.00  0.00    +0.020 C 
ATOM      5  C   UNL     1      -9.582  10.301  20.186  0.00  0.00    +0.068 C 
ATOM      6  C   UNL     1     -11.043   9.999  19.754  0.00  0.00    -0.008 C 
ATOM      7  C   UNL     1     -11.404  10.354  18.339  0.00  0.00    -0.077 C 
ATOM      8  C   UNL     1     -11.931  11.535  17.972  0.00  0.00    -0.003 C 
ATOM      9  C   UNL     1     -12.140  11.844  16.601  0.00  0.00    +0.220 A 
ATOM     10  N   UNL     1     -11.903  11.051  15.563  0.00  0.00    -0.205 NA
ATOM     11  C   UNL     1     -12.184  11.813  14.457  0.00  0.00    +0.164 A 
ATOM     12  C   UNL     1     -12.612  13.051  14.842  0.00  0.00    +0.125 A 
ATOM     13  O   UNL     1     -12.617  13.083  16.202  0.00  0.00    -0.443 OA
ATOM     14  C   UNL     1     -12.022  11.350  12.978  0.00  0.00    +0.250 A 
ATOM     15  N   UNL     1     -11.605  10.146  12.628  0.00  0.00    -0.203 NA
ATOM     16  C   UNL     1     -11.596  10.179  11.255  0.00  0.00    +0.164 A 
ATOM     17  C   UNL     1     -12.005  11.411  10.815  0.00  0.00    +0.125 A 
ATOM     18  O   UNL     1     -12.287  12.173  11.906  0.00  0.00    -0.442 OA
ATOM     19  C   UNL     1     -11.186   9.000  10.323  0.00  0.00    +0.249 A 
ATOM     20  N   UNL     1     -10.809   7.813  10.767  0.00  0.00    -0.210 NA
ATOM     21  C   UNL     1     -10.560   7.081   9.628  0.00  0.00    +0.109 A 
ATOM     22  C   UNL     1     -10.791   7.866   8.524  0.00  0.00    +0.118 A 
ATOM     23  O   UNL     1     -11.186   9.095   8.950  0.00  0.00    -0.442 OA
ATOM     24  C   UNL     1     -10.113   5.658   9.712  0.00  0.00    +0.113 C 
ATOM     25  C   UNL     1      -8.581   5.484   9.850  0.00  0.00    +0.051 C 
ATOM     26  C   UNL     1      -8.310   4.673  11.114  0.00  0.00    +0.161 C 
ATOM     27  O   UNL     1      -7.987   3.486  11.044  0.00  0.00    -0.292 OA
ATOM     28  C   UNL     1      -8.491   5.328  12.443  0.00  0.00    -0.023 C 
ATOM     29  C   UNL     1      -8.616   4.580  13.553  0.00  0.00    -0.078 C 
ATOM     30  C   UNL     1      -8.776   5.120  14.948  0.00  0.00    -0.008 C 
ATOM     31  C   UNL     1      -9.943   6.112  15.142  0.00  0.00    +0.069 C 
ATOM     32  C   UNL     1     -10.340   6.277  16.611  0.00  0.00    +0.071 C 
ATOM     33  C   UNL     1      -9.192   6.783  17.450  0.00  0.00    +0.310 C 
ATOM     34  O   UNL     1      -8.170   6.153  17.679  0.00  0.00    -0.251 OA
ATOM     35  O   UNL     1      -9.458   8.043  17.891  0.00  0.00    -0.461 OA
ATOM     36  C   UNL     1      -8.329   8.853  18.299  0.00  0.00    +0.110 C 
ATOM     37  H   UNL     1      -7.515   9.721  20.052  0.00  0.00    +0.036 HD
ATOM     38  H   UNL     1      -9.616  10.313  21.285  0.00  0.00    +0.060 HD
ATOM     39  H   UNL     1     -11.702  10.577  20.416  0.00  0.00    +0.033 HD
ATOM     40  H   UNL     1     -11.293   8.947  19.940  0.00  0.00    +0.033 HD
ATOM     41  H   UNL     1     -11.187   9.617  17.569  0.00  0.00    +0.057 HD
ATOM     42  H   UNL     1     -12.136  12.310  18.702  0.00  0.00    +0.067 HD
ATOM     43  H   UNL     1     -12.955  13.942  14.334  0.00  0.00    +0.105 HD
ATOM     44  H   UNL     1     -12.142  11.870   9.848  0.00  0.00    +0.105 HD
ATOM     45  H   UNL     1     -10.731   7.714   7.456  0.00  0.00    +0.105 HD
ATOM     46  H   UNL     1     -10.608   5.218  10.592  0.00  0.00    +0.067 HD
ATOM     47  H   UNL     1      -8.220   4.850   9.027  0.00  0.00    +0.041 HD
ATOM     48  H   UNL     1      -8.531   6.413  12.486  0.00  0.00    +0.065 HD
ATOM     49  H   UNL     1      -8.583   3.489  13.464  0.00  0.00    +0.057 HD
ATOM     50  H   UNL     1      -8.930   4.259  15.608  0.00  0.00    +0.033 HD
ATOM     51  H   UNL     1      -7.822   5.584  15.226  0.00  0.00    +0.033 HD
ATOM     52  H   UNL     1     -10.818   5.745  14.590  0.00  0.00    +0.060 HD
ATOM     53  H   UNL     1     -10.678   5.329  17.042  0.00  0.00    +0.040 HD
ATOM     54  H   UNL     1     -11.179   6.981  16.690  0.00  0.00    +0.040 HD
ATOM     55  H   UNL     1      -7.414   8.245  18.246  0.00  0.00    +0.074 HD
BRANCH   4  56
ATOM     56  C   UNL     1      -8.617   8.013  20.655  0.00  0.00    -0.057 C 
ATOM     57  H   UNL     1      -7.726   7.382  20.567  0.00  0.00    +0.023 HD
ATOM     58  H   UNL     1      -9.471   7.411  20.332  0.00  0.00    +0.023 HD
ATOM     59  H   UNL     1      -8.754   8.254  21.712  0.00  0.00    +0.023 HD
ENDBRANCH   4  56
BRANCH  25  60
ATOM     60  C   UNL     1      -7.717   6.744   9.811  0.00  0.00    -0.053 C 
ATOM     61  H   UNL     1      -7.897   7.309   8.892  0.00  0.00    +0.024 HD
ATOM     62  H   UNL     1      -7.897   7.411  10.658  0.00  0.00    +0.024 HD
ATOM     63  H   UNL     1      -6.654   6.488   9.834  0.00  0.00    +0.024 HD
ENDBRANCH  25  60
BRANCH  31  64
ATOM     64  O   UNL     1      -9.592   7.383  14.589  0.00  0.00    -0.391 OA
ATOM     65  H   UNL     1     -10.045   7.476  13.726  0.00  0.00    +0.210 HD
ENDBRANCH  31  64
BRANCH  24  66
ATOM     66  O   UNL     1     -10.540   4.900   8.556  0.00  0.00    -0.373 OA
BRANCH  66  67
ATOM     67  C   UNL     1      -9.443   4.477   7.748  0.00  0.00    +0.037 C 
ATOM     68  H   UNL     1      -9.609   4.741   6.698  0.00  0.00    +0.052 HD
ATOM     69  H   UNL     1      -8.534   4.980   8.099  0.00  0.00    +0.052 HD
ATOM     70  H   UNL     1      -9.298   3.392   7.846  0.00  0.00    +0.052 HD
ENDBRANCH  66  67
ENDBRANCH  24  66
BRANCH   5  71
ATOM     71  O   UNL     1      -9.271  11.642  19.775  0.00  0.00    -0.379 OA
BRANCH  71  72
ATOM     72  C   UNL     1      -9.092  12.561  20.842  0.00  0.00    +0.037 C 
ATOM     73  H   UNL     1      -8.039  12.840  20.927  0.00  0.00    +0.052 HD
ATOM     74  H   UNL     1      -9.392  12.064  21.770  0.00  0.00    +0.052 HD
ATOM     75  H   UNL     1      -9.709  13.454  20.722  0.00  0.00    +0.052 HD
ENDBRANCH  71  72
ENDBRANCH   5  71
ENDBRANCH   1  36
BRANCH   1  76
ATOM     76  C   UNL     1      -6.769  10.502  17.085  0.00  0.00    +0.064 C 
ATOM     77  H   UNL     1      -6.680  11.033  16.129  0.00  0.00    +0.060 HD
BRANCH  76  78
ATOM     78  C   UNL     1      -6.441  11.504  18.240  0.00  0.00    -0.017 C 
ATOM     79  H   UNL     1      -7.240  11.423  18.995  0.00  0.00    +0.032 HD
BRANCH  78  80
ATOM     80  C   UNL     1      -5.136  11.176  18.967  0.00  0.00    -0.060 C 
ATOM     81  H   UNL     1      -4.376  10.816  18.267  0.00  0.00    +0.023 HD
ATOM     82  H   UNL     1      -5.285  10.415  19.738  0.00  0.00    +0.023 HD
ATOM     83  H   UNL     1      -4.709  12.066  19.443  0.00  0.00    +0.023 HD
ENDBRANCH  78  80
BRANCH  78  84
ATOM     84  C   UNL     1      -6.449  12.947  17.664  0.00  0.00    -0.045 C 
ATOM     85  H   UNL     1      -6.933  12.944  16.684  0.00  0.00    +0.027 HD
ATOM     86  H   UNL     1      -7.099  13.564  18.297  0.00  0.00    +0.027 HD
BRANCH  84  87
ATOM     87  C   UNL     1      -5.092  13.660  17.616  0.00  0.00    -0.015 C 
ATOM     88  H   UNL     1      -4.344  12.898  17.873  0.00  0.00    +0.030 HD
ATOM     89  H   UNL     1      -4.881  13.986  16.592  0.00  0.00    +0.030 HD
BRANCH  87  90
ATOM     90  C   UNL     1      -4.929  14.836  18.605  0.00  0.00    +0.109 C 
ATOM     91  H   UNL     1      -4.787  15.743  18.016  0.00  0.00    +0.074 HD
BRANCH  90  92
ATOM     92  C   UNL     1      -3.677  14.643  19.514  0.00  0.00    +0.031 C 
ATOM     93  H   UNL     1      -3.093  13.818  19.084  0.00  0.00    +0.037 HD
BRANCH  92  94
ATOM     94  C   UNL     1      -4.058  14.209  20.942  0.00  0.00    -0.056 C 
ATOM     95  H   UNL     1      -4.363  15.063  21.555  0.00  0.00    +0.023 HD
ATOM     96  H   UNL     1      -3.231  13.708  21.452  0.00  0.00    +0.023 HD
ATOM     97  H   UNL     1      -4.908  13.519  20.920  0.00  0.00    +0.023 HD
ENDBRANCH  92  94
BRANCH  92  98
ATOM     98  C   UNL     1      -2.727  15.884  19.578  0.00  0.00    +0.115 C 
ATOM     99  H   UNL     1      -2.545  16.082  20.643  0.00  0.00    +0.074 HD
BRANCH  98 100
ATOM    100  C   UNL     1      -1.346  15.695  18.892  0.00  0.00    +0.013 C 
ATOM    101  H   UNL     1      -1.165  16.543  18.223  0.00  0.00    +0.038 HD
BRANCH 100 102
ATOM    102  C   UNL     1      -1.259  14.408  18.064  0.00  0.00    -0.056 C 
ATOM    103  H   UNL     1      -2.043  13.696  18.332  0.00  0.00    +0.024 HD
ATOM    104  H   UNL     1      -1.371  14.628  16.998  0.00  0.00    +0.024 HD
ATOM    105  H   UNL     1      -0.296  13.905  18.206  0.00  0.00    +0.024 HD
ENDBRANCH 100 102
BRANCH 100 106
ATOM    106  C   UNL     1      -0.227  15.678  19.921  0.00  0.00    -0.064 C 
ATOM    107  C   UNL     1       1.041  15.360  19.617  0.00  0.00    -0.005 C 
ATOM    108  H   UNL     1      -0.507  15.963  20.930  0.00  0.00    +0.059 HD
ATOM    109  H   UNL     1       1.279  15.118  18.581  0.00  0.00    +0.078 HD
BRANCH 107 110
ATOM    110  N   UNL     1       2.126  15.316  20.480  0.00  0.00    -0.284 N 
ATOM    111  C   UNL     1       3.162  16.250  20.521  0.00  0.00    +0.206 C 
ATOM    112  O   UNL     1       3.320  17.259  19.847  0.00  0.00    -0.279 OA
ATOM    113  H   UNL     1       3.903  15.999  21.297  0.00  0.00    +0.126 HD
BRANCH 110 114
ATOM    114  C   UNL     1       2.148  14.222  21.445  0.00  0.00    +0.007 C 
ATOM    115  H   UNL     1       1.295  14.264  22.128  0.00  0.00    +0.043 HD
ATOM    116  H   UNL     1       2.111  13.272  20.902  0.00  0.00    +0.043 HD
ATOM    117  H   UNL     1       3.069  14.270  22.031  0.00  0.00    +0.043 HD
ENDBRANCH 110 114
ENDBRANCH 107 110
ENDBRANCH 100 106
ENDBRANCH  98 100
BRANCH  98 118
ATOM    118  O   UNL     1      -3.378  17.014  18.953  0.00  0.00    -0.461 OA
BRANCH 118 119
ATOM    119  C   UNL     1      -3.651  18.078  19.755  0.00  0.00    +0.304 C 
ATOM    120  O   UNL     1      -4.092  18.025  20.896  0.00  0.00    -0.251 OA
BRANCH 119 121
ATOM    121  C   UNL     1      -3.373  19.359  19.033  0.00  0.00    +0.033 C 
ATOM    122  H   UNL     1      -3.892  19.365  18.072  0.00  0.00    +0.034 HD
ATOM    123  H   UNL     1      -3.733  20.199  19.633  0.00  0.00    +0.034 HD
ATOM    124  H   UNL     1      -2.294  19.482  18.893  0.00  0.00    +0.034 HD
ENDBRANCH 119 121
ENDBRANCH 118 119
ENDBRANCH  98 118
ENDBRANCH  92  98
ENDBRANCH  90  92
BRANCH  90 125
ATOM    125  O   UNL     1      -6.114  14.933  19.424  0.00  0.00    -0.459 OA
BRANCH 125 126
ATOM    126  C   UNL     1      -6.758  16.141  19.449  0.00  0.00    +0.339 C 
ATOM    127  O   UNL     1      -7.124  16.722  20.463  0.00  0.00    -0.248 OA
BRANCH 126 128
ATOM    128  C   UNL     1      -6.875  16.703  18.025  0.00  0.00    +0.178 C 
ATOM    129  H   UNL     1      -6.218  16.105  17.378  0.00  0.00    +0.074 HD
BRANCH 128 130
ATOM    130  C   UNL     1      -8.320  16.505  17.545  0.00  0.00    +0.084 C 
ATOM    131  H   UNL     1      -8.689  17.449  17.130  0.00  0.00    +0.059 HD
ATOM    132  H   UNL     1      -8.975  16.248  18.385  0.00  0.00    +0.059 HD
BRANCH 130 133
ATOM    133  O   UNL     1      -8.503  15.524  16.517  0.00  0.00    -0.380 OA
BRANCH 133 134
ATOM    134  C   UNL     1      -9.618  14.667  16.728  0.00  0.00    +0.037 C 
ATOM    135  H   UNL     1     -10.466  14.957  16.101  0.00  0.00    +0.052 HD
ATOM    136  H   UNL     1      -9.321  13.650  16.456  0.00  0.00    +0.052 HD
ATOM    137  H   UNL     1      -9.901  14.655  17.784  0.00  0.00    +0.052 HD
ENDBRANCH 133 134
ENDBRANCH 130 133
ENDBRANCH 128 130
BRANCH 128 138
ATOM    138  O   UNL     1      -6.515  18.073  17.835  0.00  0.00    -0.366 OA
BRANCH 138 139
ATOM    139  C   UNL     1      -5.967  18.333  16.550  0.00  0.00    +0.038 C 
ATOM    140  H   UNL     1      -6.366  17.590  15.857  0.00  0.00    +0.052 HD
ATOM    141  H   UNL     1      -6.261  19.325  16.199  0.00  0.00    +0.052 HD
ATOM    142  H   UNL     1      -4.877  18.247  16.556  0.00  0.00    +0.052 HD
ENDBRANCH 138 139
ENDBRANCH 128 138
ENDBRANCH 126 128
ENDBRANCH 125 126
ENDBRANCH  90 125
ENDBRANCH  87  90
ENDBRANCH  84  87
ENDBRANCH  78  84
ENDBRANCH  76  78
BRANCH  76 143
ATOM    143  O   UNL     1      -5.892   9.366  17.100  0.00  0.00    -0.379 OA
BRANCH 143 144
ATOM    144  C   UNL     1      -4.917   9.414  16.065  0.00  0.00    +0.037 C 
ATOM    145  H   UNL     1      -5.414   9.190  15.117  0.00  0.00    +0.052 HD
ATOM    146  H   UNL     1      -4.130   8.678  16.236  0.00  0.00    +0.052 HD
ATOM    147  H   UNL     1      -4.485  10.419  16.004  0.00  0.00    +0.052 HD
ENDBRANCH 143 144
ENDBRANCH  76 143
ENDBRANCH   1  76
TORSDOF 35
ENDMDL
MODEL 6
REMARK VINA RESULT:      -4.8      1.579      2.701
REMARK  Name = Mycalolide B_conf2
REMARK  35 active torsions:
REMARK  status: ('A' for Active; 'I' for Inactive)
REMARK    1  A    between atoms: C_1  and  C_2
REMARK    2  A    between atoms: C_3  and  O_72
REMARK    3  A    between atoms: C_22  and  O_70
REMARK    4  A    between atoms: C_23  and  C_69
REMARK    5  A    between atoms: C_29  and  O_68
REMARK    6  A    between atoms: C_34  and  C_35
REMARK    7  A    between atoms: C_35  and  C_36
REMARK    8  A    between atoms: C_36  and  C_37
REMARK    9  A    between atoms: C_36  and  O_66
REMARK   10  A    between atoms: C_37  and  C_38
REMARK   11  A    between atoms: C_37  and  C_39
REMARK   12  A    between atoms: C_39  and  C_40
REMARK   13  A    between atoms: C_40  and  C_41
REMARK   14  A    between atoms: C_41  and  C_42
REMARK   15  A    between atoms: C_41  and  O_57
REMARK   16  A    between atoms: C_42  and  C_43
REMARK   17  A    between atoms: C_42  and  C_44
REMARK   18  A    between atoms: C_44  and  C_45
REMARK   19  A    between atoms: C_44  and  O_53
REMARK   20  A    between atoms: C_45  and  C_46
REMARK   21  A    between atoms: C_45  and  C_47
REMARK   22  A    between atoms: C_48  and  N_49
REMARK   23  A    between atoms: N_49  and  C_50
REMARK   24  A    between atoms: O_53  and  C_54
REMARK   25  A    between atoms: C_54  and  C_56
REMARK   26  A    between atoms: O_57  and  C_58
REMARK   27  A    between atoms: C_58  and  C_60
REMARK   28  A    between atoms: C_60  and  C_61
REMARK   29  A    between atoms: C_60  and  O_64
REMARK   30  A    between atoms: C_61  and  O_62
REMARK   31  A    between atoms: O_62  and  C_63
REMARK   32  A    between atoms: O_64  and  C_65
REMARK   33  A    between atoms: O_66  and  C_67
REMARK   34  A    between atoms: O_70  and  C_71
REMARK   35  A    between atoms: O_72  and  C_73
REMARK                            x       y       z     vdW  Elec       q    Type
REMARK                         _______ _______ _______ _____ _____    ______ ____
ROOT
ATOM      1  C   UNL     1       2.262  20.725  22.711  0.00  0.00    +0.011 C 
ATOM      2  H   UNL     1       1.800  20.062  21.973  0.00  0.00    +0.033 HD
ATOM      3  H   UNL     1       3.289  20.373  22.813  0.00  0.00    +0.033 HD
ENDROOT
BRANCH   1  36
ATOM      4  C   UNL     1       3.456  23.060  22.406  0.00  0.00    +0.020 C 
ATOM      5  C   UNL     1       4.878  22.543  22.031  0.00  0.00    +0.068 C 
ATOM      6  C   UNL     1       5.103  22.033  20.582  0.00  0.00    -0.008 C 
ATOM      7  C   UNL     1       4.653  20.628  20.296  0.00  0.00    -0.077 C 
ATOM      8  C   UNL     1       5.445  19.548  20.404  0.00  0.00    -0.003 C 
ATOM      9  C   UNL     1       4.919  18.239  20.228  0.00  0.00    +0.220 A 
ATOM     10  N   UNL     1       3.671  17.920  19.912  0.00  0.00    -0.205 NA
ATOM     11  C   UNL     1       3.632  16.549  19.935  0.00  0.00    +0.164 A 
ATOM     12  C   UNL     1       4.868  16.055  20.241  0.00  0.00    +0.125 A 
ATOM     13  O   UNL     1       5.707  17.113  20.406  0.00  0.00    -0.443 OA
ATOM     14  C   UNL     1       2.368  15.678  19.672  0.00  0.00    +0.250 A 
ATOM     15  N   UNL     1       1.181  16.178  19.376  0.00  0.00    -0.203 NA
ATOM     16  C   UNL     1       0.374  15.074  19.247  0.00  0.00    +0.164 A 
ATOM     17  C   UNL     1       1.101  13.935  19.475  0.00  0.00    +0.125 A 
ATOM     18  O   UNL     1       2.383  14.302  19.743  0.00  0.00    -0.442 OA
ATOM     19  C   UNL     1      -1.144  15.098  18.894  0.00  0.00    +0.249 A 
ATOM     20  N   UNL     1      -1.824  16.208  18.662  0.00  0.00    -0.210 NA
ATOM     21  C   UNL     1      -3.100  15.777  18.375  0.00  0.00    +0.109 A 
ATOM     22  C   UNL     1      -3.145  14.406  18.453  0.00  0.00    +0.118 A 
ATOM     23  O   UNL     1      -1.907  13.957  18.788  0.00  0.00    -0.442 OA
ATOM     24  C   UNL     1      -4.183  16.752  18.044  0.00  0.00    +0.113 C 
ATOM     25  C   UNL     1      -4.927  17.315  19.279  0.00  0.00    +0.051 C 
ATOM     26  C   UNL     1      -4.820  18.837  19.240  0.00  0.00    +0.161 C 
ATOM     27  O   UNL     1      -5.785  19.527  18.905  0.00  0.00    -0.292 OA
ATOM     28  C   UNL     1      -3.513  19.477  19.568  0.00  0.00    -0.023 C 
ATOM     29  C   UNL     1      -3.274  20.750  19.206  0.00  0.00    -0.078 C 
ATOM     30  C   UNL     1      -2.010  21.512  19.500  0.00  0.00    -0.008 C 
ATOM     31  C   UNL     1      -0.706  20.834  19.029  0.00  0.00    +0.069 C 
ATOM     32  C   UNL     1       0.469  21.811  18.938  0.00  0.00    +0.071 C 
ATOM     33  C   UNL     1       0.767  22.455  20.270  0.00  0.00    +0.310 C 
ATOM     34  O   UNL     1       0.019  23.231  20.849  0.00  0.00    -0.251 OA
ATOM     35  O   UNL     1       1.975  22.031  20.733  0.00  0.00    -0.461 OA
ATOM     36  C   UNL     1       2.221  22.159  22.154  0.00  0.00    +0.110 C 
ATOM     37  H   UNL     1       3.458  23.245  23.487  0.00  0.00    +0.036 HD
ATOM     38  H   UNL     1       5.562  23.398  22.132  0.00  0.00    +0.060 HD
ATOM     39  H   UNL     1       6.183  22.077  20.387  0.00  0.00    +0.033 HD
ATOM     40  H   UNL     1       4.647  22.716  19.855  0.00  0.00    +0.033 HD
ATOM     41  H   UNL     1       3.610  20.486  20.020  0.00  0.00    +0.057 HD
ATOM     42  H   UNL     1       6.483  19.640  20.704  0.00  0.00    +0.067 HD
ATOM     43  H   UNL     1       5.301  15.069  20.344  0.00  0.00    +0.105 HD
ATOM     44  H   UNL     1       0.882  12.878  19.482  0.00  0.00    +0.105 HD
ATOM     45  H   UNL     1      -3.913  13.661  18.307  0.00  0.00    +0.105 HD
ATOM     46  H   UNL     1      -3.709  17.582  17.496  0.00  0.00    +0.067 HD
ATOM     47  H   UNL     1      -6.000  17.106  19.173  0.00  0.00    +0.041 HD
ATOM     48  H   UNL     1      -2.762  18.888  20.090  0.00  0.00    +0.065 HD
ATOM     49  H   UNL     1      -4.051  21.303  18.669  0.00  0.00    +0.057 HD
ATOM     50  H   UNL     1      -2.102  22.484  19.005  0.00  0.00    +0.033 HD
ATOM     51  H   UNL     1      -1.986  21.691  20.581  0.00  0.00    +0.033 HD
ATOM     52  H   UNL     1      -0.869  20.400  18.034  0.00  0.00    +0.060 HD
ATOM     53  H   UNL     1       0.269  22.609  18.217  0.00  0.00    +0.040 HD
ATOM     54  H   UNL     1       1.364  21.281  18.588  0.00  0.00    +0.040 HD
ATOM     55  H   UNL     1       1.368  22.672  22.621  0.00  0.00    +0.074 HD
BRANCH   4  56
ATOM     56  C   UNL     1       3.223  24.432  21.746  0.00  0.00    -0.057 C 
ATOM     57  H   UNL     1       2.816  25.147  22.470  0.00  0.00    +0.023 HD
ATOM     58  H   UNL     1       2.498  24.350  20.931  0.00  0.00    +0.023 HD
ATOM     59  H   UNL     1       4.144  24.856  21.338  0.00  0.00    +0.023 HD
ENDBRANCH   4  56
BRANCH  25  60
ATOM     60  C   UNL     1      -4.533  16.773  20.652  0.00  0.00    -0.053 C 
ATOM     61  H   UNL     1      -4.931  17.408  21.448  0.00  0.00    +0.024 HD
ATOM     62  H   UNL     1      -4.886  15.752  20.826  0.00  0.00    +0.024 HD
ATOM     63  H   UNL     1      -3.445  16.750  20.765  0.00  0.00    +0.024 HD
ENDBRANCH  25  60
BRANCH  31  64
ATOM     64  O   UNL     1      -0.375  19.759  19.912  0.00  0.00    -0.391 OA
ATOM     65  H   UNL     1      -0.158  18.974  19.370  0.00  0.00    +0.210 HD
ENDBRANCH  31  64
BRANCH  24  66
ATOM     66  O   UNL     1      -5.171  16.166  17.165  0.00  0.00    -0.373 OA
BRANCH  66  67
ATOM     67  C   UNL     1      -5.588  17.065  16.139  0.00  0.00    +0.037 C 
ATOM     68  H   UNL     1      -6.465  17.640  16.458  0.00  0.00    +0.052 HD
ATOM     69  H   UNL     1      -4.768  17.761  15.928  0.00  0.00    +0.052 HD
ATOM     70  H   UNL     1      -5.816  16.509  15.219  0.00  0.00    +0.052 HD
ENDBRANCH  66  67
ENDBRANCH  24  66
BRANCH   5  71
ATOM     71  O   UNL     1       5.359  21.532  22.933  0.00  0.00    -0.379 OA
BRANCH  71  72
ATOM     72  C   UNL     1       6.725  21.663  23.294  0.00  0.00    +0.037 C 
ATOM     73  H   UNL     1       7.148  22.567  22.849  0.00  0.00    +0.052 HD
ATOM     74  H   UNL     1       7.264  20.798  22.896  0.00  0.00    +0.052 HD
ATOM     75  H   UNL     1       6.862  21.677  24.378  0.00  0.00    +0.052 HD
ENDBRANCH  71  72
ENDBRANCH   5  71
ENDBRANCH   1  36
BRANCH   1  76
ATOM     76  C   UNL     1       1.548  20.573  24.067  0.00  0.00    +0.064 C 
ATOM     77  H   UNL     1       0.896  19.690  24.043  0.00  0.00    +0.060 HD
BRANCH  76  78
ATOM     78  C   UNL     1       2.609  20.373  25.198  0.00  0.00    -0.017 C 
ATOM     79  H   UNL     1       3.460  19.821  24.771  0.00  0.00    +0.032 HD
BRANCH  78  80
ATOM     80  C   UNL     1       3.180  21.691  25.724  0.00  0.00    -0.060 C 
ATOM     81  H   UNL     1       4.054  22.000  25.143  0.00  0.00    +0.023 HD
ATOM     82  H   UNL     1       3.473  21.612  26.775  0.00  0.00    +0.023 HD
ATOM     83  H   UNL     1       2.454  22.507  25.632  0.00  0.00    +0.023 HD
ENDBRANCH  78  80
BRANCH  78  84
ATOM     84  C   UNL     1       1.976  19.513  26.327  0.00  0.00    -0.045 C 
ATOM     85  H   UNL     1       1.845  20.127  27.222  0.00  0.00    +0.027 HD
ATOM     86  H   UNL     1       0.959  19.242  26.021  0.00  0.00    +0.027 HD
BRANCH  84  87
ATOM     87  C   UNL     1       2.693  18.196  26.652  0.00  0.00    -0.015 C 
ATOM     88  H   UNL     1       1.898  17.463  26.850  0.00  0.00    +0.030 HD
ATOM     89  H   UNL     1       3.241  17.845  25.771  0.00  0.00    +0.030 HD
BRANCH  87  90
ATOM     90  C   UNL     1       3.619  18.236  27.888  0.00  0.00    +0.109 C 
ATOM     91  H   UNL     1       3.455  19.190  28.391  0.00  0.00    +0.074 HD
BRANCH  90  92
ATOM     92  C   UNL     1       5.120  18.154  27.475  0.00  0.00    +0.031 C 
ATOM     93  H   UNL     1       5.630  17.553  28.240  0.00  0.00    +0.037 HD
BRANCH  92  94
ATOM     94  C   UNL     1       5.801  19.535  27.482  0.00  0.00    -0.056 C 
ATOM     95  H   UNL     1       6.889  19.446  27.554  0.00  0.00    +0.023 HD
ATOM     96  H   UNL     1       5.458  20.156  28.313  0.00  0.00    +0.023 HD
ATOM     97  H   UNL     1       5.591  20.071  26.551  0.00  0.00    +0.023 HD
ENDBRANCH  92  94
BRANCH  92  98
ATOM     98  C   UNL     1       5.377  17.447  26.103  0.00  0.00    +0.115 C 
ATOM     99  H   UNL     1       4.439  16.942  25.833  0.00  0.00    +0.074 HD
BRANCH  98 100
ATOM    100  C   UNL     1       5.755  18.395  24.932  0.00  0.00    +0.013 C 
ATOM    101  H   UNL     1       5.621  19.432  25.260  0.00  0.00    +0.038 HD
BRANCH 100 102
ATOM    102  C   UNL     1       4.897  18.175  23.682  0.00  0.00    -0.056 C 
ATOM    103  H   UNL     1       4.209  17.336  23.800  0.00  0.00    +0.024 HD
ATOM    104  H   UNL     1       4.293  19.063  23.468  0.00  0.00    +0.024 HD
ATOM    105  H   UNL     1       5.517  17.970  22.801  0.00  0.00    +0.024 HD
ENDBRANCH 100 102
BRANCH 100 106
ATOM    106  C   UNL     1       7.216  18.224  24.545  0.00  0.00    -0.064 C 
ATOM    107  C   UNL     1       7.618  18.019  23.282  0.00  0.00    -0.005 C 
ATOM    108  H   UNL     1       7.932  18.300  25.357  0.00  0.00    +0.059 HD
ATOM    109  H   UNL     1       6.862  17.988  22.497  0.00  0.00    +0.078 HD
BRANCH 107 110
ATOM    110  N   UNL     1       8.919  17.852  22.832  0.00  0.00    -0.284 N 
ATOM    111  C   UNL     1       9.473  16.647  22.396  0.00  0.00    +0.206 C 
ATOM    112  O   UNL     1       8.953  15.544  22.312  0.00  0.00    -0.279 OA
ATOM    113  H   UNL     1      10.522  16.773  22.082  0.00  0.00    +0.126 HD
BRANCH 110 114
ATOM    114  C   UNL     1       9.750  19.051  22.777  0.00  0.00    +0.007 C 
ATOM    115  H   UNL     1      10.460  19.016  21.946  0.00  0.00    +0.043 HD
ATOM    116  H   UNL     1       9.102  19.922  22.643  0.00  0.00    +0.043 HD
ATOM    117  H   UNL     1      10.307  19.152  23.711  0.00  0.00    +0.043 HD
ENDBRANCH 110 114
ENDBRANCH 107 110
ENDBRANCH 100 106
ENDBRANCH  98 100
BRANCH  98 118
ATOM    118  O   UNL     1       6.447  16.487  26.255  0.00  0.00    -0.461 OA
BRANCH 118 119
ATOM    119  C   UNL     1       6.302  15.305  25.596  0.00  0.00    +0.304 C 
ATOM    120  O   UNL     1       5.259  14.864  25.131  0.00  0.00    -0.251 OA
BRANCH 119 121
ATOM    121  C   UNL     1       7.607  14.575  25.545  0.00  0.00    +0.033 C 
ATOM    122  H   UNL     1       7.435  13.498  25.608  0.00  0.00    +0.034 HD
ATOM    123  H   UNL     1       8.109  14.796  24.599  0.00  0.00    +0.034 HD
ATOM    124  H   UNL     1       8.257  14.912  26.359  0.00  0.00    +0.034 HD
ENDBRANCH 119 121
ENDBRANCH 118 119
ENDBRANCH  98 118
ENDBRANCH  92  98
ENDBRANCH  90  92
BRANCH  90 125
ATOM    125  O   UNL     1       3.294  17.131  28.759  0.00  0.00    -0.459 OA
BRANCH 125 126
ATOM    126  C   UNL     1       3.006  17.429  30.064  0.00  0.00    +0.339 C 
ATOM    127  O   UNL     1       3.803  17.892  30.871  0.00  0.00    -0.248 OA
BRANCH 126 128
ATOM    128  C   UNL     1       1.517  17.184  30.342  0.00  0.00    +0.178 C 
ATOM    129  H   UNL     1       1.447  16.539  31.230  0.00  0.00    +0.074 HD
BRANCH 128 130
ATOM    130  C   UNL     1       0.861  18.530  30.681  0.00  0.00    +0.084 C 
ATOM    131  H   UNL     1       1.469  19.042  31.434  0.00  0.00    +0.059 HD
ATOM    132  H   UNL     1      -0.131  18.377  31.122  0.00  0.00    +0.059 HD
BRANCH 130 133
ATOM    133  O   UNL     1       0.730  19.448  29.589  0.00  0.00    -0.380 OA
BRANCH 133 134
ATOM    134  C   UNL     1      -0.613  19.820  29.304  0.00  0.00    +0.037 C 
ATOM    135  H   UNL     1      -0.653  20.646  28.589  0.00  0.00    +0.052 HD
ATOM    136  H   UNL     1      -1.118  18.956  28.861  0.00  0.00    +0.052 HD
ATOM    137  H   UNL     1      -1.146  20.076  30.225  0.00  0.00    +0.052 HD
ENDBRANCH 133 134
ENDBRANCH 130 133
ENDBRANCH 128 130
BRANCH 128 138
ATOM    138  O   UNL     1       0.757  16.553  29.308  0.00  0.00    -0.366 OA
BRANCH 138 139
ATOM    139  C   UNL     1      -0.494  16.055  29.760  0.00  0.00    +0.038 C 
ATOM    140  H   UNL     1      -1.242  16.283  28.999  0.00  0.00    +0.052 HD
ATOM    141  H   UNL     1      -0.453  14.971  29.891  0.00  0.00    +0.052 HD
ATOM    142  H   UNL     1      -0.800  16.532  30.695  0.00  0.00    +0.052 HD
ENDBRANCH 138 139
ENDBRANCH 128 138
ENDBRANCH 126 128
ENDBRANCH 125 126
ENDBRANCH  90 125
ENDBRANCH  87  90
ENDBRANCH  84  87
ENDBRANCH  78  84
ENDBRANCH  76  78
BRANCH  76 143
ATOM    143  O   UNL     1       0.765  21.757  24.272  0.00  0.00    -0.379 OA
BRANCH 143 144
ATOM    144  C   UNL     1      -0.623  21.478  24.411  0.00  0.00    +0.037 C 
ATOM    145  H   UNL     1      -0.735  20.417  24.652  0.00  0.00    +0.052 HD
ATOM    146  H   UNL     1      -1.159  21.690  23.485  0.00  0.00    +0.052 HD
ATOM    147  H   UNL     1      -1.043  22.068  25.232  0.00  0.00    +0.052 HD
ENDBRANCH 143 144
ENDBRANCH  76 143
ENDBRANCH   1  76
TORSDOF 35
ENDMDL
MODEL 7
REMARK VINA RESULT:      -4.8      9.991     17.396
REMARK  Name = Mycalolide B_conf2
REMARK  35 active torsions:
REMARK  status: ('A' for Active; 'I' for Inactive)
REMARK    1  A    between atoms: C_1  and  C_2
REMARK    2  A    between atoms: C_3  and  O_72
REMARK    3  A    between atoms: C_22  and  O_70
REMARK    4  A    between atoms: C_23  and  C_69
REMARK    5  A    between atoms: C_29  and  O_68
REMARK    6  A    between atoms: C_34  and  C_35
REMARK    7  A    between atoms: C_35  and  C_36
REMARK    8  A    between atoms: C_36  and  C_37
REMARK    9  A    between atoms: C_36  and  O_66
REMARK   10  A    between atoms: C_37  and  C_38
REMARK   11  A    between atoms: C_37  and  C_39
REMARK   12  A    between atoms: C_39  and  C_40
REMARK   13  A    between atoms: C_40  and  C_41
REMARK   14  A    between atoms: C_41  and  C_42
REMARK   15  A    between atoms: C_41  and  O_57
REMARK   16  A    between atoms: C_42  and  C_43
REMARK   17  A    between atoms: C_42  and  C_44
REMARK   18  A    between atoms: C_44  and  C_45
REMARK   19  A    between atoms: C_44  and  O_53
REMARK   20  A    between atoms: C_45  and  C_46
REMARK   21  A    between atoms: C_45  and  C_47
REMARK   22  A    between atoms: C_48  and  N_49
REMARK   23  A    between atoms: N_49  and  C_50
REMARK   24  A    between atoms: O_53  and  C_54
REMARK   25  A    between atoms: C_54  and  C_56
REMARK   26  A    between atoms: O_57  and  C_58
REMARK   27  A    between atoms: C_58  and  C_60
REMARK   28  A    between atoms: C_60  and  C_61
REMARK   29  A    between atoms: C_60  and  O_64
REMARK   30  A    between atoms: C_61  and  O_62
REMARK   31  A    between atoms: O_62  and  C_63
REMARK   32  A    between atoms: O_64  and  C_65
REMARK   33  A    between atoms: O_66  and  C_67
REMARK   34  A    between atoms: O_70  and  C_71
REMARK   35  A    between atoms: O_72  and  C_73
REMARK                            x       y       z     vdW  Elec       q    Type
REMARK                         _______ _______ _______ _____ _____    ______ ____
ROOT
ATOM      1  C   UNL     1     -10.202   8.402  17.694  0.00  0.00    +0.011 C 
ATOM      2  H   UNL     1      -9.792   9.415  17.640  0.00  0.00    +0.033 HD
ATOM      3  H   UNL     1     -11.004   8.375  16.956  0.00  0.00    +0.033 HD
ENDROOT
BRANCH   1  36
ATOM      4  C   UNL     1      -9.489   6.095  16.626  0.00  0.00    +0.020 C 
ATOM      5  C   UNL     1     -10.383   6.148  15.350  0.00  0.00    +0.068 C 
ATOM      6  C   UNL     1      -9.913   7.046  14.175  0.00  0.00    -0.008 C 
ATOM      7  C   UNL     1     -10.217   8.513  14.297  0.00  0.00    -0.077 C 
ATOM      8  C   UNL     1     -11.327   9.093  13.810  0.00  0.00    -0.003 C 
ATOM      9  C   UNL     1     -11.603  10.464  14.063  0.00  0.00    +0.220 A 
ATOM     10  N   UNL     1     -10.838  11.318  14.732  0.00  0.00    -0.205 NA
ATOM     11  C   UNL     1     -11.557  12.486  14.777  0.00  0.00    +0.164 A 
ATOM     12  C   UNL     1     -12.738  12.330  14.112  0.00  0.00    +0.125 A 
ATOM     13  O   UNL     1     -12.777  11.059  13.627  0.00  0.00    -0.443 OA
ATOM     14  C   UNL     1     -11.108  13.793  15.495  0.00  0.00    +0.250 A 
ATOM     15  N   UNL     1      -9.959  13.922  16.134  0.00  0.00    -0.203 NA
ATOM     16  C   UNL     1      -9.986  15.206  16.620  0.00  0.00    +0.164 A 
ATOM     17  C   UNL     1     -11.160  15.816  16.263  0.00  0.00    +0.125 A 
ATOM     18  O   UNL     1     -11.890  14.927  15.537  0.00  0.00    -0.442 OA
ATOM     19  C   UNL     1      -8.858  15.883  17.455  0.00  0.00    +0.249 A 
ATOM     20  N   UNL     1      -7.724  15.283  17.776  0.00  0.00    -0.210 NA
ATOM     21  C   UNL     1      -7.020  16.230  18.485  0.00  0.00    +0.109 A 
ATOM     22  C   UNL     1      -7.768  17.380  18.574  0.00  0.00    +0.118 A 
ATOM     23  O   UNL     1      -8.945  17.174  17.926  0.00  0.00    -0.442 OA
ATOM     24  C   UNL     1      -5.658  15.931  19.023  0.00  0.00    +0.113 C 
ATOM     25  C   UNL     1      -5.663  15.262  20.419  0.00  0.00    +0.051 C 
ATOM     26  C   UNL     1      -4.896  13.948  20.314  0.00  0.00    +0.161 C 
ATOM     27  O   UNL     1      -3.753  13.848  20.765  0.00  0.00    -0.292 OA
ATOM     28  C   UNL     1      -5.532  12.796  19.610  0.00  0.00    -0.023 C 
ATOM     29  C   UNL     1      -4.780  11.765  19.184  0.00  0.00    -0.078 C 
ATOM     30  C   UNL     1      -5.305  10.539  18.488  0.00  0.00    -0.008 C 
ATOM     31  C   UNL     1      -6.156  10.808  17.229  0.00  0.00    +0.069 C 
ATOM     32  C   UNL     1      -6.282   9.578  16.326  0.00  0.00    +0.071 C 
ATOM     33  C   UNL     1      -6.921   8.416  17.047  0.00  0.00    +0.310 C 
ATOM     34  O   UNL     1      -6.414   7.817  17.984  0.00  0.00    -0.251 OA
ATOM     35  O   UNL     1      -8.144   8.152  16.511  0.00  0.00    -0.461 OA
ATOM     36  C   UNL     1      -9.081   7.414  17.331  0.00  0.00    +0.110 C 
ATOM     37  H   UNL     1     -10.045   5.529  17.382  0.00  0.00    +0.036 HD
ATOM     38  H   UNL     1     -10.397   5.131  14.932  0.00  0.00    +0.060 HD
ATOM     39  H   UNL     1     -10.414   6.682  13.267  0.00  0.00    +0.033 HD
ATOM     40  H   UNL     1      -8.840   6.912  13.989  0.00  0.00    +0.033 HD
ATOM     41  H   UNL     1      -9.506   9.125  14.848  0.00  0.00    +0.057 HD
ATOM     42  H   UNL     1     -12.076   8.516  13.280  0.00  0.00    +0.067 HD
ATOM     43  H   UNL     1     -13.582  12.965  13.876  0.00  0.00    +0.105 HD
ATOM     44  H   UNL     1     -11.595  16.790  16.426  0.00  0.00    +0.105 HD
ATOM     45  H   UNL     1      -7.618  18.352  19.020  0.00  0.00    +0.105 HD
ATOM     46  H   UNL     1      -5.169  15.260  18.301  0.00  0.00    +0.067 HD
ATOM     47  H   UNL     1      -5.071  15.878  21.110  0.00  0.00    +0.041 HD
ATOM     48  H   UNL     1      -6.605  12.818  19.442  0.00  0.00    +0.065 HD
ATOM     49  H   UNL     1      -3.700  11.789  19.361  0.00  0.00    +0.057 HD
ATOM     50  H   UNL     1      -4.435   9.936  18.205  0.00  0.00    +0.033 HD
ATOM     51  H   UNL     1      -5.877   9.968  19.229  0.00  0.00    +0.033 HD
ATOM     52  H   UNL     1      -5.688  11.613  16.648  0.00  0.00    +0.060 HD
ATOM     53  H   UNL     1      -5.303   9.249  15.962  0.00  0.00    +0.040 HD
ATOM     54  H   UNL     1      -6.884   9.828  15.443  0.00  0.00    +0.040 HD
ATOM     55  H   UNL     1      -8.582   7.118  18.266  0.00  0.00    +0.074 HD
BRANCH   4  56
ATOM     56  C   UNL     1      -8.225   5.269  16.328  0.00  0.00    -0.057 C 
ATOM     57  H   UNL     1      -7.830   5.509  15.334  0.00  0.00    +0.023 HD
ATOM     58  H   UNL     1      -8.452   4.199  16.333  0.00  0.00    +0.023 HD
ATOM     59  H   UNL     1      -7.431   5.449  17.057  0.00  0.00    +0.023 HD
ENDBRANCH   4  56
BRANCH  25  60
ATOM     60  C   UNL     1      -7.015  15.055  21.102  0.00  0.00    -0.053 C 
ATOM     61  H   UNL     1      -7.645  14.379  20.517  0.00  0.00    +0.024 HD
ATOM     62  H   UNL     1      -6.925  14.644  22.111  0.00  0.00    +0.024 HD
ATOM     63  H   UNL     1      -7.553  16.003  21.197  0.00  0.00    +0.024 HD
ENDBRANCH  25  60
BRANCH  31  64
ATOM     64  O   UNL     1      -7.456  11.261  17.614  0.00  0.00    -0.391 OA
ATOM     65  H   UNL     1      -7.887  11.655  16.828  0.00  0.00    +0.210 HD
ENDBRANCH  31  64
BRANCH  24  66
ATOM     66  O   UNL     1      -4.851  17.128  19.112  0.00  0.00    -0.373 OA
BRANCH  66  67
ATOM     67  C   UNL     1      -3.504  16.908  18.697  0.00  0.00    +0.037 C 
ATOM     68  H   UNL     1      -3.410  15.955  18.166  0.00  0.00    +0.052 HD
ATOM     69  H   UNL     1      -3.209  17.719  18.021  0.00  0.00    +0.052 HD
ATOM     70  H   UNL     1      -2.834  16.923  19.568  0.00  0.00    +0.052 HD
ENDBRANCH  66  67
ENDBRANCH  24  66
BRANCH   5  71
ATOM     71  O   UNL     1     -11.750   6.484  15.641  0.00  0.00    -0.379 OA
BRANCH  71  72
ATOM     72  C   UNL     1     -12.396   5.603  16.546  0.00  0.00    +0.037 C 
ATOM     73  H   UNL     1     -11.728   5.356  17.375  0.00  0.00    +0.052 HD
ATOM     74  H   UNL     1     -12.633   4.680  16.008  0.00  0.00    +0.052 HD
ATOM     75  H   UNL     1     -13.330   6.021  16.928  0.00  0.00    +0.052 HD
ENDBRANCH  71  72
ENDBRANCH   5  71
ENDBRANCH   1  36
BRANCH   1  76
ATOM     76  C   UNL     1     -10.805   8.160  19.091  0.00  0.00    +0.064 C 
ATOM     77  H   UNL     1     -11.200   7.137  19.150  0.00  0.00    +0.060 HD
BRANCH  76  78
ATOM     78  C   UNL     1      -9.694   8.326  20.178  0.00  0.00    -0.017 C 
ATOM     79  H   UNL     1      -8.927   7.556  19.998  0.00  0.00    +0.032 HD
BRANCH  78  80
ATOM     80  C   UNL     1      -8.970   9.671  20.096  0.00  0.00    -0.060 C 
ATOM     81  H   UNL     1      -8.196   9.748  20.865  0.00  0.00    +0.023 HD
ATOM     82  H   UNL     1      -9.663  10.508  20.218  0.00  0.00    +0.023 HD
ATOM     83  H   UNL     1      -8.454   9.790  19.137  0.00  0.00    +0.023 HD
ENDBRANCH  78  80
BRANCH  78  84
ATOM     84  C   UNL     1     -10.325   8.079  21.576  0.00  0.00    -0.045 C 
ATOM     85  H   UNL     1     -11.140   8.789  21.737  0.00  0.00    +0.027 HD
ATOM     86  H   UNL     1     -10.807   7.094  21.565  0.00  0.00    +0.027 HD
BRANCH  84  87
ATOM     87  C   UNL     1      -9.351   8.067  22.762  0.00  0.00    -0.015 C 
ATOM     88  H   UNL     1      -9.057   7.018  22.897  0.00  0.00    +0.030 HD
ATOM     89  H   UNL     1      -8.444   8.624  22.502  0.00  0.00    +0.030 HD
BRANCH  87  90
ATOM     90  C   UNL     1      -9.934   8.572  24.100  0.00  0.00    +0.109 C 
ATOM     91  H   UNL     1      -9.121   9.041  24.657  0.00  0.00    +0.074 HD
BRANCH  90  92
ATOM     92  C   UNL     1     -10.495   7.395  24.955  0.00  0.00    +0.031 C 
ATOM     93  H   UNL     1     -10.512   6.508  24.306  0.00  0.00    +0.037 HD
BRANCH  92  94
ATOM     94  C   UNL     1     -11.950   7.639  25.397  0.00  0.00    -0.056 C 
ATOM     95  H   UNL     1     -11.996   8.159  26.359  0.00  0.00    +0.023 HD
ATOM     96  H   UNL     1     -12.511   6.706  25.492  0.00  0.00    +0.023 HD
ATOM     97  H   UNL     1     -12.470   8.273  24.672  0.00  0.00    +0.023 HD
ENDBRANCH  92  94
BRANCH  92  98
ATOM     98  C   UNL     1      -9.622   7.025  26.200  0.00  0.00    +0.115 C 
ATOM     99  H   UNL     1     -10.270   7.143  27.079  0.00  0.00    +0.074 HD
BRANCH  98 100
ATOM    100  C   UNL     1      -9.069   5.575  26.212  0.00  0.00    +0.013 C 
ATOM    101  H   UNL     1      -8.042   5.585  25.832  0.00  0.00    +0.038 HD
BRANCH 100 102
ATOM    102  C   UNL     1      -9.889   4.613  25.346  0.00  0.00    -0.056 C 
ATOM    103  H   UNL     1     -10.897   4.467  25.739  0.00  0.00    +0.024 HD
ATOM    104  H   UNL     1      -9.990   5.002  24.328  0.00  0.00    +0.024 HD
ATOM    105  H   UNL     1      -9.415   3.626  25.284  0.00  0.00    +0.024 HD
ENDBRANCH 100 102
BRANCH 100 106
ATOM    106  C   UNL     1      -9.025   5.023  27.629  0.00  0.00    -0.064 C 
ATOM    107  C   UNL     1     -10.117   4.897  28.399  0.00  0.00    -0.005 C 
ATOM    108  H   UNL     1      -8.049   4.709  27.984  0.00  0.00    +0.059 HD
ATOM    109  H   UNL     1     -11.080   5.191  27.981  0.00  0.00    +0.078 HD
BRANCH 107 110
ATOM    110  N   UNL     1     -10.178   4.408  29.695  0.00  0.00    -0.284 N 
ATOM    111  C   UNL     1      -9.847   5.127  30.844  0.00  0.00    +0.206 C 
ATOM    112  O   UNL     1      -9.462   6.283  30.948  0.00  0.00    -0.279 OA
ATOM    113  H   UNL     1      -9.985   4.521  31.755  0.00  0.00    +0.126 HD
BRANCH 110 114
ATOM    114  C   UNL     1     -10.672   3.044  29.855  0.00  0.00    +0.007 C 
ATOM    115  H   UNL     1     -10.803   2.779  30.908  0.00  0.00    +0.043 HD
ATOM    116  H   UNL     1     -11.641   2.958  29.353  0.00  0.00    +0.043 HD
ATOM    117  H   UNL     1      -9.965   2.344  29.403  0.00  0.00    +0.043 HD
ENDBRANCH 110 114
ENDBRANCH 107 110
ENDBRANCH 100 106
ENDBRANCH  98 100
BRANCH  98 118
ATOM    118  O   UNL     1      -8.494   7.927  26.273  0.00  0.00    -0.461 OA
BRANCH 118 119
ATOM    119  C   UNL     1      -8.543   8.885  27.240  0.00  0.00    +0.304 C 
ATOM    120  O   UNL     1      -7.805   9.857  27.328  0.00  0.00    -0.251 OA
BRANCH 119 121
ATOM    121  C   UNL     1      -9.619   8.568  28.230  0.00  0.00    +0.033 C 
ATOM    122  H   UNL     1     -10.121   9.487  28.542  0.00  0.00    +0.034 HD
ATOM    123  H   UNL     1     -10.355   7.906  27.766  0.00  0.00    +0.034 HD
ATOM    124  H   UNL     1      -9.193   8.047  29.093  0.00  0.00    +0.034 HD
ENDBRANCH 119 121
ENDBRANCH 118 119
ENDBRANCH  98 118
ENDBRANCH  92  98
ENDBRANCH  90  92
BRANCH  90 125
ATOM    125  O   UNL     1     -10.989   9.520  23.830  0.00  0.00    -0.459 OA
BRANCH 125 126
ATOM    126  C   UNL     1     -10.814  10.797  24.294  0.00  0.00    +0.339 C 
ATOM    127  O   UNL     1     -10.554  11.093  25.454  0.00  0.00    -0.248 OA
BRANCH 126 128
ATOM    128  C   UNL     1     -10.902  11.795  23.132  0.00  0.00    +0.178 C 
ATOM    129  H   UNL     1     -11.499  12.652  23.475  0.00  0.00    +0.074 HD
BRANCH 128 130
ATOM    130  C   UNL     1      -9.485  12.299  22.820  0.00  0.00    +0.084 C 
ATOM    131  H   UNL     1      -9.387  12.434  21.738  0.00  0.00    +0.059 HD
ATOM    132  H   UNL     1      -8.737  11.556  23.118  0.00  0.00    +0.059 HD
BRANCH 130 133
ATOM    133  O   UNL     1      -9.131  13.555  23.409  0.00  0.00    -0.380 OA
BRANCH 133 134
ATOM    134  C   UNL     1      -8.091  13.467  24.376  0.00  0.00    +0.037 C 
ATOM    135  H   UNL     1      -7.934  14.425  24.878  0.00  0.00    +0.052 HD
ATOM    136  H   UNL     1      -8.388  12.729  25.127  0.00  0.00    +0.052 HD
ATOM    137  H   UNL     1      -7.165  13.112  23.915  0.00  0.00    +0.052 HD
ENDBRANCH 133 134
ENDBRANCH 130 133
ENDBRANCH 128 130
BRANCH 128 138
ATOM    138  O   UNL     1     -11.499  11.330  21.918  0.00  0.00    -0.366 OA
BRANCH 138 139
ATOM    139  C   UNL     1     -11.491  12.304  20.884  0.00  0.00    +0.038 C 
ATOM    140  H   UNL     1     -11.963  13.209  21.270  0.00  0.00    +0.052 HD
ATOM    141  H   UNL     1     -10.467  12.546  20.590  0.00  0.00    +0.052 HD
ATOM    142  H   UNL     1     -12.059  11.965  20.013  0.00  0.00    +0.052 HD
ENDBRANCH 138 139
ENDBRANCH 128 138
ENDBRANCH 126 128
ENDBRANCH 125 126
ENDBRANCH  90 125
ENDBRANCH  87  90
ENDBRANCH  84  87
ENDBRANCH  78  84
ENDBRANCH  76  78
BRANCH  76 143
ATOM    143  O   UNL     1     -11.868   9.107  19.266  0.00  0.00    -0.379 OA
BRANCH 143 144
ATOM    144  C   UNL     1     -12.188   9.799  18.064  0.00  0.00    +0.037 C 
ATOM    145  H   UNL     1     -12.253   9.066  17.256  0.00  0.00    +0.052 HD
ATOM    146  H   UNL     1     -11.417  10.531  17.818  0.00  0.00    +0.052 HD
ATOM    147  H   UNL     1     -13.159  10.295  18.164  0.00  0.00    +0.052 HD
ENDBRANCH 143 144
ENDBRANCH  76 143
ENDBRANCH   1  76
TORSDOF 35
ENDMDL
MODEL 8
REMARK VINA RESULT:      -4.7      9.845     16.701
REMARK  Name = Mycalolide B_conf2
REMARK  35 active torsions:
REMARK  status: ('A' for Active; 'I' for Inactive)
REMARK    1  A    between atoms: C_1  and  C_2
REMARK    2  A    between atoms: C_3  and  O_72
REMARK    3  A    between atoms: C_22  and  O_70
REMARK    4  A    between atoms: C_23  and  C_69
REMARK    5  A    between atoms: C_29  and  O_68
REMARK    6  A    between atoms: C_34  and  C_35
REMARK    7  A    between atoms: C_35  and  C_36
REMARK    8  A    between atoms: C_36  and  C_37
REMARK    9  A    between atoms: C_36  and  O_66
REMARK   10  A    between atoms: C_37  and  C_38
REMARK   11  A    between atoms: C_37  and  C_39
REMARK   12  A    between atoms: C_39  and  C_40
REMARK   13  A    between atoms: C_40  and  C_41
REMARK   14  A    between atoms: C_41  and  C_42
REMARK   15  A    between atoms: C_41  and  O_57
REMARK   16  A    between atoms: C_42  and  C_43
REMARK   17  A    between atoms: C_42  and  C_44
REMARK   18  A    between atoms: C_44  and  C_45
REMARK   19  A    between atoms: C_44  and  O_53
REMARK   20  A    between atoms: C_45  and  C_46
REMARK   21  A    between atoms: C_45  and  C_47
REMARK   22  A    between atoms: C_48  and  N_49
REMARK   23  A    between atoms: N_49  and  C_50
REMARK   24  A    between atoms: O_53  and  C_54
REMARK   25  A    between atoms: C_54  and  C_56
REMARK   26  A    between atoms: O_57  and  C_58
REMARK   27  A    between atoms: C_58  and  C_60
REMARK   28  A    between atoms: C_60  and  C_61
REMARK   29  A    between atoms: C_60  and  O_64
REMARK   30  A    between atoms: C_61  and  O_62
REMARK   31  A    between atoms: O_62  and  C_63
REMARK   32  A    between atoms: O_64  and  C_65
REMARK   33  A    between atoms: O_66  and  C_67
REMARK   34  A    between atoms: O_70  and  C_71
REMARK   35  A    between atoms: O_72  and  C_73
REMARK                            x       y       z     vdW  Elec       q    Type
REMARK                         _______ _______ _______ _____ _____    ______ ____
ROOT
ATOM      1  C   UNL     1     -10.137   8.321  17.603  0.00  0.00    +0.011 C 
ATOM      2  H   UNL     1      -9.977   9.251  17.047  0.00  0.00    +0.033 HD
ATOM      3  H   UNL     1     -11.095   7.938  17.253  0.00  0.00    +0.033 HD
ENDROOT
BRANCH   1  36
ATOM      4  C   UNL     1      -9.365   6.029  16.546  0.00  0.00    +0.020 C 
ATOM      5  C   UNL     1     -10.242   6.064  15.258  0.00  0.00    +0.068 C 
ATOM      6  C   UNL     1      -9.774   6.971  14.088  0.00  0.00    -0.008 C 
ATOM      7  C   UNL     1     -10.109   8.432  14.206  0.00  0.00    -0.077 C 
ATOM      8  C   UNL     1     -11.224   8.990  13.704  0.00  0.00    -0.003 C 
ATOM      9  C   UNL     1     -11.529  10.355  13.953  0.00  0.00    +0.220 A 
ATOM     10  N   UNL     1     -10.791  11.224  14.631  0.00  0.00    -0.205 NA
ATOM     11  C   UNL     1     -11.533  12.378  14.666  0.00  0.00    +0.164 A 
ATOM     12  C   UNL     1     -12.702  12.198  13.985  0.00  0.00    +0.125 A 
ATOM     13  O   UNL     1     -12.709  10.927  13.501  0.00  0.00    -0.443 OA
ATOM     14  C   UNL     1     -11.120  13.694  15.390  0.00  0.00    +0.250 A 
ATOM     15  N   UNL     1      -9.981  13.845  16.044  0.00  0.00    -0.203 NA
ATOM     16  C   UNL     1     -10.040  15.128  16.529  0.00  0.00    +0.164 A 
ATOM     17  C   UNL     1     -11.221  15.715  16.156  0.00  0.00    +0.125 A 
ATOM     18  O   UNL     1     -11.924  14.811  15.420  0.00  0.00    -0.442 OA
ATOM     19  C   UNL     1      -8.937  15.828  17.378  0.00  0.00    +0.249 A 
ATOM     20  N   UNL     1      -7.796  15.250  17.714  0.00  0.00    -0.210 NA
ATOM     21  C   UNL     1      -7.120  16.211  18.432  0.00  0.00    +0.109 A 
ATOM     22  C   UNL     1      -7.892  17.346  18.511  0.00  0.00    +0.118 A 
ATOM     23  O   UNL     1      -9.056  17.117  17.848  0.00  0.00    -0.442 OA
ATOM     24  C   UNL     1      -5.760  15.939  18.989  0.00  0.00    +0.113 C 
ATOM     25  C   UNL     1      -5.770  15.270  20.385  0.00  0.00    +0.051 C 
ATOM     26  C   UNL     1      -4.976  13.971  20.291  0.00  0.00    +0.161 C 
ATOM     27  O   UNL     1      -3.838  13.893  20.758  0.00  0.00    -0.292 OA
ATOM     28  C   UNL     1      -5.580  12.807  19.579  0.00  0.00    -0.023 C 
ATOM     29  C   UNL     1      -4.802  11.791  19.163  0.00  0.00    -0.078 C 
ATOM     30  C   UNL     1      -5.293  10.554  18.461  0.00  0.00    -0.008 C 
ATOM     31  C   UNL     1      -6.133  10.807  17.191  0.00  0.00    +0.069 C 
ATOM     32  C   UNL     1      -6.222   9.574  16.287  0.00  0.00    +0.071 C 
ATOM     33  C   UNL     1      -6.848   8.400  16.999  0.00  0.00    +0.310 C 
ATOM     34  O   UNL     1      -6.342   7.811  17.944  0.00  0.00    -0.251 OA
ATOM     35  O   UNL     1      -8.059   8.112  16.447  0.00  0.00    -0.461 OA
ATOM     36  C   UNL     1      -8.991   7.355  17.256  0.00  0.00    +0.110 C 
ATOM     37  H   UNL     1      -9.919   5.452  17.294  0.00  0.00    +0.036 HD
ATOM     38  H   UNL     1     -10.231   5.047  14.840  0.00  0.00    +0.060 HD
ATOM     39  H   UNL     1     -10.255   6.597  13.175  0.00  0.00    +0.033 HD
ATOM     40  H   UNL     1      -8.696   6.858  13.917  0.00  0.00    +0.033 HD
ATOM     41  H   UNL     1      -9.417   9.058  14.766  0.00  0.00    +0.057 HD
ATOM     42  H   UNL     1     -11.954   8.398  13.164  0.00  0.00    +0.067 HD
ATOM     43  H   UNL     1     -13.555  12.817  13.739  0.00  0.00    +0.105 HD
ATOM     44  H   UNL     1     -11.677  16.680  16.313  0.00  0.00    +0.105 HD
ATOM     45  H   UNL     1      -7.767  18.321  18.958  0.00  0.00    +0.105 HD
ATOM     46  H   UNL     1      -5.248  15.277  18.273  0.00  0.00    +0.067 HD
ATOM     47  H   UNL     1      -5.200  15.898  21.084  0.00  0.00    +0.041 HD
ATOM     48  H   UNL     1      -6.651  12.808  19.397  0.00  0.00    +0.065 HD
ATOM     49  H   UNL     1      -3.725  11.836  19.355  0.00  0.00    +0.057 HD
ATOM     50  H   UNL     1      -4.408   9.969  18.190  0.00  0.00    +0.033 HD
ATOM     51  H   UNL     1      -5.864   9.973  19.194  0.00  0.00    +0.033 HD
ATOM     52  H   UNL     1      -5.673  11.620  16.615  0.00  0.00    +0.060 HD
ATOM     53  H   UNL     1      -5.233   9.265  15.936  0.00  0.00    +0.040 HD
ATOM     54  H   UNL     1      -6.817   9.812  15.396  0.00  0.00    +0.040 HD
ATOM     55  H   UNL     1      -8.500   7.070  18.197  0.00  0.00    +0.074 HD
BRANCH   4  56
ATOM     56  C   UNL     1      -8.080   5.228  16.264  0.00  0.00    -0.057 C 
ATOM     57  H   UNL     1      -8.297   4.156  16.203  0.00  0.00    +0.023 HD
ATOM     58  H   UNL     1      -7.356   5.364  17.073  0.00  0.00    +0.023 HD
ATOM     59  H   UNL     1      -7.602   5.528  15.329  0.00  0.00    +0.023 HD
ENDBRANCH   4  56
BRANCH  25  60
ATOM     60  C   UNL     1      -7.126  15.037  21.050  0.00  0.00    -0.053 C 
ATOM     61  H   UNL     1      -7.728  15.950  21.035  0.00  0.00    +0.024 HD
ATOM     62  H   UNL     1      -7.706  14.243  20.571  0.00  0.00    +0.024 HD
ATOM     63  H   UNL     1      -7.002  14.745  22.097  0.00  0.00    +0.024 HD
ENDBRANCH  25  60
BRANCH  31  64
ATOM     64  O   UNL     1      -7.447  11.234  17.558  0.00  0.00    -0.391 OA
ATOM     65  H   UNL     1      -7.873  10.512  18.062  0.00  0.00    +0.210 HD
ENDBRANCH  31  64
BRANCH  24  66
ATOM     66  O   UNL     1      -4.978  17.152  19.088  0.00  0.00    -0.373 OA
BRANCH  66  67
ATOM     67  C   UNL     1      -3.599  16.936  18.792  0.00  0.00    +0.037 C 
ATOM     68  H   UNL     1      -3.197  17.755  18.187  0.00  0.00    +0.052 HD
ATOM     69  H   UNL     1      -3.042  16.888  19.735  0.00  0.00    +0.052 HD
ATOM     70  H   UNL     1      -3.471  15.979  18.266  0.00  0.00    +0.052 HD
ENDBRANCH  66  67
ENDBRANCH  24  66
BRANCH   5  71
ATOM     71  O   UNL     1     -11.619   6.373  15.530  0.00  0.00    -0.379 OA
BRANCH  71  72
ATOM     72  C   UNL     1     -12.253   5.495  16.448  0.00  0.00    +0.037 C 
ATOM     73  H   UNL     1     -12.750   6.066  17.235  0.00  0.00    +0.052 HD
ATOM     74  H   UNL     1     -11.479   4.873  16.909  0.00  0.00    +0.052 HD
ATOM     75  H   UNL     1     -12.968   4.834  15.953  0.00  0.00    +0.052 HD
ENDBRANCH  71  72
ENDBRANCH   5  71
ENDBRANCH   1  36
BRANCH   1  76
ATOM     76  C   UNL     1     -10.246   8.629  19.109  0.00  0.00    +0.064 C 
ATOM     77  H   UNL     1      -9.395   8.182  19.639  0.00  0.00    +0.060 HD
BRANCH  76  78
ATOM     78  C   UNL     1     -10.211  10.176  19.332  0.00  0.00    -0.017 C 
ATOM     79  H   UNL     1      -9.770  10.637  18.434  0.00  0.00    +0.032 HD
BRANCH  78  80
ATOM     80  C   UNL     1     -11.603  10.792  19.485  0.00  0.00    -0.060 C 
ATOM     81  H   UNL     1     -12.313  10.063  19.888  0.00  0.00    +0.023 HD
ATOM     82  H   UNL     1     -11.988  11.158  18.529  0.00  0.00    +0.023 HD
ATOM     83  H   UNL     1     -11.594  11.627  20.194  0.00  0.00    +0.023 HD
ENDBRANCH  78  80
BRANCH  78  84
ATOM     84  C   UNL     1      -9.294  10.483  20.548  0.00  0.00    -0.045 C 
ATOM     85  H   UNL     1      -9.483   9.752  21.339  0.00  0.00    +0.027 HD
ATOM     86  H   UNL     1      -8.254  10.307  20.245  0.00  0.00    +0.027 HD
BRANCH  84  87
ATOM     87  C   UNL     1      -9.347  11.918  21.087  0.00  0.00    -0.015 C 
ATOM     88  H   UNL     1      -8.347  12.340  20.916  0.00  0.00    +0.030 HD
ATOM     89  H   UNL     1     -10.051  12.511  20.493  0.00  0.00    +0.030 HD
BRANCH  87  90
ATOM     90  C   UNL     1      -9.665  12.046  22.593  0.00  0.00    +0.109 C 
ATOM     91  H   UNL     1      -8.957  11.416  23.133  0.00  0.00    +0.074 HD
BRANCH  90  92
ATOM     92  C   UNL     1     -11.107  11.546  22.914  0.00  0.00    +0.031 C 
ATOM     93  H   UNL     1     -11.535  11.178  21.971  0.00  0.00    +0.037 HD
BRANCH  92  94
ATOM     94  C   UNL     1     -12.024  12.686  23.393  0.00  0.00    -0.056 C 
ATOM     95  H   UNL     1     -12.500  13.200  22.552  0.00  0.00    +0.023 HD
ATOM     96  H   UNL     1     -11.479  13.432  23.978  0.00  0.00    +0.023 HD
ATOM     97  H   UNL     1     -12.832  12.292  24.018  0.00  0.00    +0.023 HD
ENDBRANCH  92  94
BRANCH  92  98
ATOM     98  C   UNL     1     -11.168  10.358  23.930  0.00  0.00    +0.115 C 
ATOM     99  H   UNL     1     -12.089  10.496  24.514  0.00  0.00    +0.074 HD
BRANCH  98 100
ATOM    100  C   UNL     1     -11.222   8.944  23.292  0.00  0.00    +0.013 C 
ATOM    101  H   UNL     1     -10.985   9.028  22.226  0.00  0.00    +0.038 HD
BRANCH 100 102
ATOM    102  C   UNL     1     -12.596   8.279  23.423  0.00  0.00    -0.056 C 
ATOM    103  H   UNL     1     -13.270   8.855  24.061  0.00  0.00    +0.024 HD
ATOM    104  H   UNL     1     -13.075   8.187  22.443  0.00  0.00    +0.024 HD
ATOM    105  H   UNL     1     -12.515   7.274  23.854  0.00  0.00    +0.024 HD
ENDBRANCH 100 102
BRANCH 100 106
ATOM    106  C   UNL     1     -10.184   8.026  23.919  0.00  0.00    -0.064 C 
ATOM    107  C   UNL     1     -10.470   7.171  24.913  0.00  0.00    -0.005 C 
ATOM    108  H   UNL     1      -9.186   8.082  23.497  0.00  0.00    +0.059 HD
ATOM    109  H   UNL     1     -11.497   7.125  25.275  0.00  0.00    +0.078 HD
BRANCH 107 110
ATOM    110  N   UNL     1      -9.598   6.298  25.546  0.00  0.00    -0.284 N 
ATOM    111  C   UNL     1      -8.473   6.675  26.280  0.00  0.00    +0.206 C 
ATOM    112  O   UNL     1      -8.045   7.796  26.518  0.00  0.00    -0.279 OA
ATOM    113  H   UNL     1      -7.945   5.799  26.691  0.00  0.00    +0.126 HD
BRANCH 110 114
ATOM    114  C   UNL     1      -9.922   4.877  25.464  0.00  0.00    +0.007 C 
ATOM    115  H   UNL     1     -10.606   4.569  26.259  0.00  0.00    +0.043 HD
ATOM    116  H   UNL     1     -10.400   4.680  24.499  0.00  0.00    +0.043 HD
ATOM    117  H   UNL     1      -9.005   4.289  25.542  0.00  0.00    +0.043 HD
ENDBRANCH 110 114
ENDBRANCH 107 110
ENDBRANCH 100 106
ENDBRANCH  98 100
BRANCH  98 118
ATOM    118  O   UNL     1     -10.007  10.409  24.791  0.00  0.00    -0.461 OA
BRANCH 118 119
ATOM    119  C   UNL     1     -10.219  10.806  26.075  0.00  0.00    +0.304 C 
ATOM    120  O   UNL     1      -9.373  11.250  26.840  0.00  0.00    -0.251 OA
BRANCH 119 121
ATOM    121  C   UNL     1     -11.650  10.590  26.456  0.00  0.00    +0.033 C 
ATOM    122  H   UNL     1     -12.263  11.417  26.090  0.00  0.00    +0.034 HD
ATOM    123  H   UNL     1     -12.008   9.661  26.004  0.00  0.00    +0.034 HD
ATOM    124  H   UNL     1     -11.738  10.493  27.543  0.00  0.00    +0.034 HD
ENDBRANCH 119 121
ENDBRANCH 118 119
ENDBRANCH  98 118
ENDBRANCH  92  98
ENDBRANCH  90  92
BRANCH  90 125
ATOM    125  O   UNL     1      -9.532  13.428  22.989  0.00  0.00    -0.459 OA
BRANCH 125 126
ATOM    126  C   UNL     1      -8.709  13.697  24.050  0.00  0.00    +0.339 C 
ATOM    127  O   UNL     1      -7.825  12.954  24.460  0.00  0.00    -0.248 OA
BRANCH 126 128
ATOM    128  C   UNL     1      -8.996  15.103  24.594  0.00  0.00    +0.178 C 
ATOM    129  H   UNL     1      -9.740  15.003  25.396  0.00  0.00    +0.074 HD
BRANCH 128 130
ATOM    130  C   UNL     1      -7.702  15.654  25.212  0.00  0.00    +0.084 C 
ATOM    131  H   UNL     1      -7.094  14.817  25.568  0.00  0.00    +0.059 HD
ATOM    132  H   UNL     1      -7.927  16.279  26.085  0.00  0.00    +0.059 HD
BRANCH 130 133
ATOM    133  O   UNL     1      -6.863  16.404  24.327  0.00  0.00    -0.380 OA
BRANCH 133 134
ATOM    134  C   UNL     1      -6.206  17.503  24.947  0.00  0.00    +0.037 C 
ATOM    135  H   UNL     1      -6.438  18.443  24.438  0.00  0.00    +0.052 HD
ATOM    136  H   UNL     1      -6.561  17.573  25.979  0.00  0.00    +0.052 HD
ATOM    137  H   UNL     1      -5.125  17.337  24.982  0.00  0.00    +0.052 HD
ENDBRANCH 133 134
ENDBRANCH 130 133
ENDBRANCH 128 130
BRANCH 128 138
ATOM    138  O   UNL     1      -9.506  16.067  23.669  0.00  0.00    -0.366 OA
BRANCH 138 139
ATOM    139  C   UNL     1     -10.748  16.625  24.073  0.00  0.00    +0.038 C 
ATOM    140  H   UNL     1     -11.340  16.815  23.176  0.00  0.00    +0.052 HD
ATOM    141  H   UNL     1     -11.297  15.925  24.708  0.00  0.00    +0.052 HD
ATOM    142  H   UNL     1     -10.607  17.574  24.599  0.00  0.00    +0.052 HD
ENDBRANCH 138 139
ENDBRANCH 128 138
ENDBRANCH 126 128
ENDBRANCH 125 126
ENDBRANCH  90 125
ENDBRANCH  87  90
ENDBRANCH  84  87
ENDBRANCH  78  84
ENDBRANCH  76  78
BRANCH  76 143
ATOM    143  O   UNL     1     -11.473   8.050  19.574  0.00  0.00    -0.379 OA
BRANCH 143 144
ATOM    144  C   UNL     1     -11.276   6.800  20.226  0.00  0.00    +0.037 C 
ATOM    145  H   UNL     1     -10.750   6.135  19.536  0.00  0.00    +0.052 HD
ATOM    146  H   UNL     1     -12.231   6.347  20.497  0.00  0.00    +0.052 HD
ATOM    147  H   UNL     1     -10.658   6.937  21.119  0.00  0.00    +0.052 HD
ENDBRANCH 143 144
ENDBRANCH  76 143
ENDBRANCH   1  76
TORSDOF 35
ENDMDL
MODEL 9
REMARK VINA RESULT:      -4.7     10.098     17.426
REMARK  Name = Mycalolide B_conf2
REMARK  35 active torsions:
REMARK  status: ('A' for Active; 'I' for Inactive)
REMARK    1  A    between atoms: C_1  and  C_2
REMARK    2  A    between atoms: C_3  and  O_72
REMARK    3  A    between atoms: C_22  and  O_70
REMARK    4  A    between atoms: C_23  and  C_69
REMARK    5  A    between atoms: C_29  and  O_68
REMARK    6  A    between atoms: C_34  and  C_35
REMARK    7  A    between atoms: C_35  and  C_36
REMARK    8  A    between atoms: C_36  and  C_37
REMARK    9  A    between atoms: C_36  and  O_66
REMARK   10  A    between atoms: C_37  and  C_38
REMARK   11  A    between atoms: C_37  and  C_39
REMARK   12  A    between atoms: C_39  and  C_40
REMARK   13  A    between atoms: C_40  and  C_41
REMARK   14  A    between atoms: C_41  and  C_42
REMARK   15  A    between atoms: C_41  and  O_57
REMARK   16  A    between atoms: C_42  and  C_43
REMARK   17  A    between atoms: C_42  and  C_44
REMARK   18  A    between atoms: C_44  and  C_45
REMARK   19  A    between atoms: C_44  and  O_53
REMARK   20  A    between atoms: C_45  and  C_46
REMARK   21  A    between atoms: C_45  and  C_47
REMARK   22  A    between atoms: C_48  and  N_49
REMARK   23  A    between atoms: N_49  and  C_50
REMARK   24  A    between atoms: O_53  and  C_54
REMARK   25  A    between atoms: C_54  and  C_56
REMARK   26  A    between atoms: O_57  and  C_58
REMARK   27  A    between atoms: C_58  and  C_60
REMARK   28  A    between atoms: C_60  and  C_61
REMARK   29  A    between atoms: C_60  and  O_64
REMARK   30  A    between atoms: C_61  and  O_62
REMARK   31  A    between atoms: O_62  and  C_63
REMARK   32  A    between atoms: O_64  and  C_65
REMARK   33  A    between atoms: O_66  and  C_67
REMARK   34  A    between atoms: O_70  and  C_71
REMARK   35  A    between atoms: O_72  and  C_73
REMARK                            x       y       z     vdW  Elec       q    Type
REMARK                         _______ _______ _______ _____ _____    ______ ____
ROOT
ATOM      1  C   UNL     1     -10.118   8.255  17.420  0.00  0.00    +0.011 C 
ATOM      2  H   UNL     1      -9.754   9.281  17.300  0.00  0.00    +0.033 HD
ATOM      3  H   UNL     1     -10.937   8.155  16.708  0.00  0.00    +0.033 HD
ENDROOT
BRANCH   1  36
ATOM      4  C   UNL     1      -9.321   5.981  16.342  0.00  0.00    +0.020 C 
ATOM      5  C   UNL     1     -10.177   6.033  15.040  0.00  0.00    +0.068 C 
ATOM      6  C   UNL     1      -9.692   6.959  13.892  0.00  0.00    -0.008 C 
ATOM      7  C   UNL     1     -10.033   8.417  14.026  0.00  0.00    -0.077 C 
ATOM      8  C   UNL     1     -11.141   8.980  13.513  0.00  0.00    -0.003 C 
ATOM      9  C   UNL     1     -11.455  10.340  13.778  0.00  0.00    +0.220 A 
ATOM     10  N   UNL     1     -10.730  11.201  14.482  0.00  0.00    -0.205 NA
ATOM     11  C   UNL     1     -11.476  12.352  14.522  0.00  0.00    +0.164 A 
ATOM     12  C   UNL     1     -12.634  12.179  13.819  0.00  0.00    +0.125 A 
ATOM     13  O   UNL     1     -12.628  10.916  13.315  0.00  0.00    -0.443 OA
ATOM     14  C   UNL     1     -11.079  13.658  15.272  0.00  0.00    +0.250 A 
ATOM     15  N   UNL     1      -9.952  13.803  15.947  0.00  0.00    -0.203 NA
ATOM     16  C   UNL     1     -10.024  15.078  16.451  0.00  0.00    +0.164 A 
ATOM     17  C   UNL     1     -11.200  15.667  16.067  0.00  0.00    +0.125 A 
ATOM     18  O   UNL     1     -11.887  14.773  15.306  0.00  0.00    -0.442 OA
ATOM     19  C   UNL     1      -8.937  15.768  17.329  0.00  0.00    +0.249 A 
ATOM     20  N   UNL     1      -7.800  15.188  17.675  0.00  0.00    -0.210 NA
ATOM     21  C   UNL     1      -7.139  16.139  18.419  0.00  0.00    +0.109 A 
ATOM     22  C   UNL     1      -7.915  17.271  18.502  0.00  0.00    +0.118 A 
ATOM     23  O   UNL     1      -9.067  17.049  17.815  0.00  0.00    -0.442 OA
ATOM     24  C   UNL     1      -5.788  15.863  18.994  0.00  0.00    +0.113 C 
ATOM     25  C   UNL     1      -5.819  15.173  20.379  0.00  0.00    +0.051 C 
ATOM     26  C   UNL     1      -5.020  13.877  20.279  0.00  0.00    +0.161 C 
ATOM     27  O   UNL     1      -3.889  13.796  20.764  0.00  0.00    -0.292 OA
ATOM     28  C   UNL     1      -5.608  12.722  19.540  0.00  0.00    -0.023 C 
ATOM     29  C   UNL     1      -4.820  11.715  19.122  0.00  0.00    -0.078 C 
ATOM     30  C   UNL     1      -5.296  10.488  18.393  0.00  0.00    -0.008 C 
ATOM     31  C   UNL     1      -6.115  10.757  17.113  0.00  0.00    +0.069 C 
ATOM     32  C   UNL     1      -6.186   9.538  16.189  0.00  0.00    +0.071 C 
ATOM     33  C   UNL     1      -6.820   8.352  16.873  0.00  0.00    +0.310 C 
ATOM     34  O   UNL     1      -6.328   7.750  17.817  0.00  0.00    -0.251 OA
ATOM     35  O   UNL     1      -8.020   8.069  16.297  0.00  0.00    -0.461 OA
ATOM     36  C   UNL     1      -8.964   7.298  17.078  0.00  0.00    +0.110 C 
ATOM     37  H   UNL     1      -9.887   5.391  17.072  0.00  0.00    +0.036 HD
ATOM     38  H   UNL     1     -10.156   5.022  14.607  0.00  0.00    +0.060 HD
ATOM     39  H   UNL     1     -10.157   6.598  12.965  0.00  0.00    +0.033 HD
ATOM     40  H   UNL     1      -8.612   6.851  13.737  0.00  0.00    +0.033 HD
ATOM     41  H   UNL     1      -9.353   9.036  14.607  0.00  0.00    +0.057 HD
ATOM     42  H   UNL     1     -11.861   8.394  12.953  0.00  0.00    +0.067 HD
ATOM     43  H   UNL     1     -13.484  12.799  13.567  0.00  0.00    +0.105 HD
ATOM     44  H   UNL     1     -11.662  16.628  16.230  0.00  0.00    +0.105 HD
ATOM     45  H   UNL     1      -7.801  18.239  18.966  0.00  0.00    +0.105 HD
ATOM     46  H   UNL     1      -5.262  15.213  18.278  0.00  0.00    +0.067 HD
ATOM     47  H   UNL     1      -5.263  15.792  21.097  0.00  0.00    +0.041 HD
ATOM     48  H   UNL     1      -6.676  12.723  19.340  0.00  0.00    +0.065 HD
ATOM     49  H   UNL     1      -3.747  11.760  19.333  0.00  0.00    +0.057 HD
ATOM     50  H   UNL     1      -4.405   9.909  18.129  0.00  0.00    +0.033 HD
ATOM     51  H   UNL     1      -5.878   9.894  19.108  0.00  0.00    +0.033 HD
ATOM     52  H   UNL     1      -5.648  11.581  16.558  0.00  0.00    +0.060 HD
ATOM     53  H   UNL     1      -5.190   9.237  15.850  0.00  0.00    +0.040 HD
ATOM     54  H   UNL     1      -6.766   9.788  15.292  0.00  0.00    +0.040 HD
ATOM     55  H   UNL     1      -8.488   6.999  18.023  0.00  0.00    +0.074 HD
BRANCH   4  56
ATOM     56  C   UNL     1      -8.030   5.188  16.070  0.00  0.00    -0.057 C 
ATOM     57  H   UNL     1      -8.226   4.110  16.087  0.00  0.00    +0.023 HD
ATOM     58  H   UNL     1      -7.282   5.391  16.842  0.00  0.00    +0.023 HD
ATOM     59  H   UNL     1      -7.590   5.434  15.101  0.00  0.00    +0.023 HD
ENDBRANCH   4  56
BRANCH  25  60
ATOM     60  C   UNL     1      -7.186  14.926  21.018  0.00  0.00    -0.053 C 
ATOM     61  H   UNL     1      -7.685  15.872  21.244  0.00  0.00    +0.024 HD
ATOM     62  H   UNL     1      -7.853  14.335  20.384  0.00  0.00    +0.024 HD
ATOM     63  H   UNL     1      -7.083  14.378  21.959  0.00  0.00    +0.024 HD
ENDBRANCH  25  60
BRANCH  31  64
ATOM     64  O   UNL     1      -7.437  11.175  17.464  0.00  0.00    -0.391 OA
ATOM     65  H   UNL     1      -7.416  12.138  17.640  0.00  0.00    +0.210 HD
ENDBRANCH  31  64
BRANCH  24  66
ATOM     66  O   UNL     1      -5.011  17.076  19.125  0.00  0.00    -0.373 OA
BRANCH  66  67
ATOM     67  C   UNL     1      -3.659  16.905  18.701  0.00  0.00    +0.037 C 
ATOM     68  H   UNL     1      -3.400  15.842  18.644  0.00  0.00    +0.052 HD
ATOM     69  H   UNL     1      -3.545  17.350  17.706  0.00  0.00    +0.052 HD
ATOM     70  H   UNL     1      -2.979  17.422  19.392  0.00  0.00    +0.052 HD
ENDBRANCH  66  67
ENDBRANCH  24  66
BRANCH   5  71
ATOM     71  O   UNL     1     -11.560   6.335  15.294  0.00  0.00    -0.379 OA
BRANCH  71  72
ATOM     72  C   UNL     1     -12.205   5.442  16.189  0.00  0.00    +0.037 C 
ATOM     73  H   UNL     1     -12.709   6.001  16.981  0.00  0.00    +0.052 HD
ATOM     74  H   UNL     1     -11.438   4.810  16.647  0.00  0.00    +0.052 HD
ATOM     75  H   UNL     1     -12.917   4.792  15.676  0.00  0.00    +0.052 HD
ENDBRANCH  71  72
ENDBRANCH   5  71
ENDBRANCH   1  36
BRANCH   1  76
ATOM     76  C   UNL     1     -10.673   8.064  18.845  0.00  0.00    +0.064 C 
ATOM     77  H   UNL     1     -10.790   6.993  19.054  0.00  0.00    +0.060 HD
BRANCH  76  78
ATOM     78  C   UNL     1      -9.669   8.664  19.883  0.00  0.00    -0.017 C 
ATOM     79  H   UNL     1      -8.648   8.457  19.526  0.00  0.00    +0.032 HD
BRANCH  78  80
ATOM     80  C   UNL     1      -9.774  10.186  20.008  0.00  0.00    -0.060 C 
ATOM     81  H   UNL     1     -10.608  10.572  19.416  0.00  0.00    +0.023 HD
ATOM     82  H   UNL     1      -8.856  10.680  19.678  0.00  0.00    +0.023 HD
ATOM     83  H   UNL     1      -9.973  10.488  21.042  0.00  0.00    +0.023 HD
ENDBRANCH  78  80
BRANCH  78  84
ATOM     84  C   UNL     1      -9.873   7.945  21.245  0.00  0.00    -0.045 C 
ATOM     85  H   UNL     1     -10.916   7.632  21.338  0.00  0.00    +0.027 HD
ATOM     86  H   UNL     1      -9.299   7.010  21.227  0.00  0.00    +0.027 HD
BRANCH  84  87
ATOM     87  C   UNL     1      -9.405   8.712  22.488  0.00  0.00    -0.015 C 
ATOM     88  H   UNL     1      -8.317   8.566  22.539  0.00  0.00    +0.030 HD
ATOM     89  H   UNL     1      -9.578   9.785  22.349  0.00  0.00    +0.030 HD
BRANCH  87  90
ATOM     90  C   UNL     1     -10.010   8.233  23.826  0.00  0.00    +0.109 C 
ATOM     91  H   UNL     1     -10.694   7.413  23.603  0.00  0.00    +0.074 HD
BRANCH  90  92
ATOM     92  C   UNL     1     -10.821   9.369  24.522  0.00  0.00    +0.031 C 
ATOM     93  H   UNL     1     -10.171   9.798  25.297  0.00  0.00    +0.037 HD
BRANCH  92  94
ATOM     94  C   UNL     1     -12.068   8.831  25.249  0.00  0.00    -0.056 C 
ATOM     95  H   UNL     1     -12.753   9.639  25.524  0.00  0.00    +0.023 HD
ATOM     96  H   UNL     1     -11.807   8.287  26.160  0.00  0.00    +0.023 HD
ATOM     97  H   UNL     1     -12.628   8.152  24.598  0.00  0.00    +0.023 HD
ENDBRANCH  92  94
BRANCH  92  98
ATOM     98  C   UNL     1     -11.230  10.545  23.575  0.00  0.00    +0.115 C 
ATOM     99  H   UNL     1     -10.608  10.450  22.674  0.00  0.00    +0.074 HD
BRANCH  98 100
ATOM    100  C   UNL     1     -12.716  10.544  23.124  0.00  0.00    +0.013 C 
ATOM    101  H   UNL     1     -13.352  10.397  24.004  0.00  0.00    +0.038 HD
BRANCH 100 102
ATOM    102  C   UNL     1     -13.035   9.438  22.114  0.00  0.00    -0.056 C 
ATOM    103  H   UNL     1     -12.356   9.456  21.260  0.00  0.00    +0.024 HD
ATOM    104  H   UNL     1     -12.944   8.452  22.581  0.00  0.00    +0.024 HD
ATOM    105  H   UNL     1     -14.055   9.533  21.724  0.00  0.00    +0.024 HD
ENDBRANCH 100 102
BRANCH 100 106
ATOM    106  C   UNL     1     -13.096  11.881  22.506  0.00  0.00    -0.064 C 
ATOM    107  C   UNL     1     -12.923  12.160  21.205  0.00  0.00    -0.005 C 
ATOM    108  H   UNL     1     -13.545  12.604  23.179  0.00  0.00    +0.059 HD
ATOM    109  H   UNL     1     -12.503  11.386  20.562  0.00  0.00    +0.078 HD
BRANCH 107 110
ATOM    110  N   UNL     1     -13.236  13.342  20.551  0.00  0.00    -0.284 N 
ATOM    111  C   UNL     1     -12.827  13.682  19.260  0.00  0.00    +0.206 C 
ATOM    112  O   UNL     1     -12.150  13.039  18.470  0.00  0.00    -0.279 OA
ATOM    113  H   UNL     1     -13.209  14.672  18.962  0.00  0.00    +0.126 HD
BRANCH 110 114
ATOM    114  C   UNL     1     -14.098  14.276  21.268  0.00  0.00    +0.007 C 
ATOM    115  H   UNL     1     -14.926  14.626  20.645  0.00  0.00    +0.043 HD
ATOM    116  H   UNL     1     -14.513  13.770  22.145  0.00  0.00    +0.043 HD
ATOM    117  H   UNL     1     -13.512  15.140  21.590  0.00  0.00    +0.043 HD
ENDBRANCH 110 114
ENDBRANCH 107 110
ENDBRANCH 100 106
ENDBRANCH  98 100
BRANCH  98 118
ATOM    118  O   UNL     1     -10.973  11.803  24.242  0.00  0.00    -0.461 OA
BRANCH 118 119
ATOM    119  C   UNL     1      -9.697  12.273  24.182  0.00  0.00    +0.304 C 
ATOM    120  O   UNL     1      -8.954  12.461  25.136  0.00  0.00    -0.251 OA
BRANCH 119 121
ATOM    121  C   UNL     1      -9.320  12.575  22.765  0.00  0.00    +0.033 C 
ATOM    122  H   UNL     1      -9.285  11.650  22.184  0.00  0.00    +0.034 HD
ATOM    123  H   UNL     1     -10.070  13.238  22.325  0.00  0.00    +0.034 HD
ATOM    124  H   UNL     1      -8.355  13.089  22.736  0.00  0.00    +0.034 HD
ENDBRANCH 119 121
ENDBRANCH 118 119
ENDBRANCH  98 118
ENDBRANCH  92  98
ENDBRANCH  90  92
BRANCH  90 125
ATOM    125  O   UNL     1      -8.945   7.794  24.697  0.00  0.00    -0.459 OA
BRANCH 125 126
ATOM    126  C   UNL     1      -9.253   6.834  25.624  0.00  0.00    +0.339 C 
ATOM    127  O   UNL     1      -9.647   5.704  25.361  0.00  0.00    -0.248 OA
BRANCH 126 128
ATOM    128  C   UNL     1      -8.945   7.349  27.036  0.00  0.00    +0.178 C 
ATOM    129  H   UNL     1      -9.904   7.521  27.543  0.00  0.00    +0.074 HD
BRANCH 128 130
ATOM    130  C   UNL     1      -8.196   6.246  27.799  0.00  0.00    +0.084 C 
ATOM    131  H   UNL     1      -7.191   6.605  28.047  0.00  0.00    +0.059 HD
ATOM    132  H   UNL     1      -8.071   5.357  27.171  0.00  0.00    +0.059 HD
BRANCH 130 133
ATOM    133  O   UNL     1      -8.787   5.841  29.039  0.00  0.00    -0.380 OA
BRANCH 133 134
ATOM    134  C   UNL     1      -8.212   6.461  30.183  0.00  0.00    +0.037 C 
ATOM    135  H   UNL     1      -7.701   7.390  29.917  0.00  0.00    +0.052 HD
ATOM    136  H   UNL     1      -9.019   6.700  30.881  0.00  0.00    +0.052 HD
ATOM    137  H   UNL     1      -7.529   5.774  30.692  0.00  0.00    +0.052 HD
ENDBRANCH 133 134
ENDBRANCH 130 133
ENDBRANCH 128 130
BRANCH 128 138
ATOM    138  O   UNL     1      -8.196   8.563  27.137  0.00  0.00    -0.366 OA
BRANCH 138 139
ATOM    139  C   UNL     1      -8.930   9.623  27.733  0.00  0.00    +0.038 C 
ATOM    140  H   UNL     1      -9.797   9.192  28.236  0.00  0.00    +0.052 HD
ATOM    141  H   UNL     1      -8.321  10.143  28.478  0.00  0.00    +0.052 HD
ATOM    142  H   UNL     1      -9.287  10.333  26.982  0.00  0.00    +0.052 HD
ENDBRANCH 138 139
ENDBRANCH 128 138
ENDBRANCH 126 128
ENDBRANCH 125 126
ENDBRANCH  90 125
ENDBRANCH  87  90
ENDBRANCH  84  87
ENDBRANCH  78  84
ENDBRANCH  76  78
BRANCH  76 143
ATOM    143  O   UNL     1     -11.949   8.717  18.897  0.00  0.00    -0.379 OA
BRANCH 143 144
ATOM    144  C   UNL     1     -12.434   9.074  17.608  0.00  0.00    +0.037 C 
ATOM    145  H   UNL     1     -11.665   8.819  16.872  0.00  0.00    +0.052 HD
ATOM    146  H   UNL     1     -12.639  10.144  17.550  0.00  0.00    +0.052 HD
ATOM    147  H   UNL     1     -13.339   8.504  17.377  0.00  0.00    +0.052 HD
ENDBRANCH 143 144
ENDBRANCH  76 143
ENDBRANCH   1  76
TORSDOF 35
ENDMDL
MODEL 10
REMARK VINA RESULT:      -4.7     10.093     17.235
REMARK  Name = Mycalolide B_conf2
REMARK  35 active torsions:
REMARK  status: ('A' for Active; 'I' for Inactive)
REMARK    1  A    between atoms: C_1  and  C_2
REMARK    2  A    between atoms: C_3  and  O_72
REMARK    3  A    between atoms: C_22  and  O_70
REMARK    4  A    between atoms: C_23  and  C_69
REMARK    5  A    between atoms: C_29  and  O_68
REMARK    6  A    between atoms: C_34  and  C_35
REMARK    7  A    between atoms: C_35  and  C_36
REMARK    8  A    between atoms: C_36  and  C_37
REMARK    9  A    between atoms: C_36  and  O_66
REMARK   10  A    between atoms: C_37  and  C_38
REMARK   11  A    between atoms: C_37  and  C_39
REMARK   12  A    between atoms: C_39  and  C_40
REMARK   13  A    between atoms: C_40  and  C_41
REMARK   14  A    between atoms: C_41  and  C_42
REMARK   15  A    between atoms: C_41  and  O_57
REMARK   16  A    between atoms: C_42  and  C_43
REMARK   17  A    between atoms: C_42  and  C_44
REMARK   18  A    between atoms: C_44  and  C_45
REMARK   19  A    between atoms: C_44  and  O_53
REMARK   20  A    between atoms: C_45  and  C_46
REMARK   21  A    between atoms: C_45  and  C_47
REMARK   22  A    between atoms: C_48  and  N_49
REMARK   23  A    between atoms: N_49  and  C_50
REMARK   24  A    between atoms: O_53  and  C_54
REMARK   25  A    between atoms: C_54  and  C_56
REMARK   26  A    between atoms: O_57  and  C_58
REMARK   27  A    between atoms: C_58  and  C_60
REMARK   28  A    between atoms: C_60  and  C_61
REMARK   29  A    between atoms: C_60  and  O_64
REMARK   30  A    between atoms: C_61  and  O_62
REMARK   31  A    between atoms: O_62  and  C_63
REMARK   32  A    between atoms: O_64  and  C_65
REMARK   33  A    between atoms: O_66  and  C_67
REMARK   34  A    between atoms: O_70  and  C_71
REMARK   35  A    between atoms: O_72  and  C_73
REMARK                            x       y       z     vdW  Elec       q    Type
REMARK                         _______ _______ _______ _____ _____    ______ ____
ROOT
ATOM      1  C   UNL     1     -10.053   8.318  17.646  0.00  0.00    +0.011 C 
ATOM      2  H   UNL     1      -9.646   9.335  17.641  0.00  0.00    +0.033 HD
ATOM      3  H   UNL     1     -10.828   8.315  16.879  0.00  0.00    +0.033 HD
ENDROOT
BRANCH   1  36
ATOM      4  C   UNL     1      -9.301   6.007  16.615  0.00  0.00    +0.020 C 
ATOM      5  C   UNL     1     -10.212   6.013  15.350  0.00  0.00    +0.068 C 
ATOM      6  C   UNL     1      -9.778   6.897  14.150  0.00  0.00    -0.008 C 
ATOM      7  C   UNL     1     -10.115   8.359  14.247  0.00  0.00    -0.077 C 
ATOM      8  C   UNL     1     -11.245   8.904  13.763  0.00  0.00    -0.003 C 
ATOM      9  C   UNL     1     -11.549  10.273  13.993  0.00  0.00    +0.220 A 
ATOM     10  N   UNL     1     -10.795  11.157  14.633  0.00  0.00    -0.205 NA
ATOM     11  C   UNL     1     -11.540  12.310  14.665  0.00  0.00    +0.164 A 
ATOM     12  C   UNL     1     -12.727  12.112  14.019  0.00  0.00    +0.125 A 
ATOM     13  O   UNL     1     -12.742  10.832  13.561  0.00  0.00    -0.443 OA
ATOM     14  C   UNL     1     -11.113  13.641  15.350  0.00  0.00    +0.250 A 
ATOM     15  N   UNL     1      -9.958  13.810  15.970  0.00  0.00    -0.203 NA
ATOM     16  C   UNL     1     -10.009  15.102  16.430  0.00  0.00    +0.164 A 
ATOM     17  C   UNL     1     -11.201  15.677  16.077  0.00  0.00    +0.125 A 
ATOM     18  O   UNL     1     -11.919  14.757  15.379  0.00  0.00    -0.442 OA
ATOM     19  C   UNL     1      -8.885  15.822  17.235  0.00  0.00    +0.249 A 
ATOM     20  N   UNL     1      -7.734  15.255  17.553  0.00  0.00    -0.210 NA
ATOM     21  C   UNL     1      -7.043  16.232  18.233  0.00  0.00    +0.109 A 
ATOM     22  C   UNL     1      -7.816  17.366  18.308  0.00  0.00    +0.118 A 
ATOM     23  O   UNL     1      -8.996  17.120  17.681  0.00  0.00    -0.442 OA
ATOM     24  C   UNL     1      -5.667  15.976  18.758  0.00  0.00    +0.113 C 
ATOM     25  C   UNL     1      -5.638  15.336  20.167  0.00  0.00    +0.051 C 
ATOM     26  C   UNL     1      -4.842  14.037  20.079  0.00  0.00    +0.161 C 
ATOM     27  O   UNL     1      -3.691  13.973  20.516  0.00  0.00    -0.292 OA
ATOM     28  C   UNL     1      -5.460  12.857  19.407  0.00  0.00    -0.023 C 
ATOM     29  C   UNL     1      -4.690  11.835  18.992  0.00  0.00    -0.078 C 
ATOM     30  C   UNL     1      -5.196  10.583  18.328  0.00  0.00    -0.008 C 
ATOM     31  C   UNL     1      -6.070  10.806  17.076  0.00  0.00    +0.069 C 
ATOM     32  C   UNL     1      -6.179   9.556  16.200  0.00  0.00    +0.071 C 
ATOM     33  C   UNL     1      -6.781   8.395  16.953  0.00  0.00    +0.310 C 
ATOM     34  O   UNL     1      -6.249   7.827  17.895  0.00  0.00    -0.251 OA
ATOM     35  O   UNL     1      -8.005   8.092  16.439  0.00  0.00    -0.461 OA
ATOM     36  C   UNL     1      -8.913   7.349  17.287  0.00  0.00    +0.110 C 
ATOM     37  H   UNL     1      -9.833   5.444  17.390  0.00  0.00    +0.036 HD
ATOM     38  H   UNL     1     -10.208   4.988  14.953  0.00  0.00    +0.060 HD
ATOM     39  H   UNL     1     -10.283   6.503  13.258  0.00  0.00    +0.033 HD
ATOM     40  H   UNL     1      -8.706   6.784  13.953  0.00  0.00    +0.033 HD
ATOM     41  H   UNL     1      -9.411   8.999  14.775  0.00  0.00    +0.057 HD
ATOM     42  H   UNL     1     -11.987   8.298  13.256  0.00  0.00    +0.067 HD
ATOM     43  H   UNL     1     -13.588  12.724  13.782  0.00  0.00    +0.105 HD
ATOM     44  H   UNL     1     -11.656  16.644  16.226  0.00  0.00    +0.105 HD
ATOM     45  H   UNL     1      -7.683  18.351  18.733  0.00  0.00    +0.105 HD
ATOM     46  H   UNL     1      -5.172  15.301  18.043  0.00  0.00    +0.067 HD
ATOM     47  H   UNL     1      -5.052  15.979  20.838  0.00  0.00    +0.041 HD
ATOM     48  H   UNL     1      -6.536  12.851  19.253  0.00  0.00    +0.065 HD
ATOM     49  H   UNL     1      -3.609  11.887  19.154  0.00  0.00    +0.057 HD
ATOM     50  H   UNL     1      -4.316   9.995  18.046  0.00  0.00    +0.033 HD
ATOM     51  H   UNL     1      -5.745  10.015  19.088  0.00  0.00    +0.033 HD
ATOM     52  H   UNL     1      -5.628  11.610  16.472  0.00  0.00    +0.060 HD
ATOM     53  H   UNL     1      -5.198   9.242  15.829  0.00  0.00    +0.040 HD
ATOM     54  H   UNL     1      -6.798   9.773  15.321  0.00  0.00    +0.040 HD
ATOM     55  H   UNL     1      -8.396   7.084  18.221  0.00  0.00    +0.074 HD
BRANCH   4  56
ATOM     56  C   UNL     1      -8.021   5.204  16.316  0.00  0.00    -0.057 C 
ATOM     57  H   UNL     1      -8.218   4.128  16.365  0.00  0.00    +0.023 HD
ATOM     58  H   UNL     1      -7.246   5.424  17.056  0.00  0.00    +0.023 HD
ATOM     59  H   UNL     1      -7.616   5.426  15.326  0.00  0.00    +0.023 HD
ENDBRANCH   4  56
BRANCH  25  60
ATOM     60  C   UNL     1      -6.975  15.112  20.873  0.00  0.00    -0.053 C 
ATOM     61  H   UNL     1      -7.102  14.059  21.138  0.00  0.00    +0.024 HD
ATOM     62  H   UNL     1      -7.082  15.706  21.785  0.00  0.00    +0.024 HD
ATOM     63  H   UNL     1      -7.810  15.387  20.222  0.00  0.00    +0.024 HD
ENDBRANCH  25  60
BRANCH  31  64
ATOM     64  O   UNL     1      -7.375  11.238  17.469  0.00  0.00    -0.391 OA
ATOM     65  H   UNL     1      -7.891  11.427  16.659  0.00  0.00    +0.210 HD
ENDBRANCH  31  64
BRANCH  24  66
ATOM     66  O   UNL     1      -4.887  17.193  18.811  0.00  0.00    -0.373 OA
BRANCH  66  67
ATOM     67  C   UNL     1      -4.535  17.555  20.145  0.00  0.00    +0.037 C 
ATOM     68  H   UNL     1      -4.590  16.688  20.813  0.00  0.00    +0.052 HD
ATOM     69  H   UNL     1      -3.507  17.936  20.145  0.00  0.00    +0.052 HD
ATOM     70  H   UNL     1      -5.199  18.352  20.508  0.00  0.00    +0.052 HD
ENDBRANCH  66  67
ENDBRANCH  24  66
BRANCH   5  71
ATOM     71  O   UNL     1     -11.583   6.324  15.653  0.00  0.00    -0.379 OA
BRANCH  71  72
ATOM     72  C   UNL     1     -12.195   5.449  16.587  0.00  0.00    +0.037 C 
ATOM     73  H   UNL     1     -13.090   4.998  16.152  0.00  0.00    +0.052 HD
ATOM     74  H   UNL     1     -12.496   6.041  17.458  0.00  0.00    +0.052 HD
ATOM     75  H   UNL     1     -11.510   4.670  16.929  0.00  0.00    +0.052 HD
ENDBRANCH  71  72
ENDBRANCH   5  71
ENDBRANCH   1  36
BRANCH   1  76
ATOM     76  C   UNL     1     -10.703   8.024  19.011  0.00  0.00    +0.064 C 
ATOM     77  H   UNL     1     -10.632   6.951  19.229  0.00  0.00    +0.060 HD
BRANCH  76  78
ATOM     78  C   UNL     1      -9.946   8.809  20.132  0.00  0.00    -0.017 C 
ATOM     79  H   UNL     1     -10.629   8.916  20.989  0.00  0.00    +0.032 HD
BRANCH  78  80
ATOM     80  C   UNL     1      -8.717   8.066  20.658  0.00  0.00    -0.060 C 
ATOM     81  H   UNL     1      -8.964   7.476  21.546  0.00  0.00    +0.023 HD
ATOM     82  H   UNL     1      -7.909   8.757  20.916  0.00  0.00    +0.023 HD
ATOM     83  H   UNL     1      -8.334   7.353  19.920  0.00  0.00    +0.023 HD
ENDBRANCH  78  80
BRANCH  78  84
ATOM     84  C   UNL     1      -9.596  10.225  19.597  0.00  0.00    -0.045 C 
ATOM     85  H   UNL     1      -9.002  10.132  18.685  0.00  0.00    +0.027 HD
ATOM     86  H   UNL     1     -10.526  10.711  19.280  0.00  0.00    +0.027 HD
BRANCH  84  87
ATOM     87  C   UNL     1      -8.934  11.179  20.601  0.00  0.00    -0.015 C 
ATOM     88  H   UNL     1      -8.406  10.538  21.320  0.00  0.00    +0.030 HD
ATOM     89  H   UNL     1      -8.176  11.784  20.093  0.00  0.00    +0.030 HD
BRANCH  87  90
ATOM     90  C   UNL     1      -9.906  12.080  21.394  0.00  0.00    +0.109 C 
ATOM     91  H   UNL     1      -9.387  13.016  21.607  0.00  0.00    +0.074 HD
BRANCH  90  92
ATOM     92  C   UNL     1     -10.307  11.425  22.752  0.00  0.00    +0.031 C 
ATOM     93  H   UNL     1      -9.595  10.609  22.936  0.00  0.00    +0.037 HD
BRANCH  92  94
ATOM     94  C   UNL     1     -11.703  10.779  22.695  0.00  0.00    -0.056 C 
ATOM     95  H   UNL     1     -11.642   9.705  22.494  0.00  0.00    +0.023 HD
ATOM     96  H   UNL     1     -12.332  11.229  21.922  0.00  0.00    +0.023 HD
ATOM     97  H   UNL     1     -12.217  10.890  23.655  0.00  0.00    +0.023 HD
ENDBRANCH  92  94
BRANCH  92  98
ATOM     98  C   UNL     1     -10.221  12.385  23.984  0.00  0.00    +0.115 C 
ATOM     99  H   UNL     1     -10.570  13.368  23.637  0.00  0.00    +0.074 HD
BRANCH  98 100
ATOM    100  C   UNL     1     -11.094  11.978  25.201  0.00  0.00    +0.013 C 
ATOM    101  H   UNL     1     -11.822  11.225  24.878  0.00  0.00    +0.038 HD
BRANCH 100 102
ATOM    102  C   UNL     1     -11.864  13.156  25.808  0.00  0.00    -0.056 C 
ATOM    103  H   UNL     1     -12.910  12.907  25.996  0.00  0.00    +0.024 HD
ATOM    104  H   UNL     1     -11.423  13.451  26.766  0.00  0.00    +0.024 HD
ATOM    105  H   UNL     1     -11.848  14.029  25.146  0.00  0.00    +0.024 HD
ENDBRANCH 100 102
BRANCH 100 106
ATOM    106  C   UNL     1     -10.243  11.349  26.294  0.00  0.00    -0.064 C 
ATOM    107  C   UNL     1     -10.291  10.043  26.597  0.00  0.00    -0.005 C 
ATOM    108  H   UNL     1      -9.565  12.020  26.810  0.00  0.00    +0.059 HD
ATOM    109  H   UNL     1     -10.962   9.403  26.023  0.00  0.00    +0.078 HD
BRANCH 107 110
ATOM    110  N   UNL     1      -9.559   9.379  27.570  0.00  0.00    -0.284 N 
ATOM    111  C   UNL     1      -8.591   8.404  27.326  0.00  0.00    +0.206 C 
ATOM    112  O   UNL     1      -8.196   7.958  26.258  0.00  0.00    -0.279 OA
ATOM    113  H   UNL     1      -8.146   8.032  28.263  0.00  0.00    +0.126 HD
BRANCH 110 114
ATOM    114  C   UNL     1      -9.803   9.775  28.953  0.00  0.00    +0.007 C 
ATOM    115  H   UNL     1      -9.120  10.566  29.277  0.00  0.00    +0.043 HD
ATOM    116  H   UNL     1     -10.829  10.147  29.038  0.00  0.00    +0.043 HD
ATOM    117  H   UNL     1      -9.674   8.911  29.609  0.00  0.00    +0.043 HD
ENDBRANCH 110 114
ENDBRANCH 107 110
ENDBRANCH 100 106
ENDBRANCH  98 100
BRANCH  98 118
ATOM    118  O   UNL     1      -8.848  12.461  24.432  0.00  0.00    -0.461 OA
BRANCH 118 119
ATOM    119  C   UNL     1      -8.158  13.584  24.091  0.00  0.00    +0.304 C 
ATOM    120  O   UNL     1      -6.945  13.669  23.953  0.00  0.00    -0.251 OA
BRANCH 119 121
ATOM    121  C   UNL     1      -9.094  14.742  23.941  0.00  0.00    +0.033 C 
ATOM    122  H   UNL     1     -10.005  14.422  23.432  0.00  0.00    +0.034 HD
ATOM    123  H   UNL     1      -9.359  15.124  24.931  0.00  0.00    +0.034 HD
ATOM    124  H   UNL     1      -8.603  15.549  23.388  0.00  0.00    +0.034 HD
ENDBRANCH 119 121
ENDBRANCH 118 119
ENDBRANCH  98 118
ENDBRANCH  92  98
ENDBRANCH  90  92
BRANCH  90 125
ATOM    125  O   UNL     1     -11.089  12.315  20.601  0.00  0.00    -0.459 OA
BRANCH 125 126
ATOM    126  C   UNL     1     -11.180  13.520  19.957  0.00  0.00    +0.339 C 
ATOM    127  O   UNL     1     -10.451  14.483  20.162  0.00  0.00    -0.248 OA
BRANCH 126 128
ATOM    128  C   UNL     1     -12.268  13.457  18.877  0.00  0.00    +0.178 C 
ATOM    129  H   UNL     1     -11.943  14.091  18.041  0.00  0.00    +0.074 HD
BRANCH 128 130
ATOM    130  C   UNL     1     -12.360  12.011  18.367  0.00  0.00    +0.084 C 
ATOM    131  H   UNL     1     -11.654  11.391  18.929  0.00  0.00    +0.059 HD
ATOM    132  H   UNL     1     -12.066  11.954  17.313  0.00  0.00    +0.059 HD
BRANCH 130 133
ATOM    133  O   UNL     1     -13.639  11.383  18.512  0.00  0.00    -0.380 OA
BRANCH 133 134
ATOM    134  C   UNL     1     -14.173  10.874  17.297  0.00  0.00    +0.037 C 
ATOM    135  H   UNL     1     -15.259  11.002  17.256  0.00  0.00    +0.052 HD
ATOM    136  H   UNL     1     -13.730  11.435  16.469  0.00  0.00    +0.052 HD
ATOM    137  H   UNL     1     -13.900   9.823  17.165  0.00  0.00    +0.052 HD
ENDBRANCH 133 134
ENDBRANCH 130 133
ENDBRANCH 128 130
BRANCH 128 138
ATOM    138  O   UNL     1     -13.578  13.894  19.247  0.00  0.00    -0.366 OA
BRANCH 138 139
ATOM    139  C   UNL     1     -14.125  14.846  18.345  0.00  0.00    +0.038 C 
ATOM    140  H   UNL     1     -13.592  15.787  18.486  0.00  0.00    +0.052 HD
ATOM    141  H   UNL     1     -13.987  14.521  17.311  0.00  0.00    +0.052 HD
ATOM    142  H   UNL     1     -15.186  15.020  18.544  0.00  0.00    +0.052 HD
ENDBRANCH 138 139
ENDBRANCH 128 138
ENDBRANCH 126 128
ENDBRANCH 125 126
ENDBRANCH  90 125
ENDBRANCH  87  90
ENDBRANCH  84  87
ENDBRANCH  78  84
ENDBRANCH  76  78
BRANCH  76 143
ATOM    143  O   UNL     1     -12.080   8.418  18.920  0.00  0.00    -0.379 OA
BRANCH 143 144
ATOM    144  C   UNL     1     -12.836   8.030  20.062  0.00  0.00    +0.037 C 
ATOM    145  H   UNL     1     -12.219   7.361  20.668  0.00  0.00    +0.052 HD
ATOM    146  H   UNL     1     -13.745   7.505  19.768  0.00  0.00    +0.052 HD
ATOM    147  H   UNL     1     -13.087   8.911  20.661  0.00  0.00    +0.052 HD
ENDBRANCH 143 144
ENDBRANCH  76 143
ENDBRANCH   1  76
TORSDOF 35
ENDMDL
