MODEL 1
REMARK VINA RESULT:      -5.3      0.000      0.000
REMARK  Name = Mycalolide B_conf1
REMARK  35 active torsions:
REMARK  status: ('A' for Active; 'I' for Inactive)
REMARK    1  A    between atoms: C_1  and  C_2
REMARK    2  A    between atoms: C_3  and  O_72
REMARK    3  A    between atoms: C_22  and  O_70
REMARK    4  A    between atoms: C_23  and  C_69
REMARK    5  A    between atoms: C_29  and  O_68
REMARK    6  A    between atoms: C_34  and  C_35
REMARK    7  A    between atoms: C_35  and  C_36
REMARK    8  A    between atoms: C_36  and  C_37
REMARK    9  A    between atoms: C_36  and  O_66
REMARK   10  A    between atoms: C_37  and  C_38
REMARK   11  A    between atoms: C_37  and  C_39
REMARK   12  A    between atoms: C_39  and  C_40
REMARK   13  A    between atoms: C_40  and  C_41
REMARK   14  A    between atoms: C_41  and  C_42
REMARK   15  A    between atoms: C_41  and  O_57
REMARK   16  A    between atoms: C_42  and  C_43
REMARK   17  A    between atoms: C_42  and  C_44
REMARK   18  A    between atoms: C_44  and  C_45
REMARK   19  A    between atoms: C_44  and  O_53
REMARK   20  A    between atoms: C_45  and  C_46
REMARK   21  A    between atoms: C_45  and  C_47
REMARK   22  A    between atoms: C_48  and  N_49
REMARK   23  A    between atoms: N_49  and  C_50
REMARK   24  A    between atoms: O_53  and  C_54
REMARK   25  A    between atoms: C_54  and  C_56
REMARK   26  A    between atoms: O_57  and  C_58
REMARK   27  A    between atoms: C_58  and  C_60
REMARK   28  A    between atoms: C_60  and  C_61
REMARK   29  A    between atoms: C_60  and  O_64
REMARK   30  A    between atoms: C_61  and  O_62
REMARK   31  A    between atoms: O_62  and  C_63
REMARK   32  A    between atoms: O_64  and  C_65
REMARK   33  A    between atoms: O_66  and  C_67
REMARK   34  A    between atoms: O_70  and  C_71
REMARK   35  A    between atoms: O_72  and  C_73
REMARK                            x       y       z     vdW  Elec       q    Type
REMARK                         _______ _______ _______ _____ _____    ______ ____
ROOT
ATOM      1  C   UNL     1      -8.120   8.864  18.410  0.00  0.00    +0.011 C 
ATOM      2  H   UNL     1      -7.587   8.846  19.368  0.00  0.00    +0.033 HD
ATOM      3  H   UNL     1      -8.196   7.813  18.109  0.00  0.00    +0.033 HD
ENDROOT
BRANCH   1  36
ATOM      4  C   UNL     1     -10.187   9.085  19.967  0.00  0.00    +0.020 C 
ATOM      5  C   UNL     1     -11.145   7.856  19.959  0.00  0.00    +0.068 C 
ATOM      6  C   UNL     1     -10.582   6.506  19.434  0.00  0.00    -0.008 C 
ATOM      7  C   UNL     1     -10.470   6.395  17.939  0.00  0.00    -0.077 C 
ATOM      8  C   UNL     1      -9.688   5.530  17.272  0.00  0.00    -0.003 C 
ATOM      9  C   UNL     1      -9.657   5.559  15.849  0.00  0.00    +0.220 A 
ATOM     10  N   UNL     1     -10.086   6.557  15.091  0.00  0.00    -0.205 NA
ATOM     11  C   UNL     1      -9.876   6.160  13.796  0.00  0.00    +0.164 A 
ATOM     12  C   UNL     1      -9.294   4.922  13.789  0.00  0.00    +0.125 A 
ATOM     13  O   UNL     1      -9.127   4.532  15.084  0.00  0.00    -0.443 OA
ATOM     14  C   UNL     1     -10.261   7.013  12.551  0.00  0.00    +0.250 A 
ATOM     15  N   UNL     1     -10.790   8.217  12.654  0.00  0.00    -0.203 NA
ATOM     16  C   UNL     1     -10.993   8.618  11.358  0.00  0.00    +0.164 A 
ATOM     17  C   UNL     1     -10.577   7.635  10.500  0.00  0.00    +0.125 A 
ATOM     18  O   UNL     1     -10.097   6.599  11.247  0.00  0.00    -0.442 OA
ATOM     19  C   UNL     1     -11.608   9.989  10.938  0.00  0.00    +0.249 A 
ATOM     20  N   UNL     1     -11.976  10.914  11.810  0.00  0.00    -0.210 NA
ATOM     21  C   UNL     1     -12.430  11.965  11.045  0.00  0.00    +0.109 A 
ATOM     22  C   UNL     1     -12.330  11.623   9.715  0.00  0.00    +0.118 A 
ATOM     23  O   UNL     1     -11.811  10.367   9.630  0.00  0.00    -0.442 OA
ATOM     24  C   UNL     1     -12.875  13.254  11.671  0.00  0.00    +0.113 C 
ATOM     25  C   UNL     1     -11.803  13.789  12.645  0.00  0.00    +0.051 C 
ATOM     26  C   UNL     1     -12.265  15.128  13.203  0.00  0.00    +0.161 C 
ATOM     27  O   UNL     1     -12.728  16.011  12.481  0.00  0.00    -0.292 OA
ATOM     28  C   UNL     1     -12.107  15.426  14.658  0.00  0.00    -0.023 C 
ATOM     29  C   UNL     1     -11.210  14.838  15.466  0.00  0.00    -0.078 C 
ATOM     30  C   UNL     1     -11.048  15.192  16.921  0.00  0.00    -0.008 C 
ATOM     31  C   UNL     1     -11.232  13.992  17.869  0.00  0.00    +0.069 C 
ATOM     32  C   UNL     1     -10.024  13.047  17.864  0.00  0.00    +0.071 C 
ATOM     33  C   UNL     1     -10.440  11.613  18.084  0.00  0.00    +0.310 C 
ATOM     34  O   UNL     1     -11.539  11.153  17.814  0.00  0.00    -0.251 OA
ATOM     35  O   UNL     1      -9.377  10.893  18.543  0.00  0.00    -0.461 OA
ATOM     36  C   UNL     1      -9.534   9.449  18.598  0.00  0.00    +0.110 C 
ATOM     37  H   UNL     1     -10.799   9.951  20.249  0.00  0.00    +0.036 HD
ATOM     38  H   UNL     1     -11.442   7.666  20.999  0.00  0.00    +0.060 HD
ATOM     39  H   UNL     1      -9.628   6.277  19.919  0.00  0.00    +0.033 HD
ATOM     40  H   UNL     1     -11.293   5.727  19.742  0.00  0.00    +0.033 HD
ATOM     41  H   UNL     1     -11.116   7.065  17.364  0.00  0.00    +0.057 HD
ATOM     42  H   UNL     1      -9.073   4.801  17.786  0.00  0.00    +0.067 HD
ATOM     43  H   UNL     1      -8.955   4.237  13.026  0.00  0.00    +0.105 HD
ATOM     44  H   UNL     1     -10.551   7.517   9.429  0.00  0.00    +0.105 HD
ATOM     45  H   UNL     1     -12.546  12.115   8.778  0.00  0.00    +0.105 HD
ATOM     46  H   UNL     1     -13.061  13.999  10.886  0.00  0.00    +0.067 HD
ATOM     47  H   UNL     1     -11.695  13.077  13.470  0.00  0.00    +0.041 HD
ATOM     48  H   UNL     1     -12.758  16.219  15.016  0.00  0.00    +0.065 HD
ATOM     49  H   UNL     1     -10.533  14.080  15.081  0.00  0.00    +0.057 HD
ATOM     50  H   UNL     1     -10.055  15.632  17.074  0.00  0.00    +0.033 HD
ATOM     51  H   UNL     1     -11.760  15.980  17.198  0.00  0.00    +0.033 HD
ATOM     52  H   UNL     1     -12.164  13.473  17.617  0.00  0.00    +0.060 HD
ATOM     53  H   UNL     1      -9.319  13.334  18.653  0.00  0.00    +0.040 HD
ATOM     54  H   UNL     1      -9.498  13.062  16.904  0.00  0.00    +0.040 HD
ATOM     55  H   UNL     1     -10.171   9.141  17.764  0.00  0.00    +0.074 HD
BRANCH   4  56
ATOM     56  C   UNL     1      -9.172   8.964  21.115  0.00  0.00    -0.057 C 
ATOM     57  H   UNL     1      -8.224   8.523  20.792  0.00  0.00    +0.023 HD
ATOM     58  H   UNL     1      -8.965   9.943  21.560  0.00  0.00    +0.023 HD
ATOM     59  H   UNL     1      -9.571   8.325  21.913  0.00  0.00    +0.023 HD
ENDBRANCH   4  56
BRANCH  25  60
ATOM     60  C   UNL     1     -10.445  14.014  11.974  0.00  0.00    -0.053 C 
ATOM     61  H   UNL     1     -10.453  14.910  11.344  0.00  0.00    +0.024 HD
ATOM     62  H   UNL     1     -10.180  13.167  11.336  0.00  0.00    +0.024 HD
ATOM     63  H   UNL     1      -9.651  14.144  12.716  0.00  0.00    +0.024 HD
ENDBRANCH  25  60
BRANCH  31  64
ATOM     64  O   UNL     1     -11.379  14.495  19.204  0.00  0.00    -0.391 OA
ATOM     65  H   UNL     1     -11.489  15.463  19.142  0.00  0.00    +0.210 HD
ENDBRANCH  31  64
BRANCH  24  66
ATOM     66  O   UNL     1     -14.084  13.070  12.434  0.00  0.00    -0.373 OA
BRANCH  66  67
ATOM     67  C   UNL     1     -15.262  13.331  11.683  0.00  0.00    +0.037 C 
ATOM     68  H   UNL     1     -15.077  13.225  10.611  0.00  0.00    +0.052 HD
ATOM     69  H   UNL     1     -15.643  14.332  11.907  0.00  0.00    +0.052 HD
ATOM     70  H   UNL     1     -16.022  12.602  11.975  0.00  0.00    +0.052 HD
ENDBRANCH  66  67
ENDBRANCH  24  66
BRANCH   5  71
ATOM     71  O   UNL     1     -12.348   8.121  19.218  0.00  0.00    -0.379 OA
BRANCH  71  72
ATOM     72  C   UNL     1     -13.305   8.919  19.899  0.00  0.00    +0.037 C 
ATOM     73  H   UNL     1     -14.017   9.303  19.160  0.00  0.00    +0.052 HD
ATOM     74  H   UNL     1     -13.858   8.324  20.633  0.00  0.00    +0.052 HD
ATOM     75  H   UNL     1     -12.838   9.775  20.387  0.00  0.00    +0.052 HD
ENDBRANCH  71  72
ENDBRANCH   5  71
ENDBRANCH   1  36
BRANCH   1  76
ATOM     76  C   UNL     1      -7.221   9.569  17.372  0.00  0.00    +0.064 C 
ATOM     77  H   UNL     1      -7.641  10.560  17.161  0.00  0.00    +0.060 HD
BRANCH  76  78
ATOM     78  C   UNL     1      -5.724   9.768  17.750  0.00  0.00    -0.017 C 
ATOM     79  H   UNL     1      -5.404   8.929  18.375  0.00  0.00    +0.032 HD
BRANCH  78  80
ATOM     80  C   UNL     1      -4.814   9.845  16.513  0.00  0.00    -0.060 C 
ATOM     81  H   UNL     1      -5.279  10.439  15.720  0.00  0.00    +0.023 HD
ATOM     82  H   UNL     1      -4.606   8.849  16.110  0.00  0.00    +0.023 HD
ATOM     83  H   UNL     1      -3.856  10.323  16.734  0.00  0.00    +0.023 HD
ENDBRANCH  78  80
BRANCH  78  84
ATOM     84  C   UNL     1      -5.598  11.062  18.595  0.00  0.00    -0.045 C 
ATOM     85  H   UNL     1      -5.989  10.845  19.589  0.00  0.00    +0.027 HD
ATOM     86  H   UNL     1      -4.536  11.311  18.716  0.00  0.00    +0.027 HD
BRANCH  84  87
ATOM     87  C   UNL     1      -6.329  12.285  18.040  0.00  0.00    -0.015 C 
ATOM     88  H   UNL     1      -7.400  12.085  17.928  0.00  0.00    +0.030 HD
ATOM     89  H   UNL     1      -5.973  12.479  17.018  0.00  0.00    +0.030 HD
BRANCH  87  90
ATOM     90  C   UNL     1      -6.137  13.568  18.874  0.00  0.00    +0.109 C 
ATOM     91  H   UNL     1      -6.632  14.388  18.339  0.00  0.00    +0.074 HD
BRANCH  90  92
ATOM     92  C   UNL     1      -4.671  14.003  19.219  0.00  0.00    +0.031 C 
ATOM     93  H   UNL     1      -4.030  13.323  18.641  0.00  0.00    +0.037 HD
BRANCH  92  94
ATOM     94  C   UNL     1      -4.354  13.737  20.695  0.00  0.00    -0.056 C 
ATOM     95  H   UNL     1      -4.231  14.651  21.278  0.00  0.00    +0.023 HD
ATOM     96  H   UNL     1      -5.139  13.140  21.170  0.00  0.00    +0.023 HD
ATOM     97  H   UNL     1      -3.432  13.158  20.795  0.00  0.00    +0.023 HD
ENDBRANCH  92  94
BRANCH  92  98
ATOM     98  C   UNL     1      -4.326  15.450  18.745  0.00  0.00    +0.115 C 
ATOM     99  H   UNL     1      -5.194  16.089  18.939  0.00  0.00    +0.074 HD
BRANCH  98 100
ATOM    100  C   UNL     1      -3.073  16.136  19.371  0.00  0.00    +0.013 C 
ATOM    101  H   UNL     1      -3.132  15.984  20.459  0.00  0.00    +0.038 HD
BRANCH 100 102
ATOM    102  C   UNL     1      -3.060  17.660  19.211  0.00  0.00    -0.056 C 
ATOM    103  H   UNL     1      -4.053  18.103  19.344  0.00  0.00    +0.024 HD
ATOM    104  H   UNL     1      -2.385  18.121  19.938  0.00  0.00    +0.024 HD
ATOM    105  H   UNL     1      -2.709  17.940  18.211  0.00  0.00    +0.024 HD
ENDBRANCH 100 102
BRANCH 100 106
ATOM    106  C   UNL     1      -1.767  15.516  18.918  0.00  0.00    -0.064 C 
ATOM    107  C   UNL     1      -0.722  15.390  19.749  0.00  0.00    -0.005 C 
ATOM    108  H   UNL     1      -1.720  15.183  17.888  0.00  0.00    +0.059 HD
ATOM    109  H   UNL     1      -0.830  15.747  20.777  0.00  0.00    +0.078 HD
BRANCH 107 110
ATOM    110  N   UNL     1       0.519  14.836  19.473  0.00  0.00    -0.284 N 
ATOM    111  C   UNL     1       0.931  14.372  18.232  0.00  0.00    +0.206 C 
ATOM    112  O   UNL     1       2.024  13.874  17.969  0.00  0.00    -0.279 OA
ATOM    113  H   UNL     1       0.171  14.467  17.445  0.00  0.00    +0.126 HD
BRANCH 110 114
ATOM    114  C   UNL     1       1.451  14.709  20.591  0.00  0.00    +0.007 C 
ATOM    115  H   UNL     1       0.969  14.917  21.550  0.00  0.00    +0.043 HD
ATOM    116  H   UNL     1       1.853  13.693  20.617  0.00  0.00    +0.043 HD
ATOM    117  H   UNL     1       2.268  15.422  20.446  0.00  0.00    +0.043 HD
ENDBRANCH 110 114
ENDBRANCH 107 110
ENDBRANCH 100 106
ENDBRANCH  98 100
BRANCH  98 118
ATOM    118  O   UNL     1      -4.113  15.393  17.306  0.00  0.00    -0.461 OA
BRANCH 118 119
ATOM    119  C   UNL     1      -5.022  16.035  16.521  0.00  0.00    +0.304 C 
ATOM    120  O   UNL     1      -5.823  16.873  16.903  0.00  0.00    -0.251 OA
BRANCH 119 121
ATOM    121  C   UNL     1      -4.894  15.564  15.104  0.00  0.00    +0.033 C 
ATOM    122  H   UNL     1      -4.842  16.423  14.433  0.00  0.00    +0.034 HD
ATOM    123  H   UNL     1      -5.775  14.971  14.841  0.00  0.00    +0.034 HD
ATOM    124  H   UNL     1      -4.006  14.937  14.997  0.00  0.00    +0.034 HD
ENDBRANCH 119 121
ENDBRANCH 118 119
ENDBRANCH  98 118
ENDBRANCH  92  98
ENDBRANCH  90  92
BRANCH  90 125
ATOM    125  O   UNL     1      -6.799  13.335  20.145  0.00  0.00    -0.459 OA
BRANCH 125 126
ATOM    126  C   UNL     1      -7.795  14.202  20.510  0.00  0.00    +0.339 C 
ATOM    127  O   UNL     1      -8.271  15.069  19.787  0.00  0.00    -0.248 OA
BRANCH 126 128
ATOM    128  C   UNL     1      -8.248  13.875  21.946  0.00  0.00    +0.178 C 
ATOM    129  H   UNL     1      -8.852  14.723  22.302  0.00  0.00    +0.074 HD
BRANCH 128 130
ATOM    130  C   UNL     1      -9.146  12.626  21.913  0.00  0.00    +0.084 C 
ATOM    131  H   UNL     1      -9.251  12.191  22.913  0.00  0.00    +0.059 HD
ATOM    132  H   UNL     1      -8.692  11.876  21.254  0.00  0.00    +0.059 HD
BRANCH 130 133
ATOM    133  O   UNL     1     -10.451  12.950  21.419  0.00  0.00    -0.380 OA
BRANCH 133 134
ATOM    134  C   UNL     1     -11.411  11.962  21.766  0.00  0.00    +0.037 C 
ATOM    135  H   UNL     1     -12.280  12.426  22.243  0.00  0.00    +0.052 HD
ATOM    136  H   UNL     1     -11.723  11.399  20.881  0.00  0.00    +0.052 HD
ATOM    137  H   UNL     1     -10.949  11.271  22.478  0.00  0.00    +0.052 HD
ENDBRANCH 133 134
ENDBRANCH 130 133
ENDBRANCH 128 130
BRANCH 128 138
ATOM    138  O   UNL     1      -7.225  13.633  22.917  0.00  0.00    -0.366 OA
BRANCH 138 139
ATOM    139  C   UNL     1      -7.698  13.657  24.255  0.00  0.00    +0.038 C 
ATOM    140  H   UNL     1      -8.335  14.531  24.430  0.00  0.00    +0.052 HD
ATOM    141  H   UNL     1      -6.866  13.646  24.963  0.00  0.00    +0.052 HD
ATOM    142  H   UNL     1      -8.296  12.756  24.421  0.00  0.00    +0.052 HD
ENDBRANCH 138 139
ENDBRANCH 128 138
ENDBRANCH 126 128
ENDBRANCH 125 126
ENDBRANCH  90 125
ENDBRANCH  87  90
ENDBRANCH  84  87
ENDBRANCH  78  84
ENDBRANCH  76  78
BRANCH  76 143
ATOM    143  O   UNL     1      -7.248   8.767  16.171  0.00  0.00    -0.379 OA
BRANCH 143 144
ATOM    144  C   UNL     1      -8.218   9.191  15.223  0.00  0.00    +0.037 C 
ATOM    145  H   UNL     1      -7.722   9.311  14.256  0.00  0.00    +0.052 HD
ATOM    146  H   UNL     1      -9.010   8.443  15.117  0.00  0.00    +0.052 HD
ATOM    147  H   UNL     1      -8.642  10.158  15.517  0.00  0.00    +0.052 HD
ENDBRANCH 143 144
ENDBRANCH  76 143
ENDBRANCH   1  76
TORSDOF 35
ENDMDL
MODEL 2
REMARK VINA RESULT:      -5.2      1.726      3.021
REMARK  Name = Mycalolide B_conf1
REMARK  35 active torsions:
REMARK  status: ('A' for Active; 'I' for Inactive)
REMARK    1  A    between atoms: C_1  and  C_2
REMARK    2  A    between atoms: C_3  and  O_72
REMARK    3  A    between atoms: C_22  and  O_70
REMARK    4  A    between atoms: C_23  and  C_69
REMARK    5  A    between atoms: C_29  and  O_68
REMARK    6  A    between atoms: C_34  and  C_35
REMARK    7  A    between atoms: C_35  and  C_36
REMARK    8  A    between atoms: C_36  and  C_37
REMARK    9  A    between atoms: C_36  and  O_66
REMARK   10  A    between atoms: C_37  and  C_38
REMARK   11  A    between atoms: C_37  and  C_39
REMARK   12  A    between atoms: C_39  and  C_40
REMARK   13  A    between atoms: C_40  and  C_41
REMARK   14  A    between atoms: C_41  and  C_42
REMARK   15  A    between atoms: C_41  and  O_57
REMARK   16  A    between atoms: C_42  and  C_43
REMARK   17  A    between atoms: C_42  and  C_44
REMARK   18  A    between atoms: C_44  and  C_45
REMARK   19  A    between atoms: C_44  and  O_53
REMARK   20  A    between atoms: C_45  and  C_46
REMARK   21  A    between atoms: C_45  and  C_47
REMARK   22  A    between atoms: C_48  and  N_49
REMARK   23  A    between atoms: N_49  and  C_50
REMARK   24  A    between atoms: O_53  and  C_54
REMARK   25  A    between atoms: C_54  and  C_56
REMARK   26  A    between atoms: O_57  and  C_58
REMARK   27  A    between atoms: C_58  and  C_60
REMARK   28  A    between atoms: C_60  and  C_61
REMARK   29  A    between atoms: C_60  and  O_64
REMARK   30  A    between atoms: C_61  and  O_62
REMARK   31  A    between atoms: O_62  and  C_63
REMARK   32  A    between atoms: O_64  and  C_65
REMARK   33  A    between atoms: O_66  and  C_67
REMARK   34  A    between atoms: O_70  and  C_71
REMARK   35  A    between atoms: O_72  and  C_73
REMARK                            x       y       z     vdW  Elec       q    Type
REMARK                         _______ _______ _______ _____ _____    ______ ____
ROOT
ATOM      1  C   UNL     1      -8.155   8.690  18.374  0.00  0.00    +0.011 C 
ATOM      2  H   UNL     1      -7.657   8.685  19.351  0.00  0.00    +0.033 HD
ATOM      3  H   UNL     1      -8.142   7.646  18.045  0.00  0.00    +0.033 HD
ENDROOT
BRANCH   1  36
ATOM      4  C   UNL     1     -10.304   8.673  19.833  0.00  0.00    +0.020 C 
ATOM      5  C   UNL     1     -11.171   7.384  19.703  0.00  0.00    +0.068 C 
ATOM      6  C   UNL     1     -10.488   6.111  19.129  0.00  0.00    -0.008 C 
ATOM      7  C   UNL     1     -10.299   6.101  17.638  0.00  0.00    -0.077 C 
ATOM      8  C   UNL     1      -9.426   5.335  16.963  0.00  0.00    -0.003 C 
ATOM      9  C   UNL     1      -9.330   5.454  15.547  0.00  0.00    +0.220 A 
ATOM     10  N   UNL     1      -9.793   6.466  14.828  0.00  0.00    -0.205 NA
ATOM     11  C   UNL     1      -9.495   6.165  13.525  0.00  0.00    +0.164 A 
ATOM     12  C   UNL     1      -8.826   4.973  13.475  0.00  0.00    +0.125 A 
ATOM     13  O   UNL     1      -8.693   4.515  14.752  0.00  0.00    -0.443 OA
ATOM     14  C   UNL     1      -9.880   7.066  12.314  0.00  0.00    +0.250 A 
ATOM     15  N   UNL     1     -10.497   8.223  12.460  0.00  0.00    -0.203 NA
ATOM     16  C   UNL     1     -10.666   8.689  11.182  0.00  0.00    +0.164 A 
ATOM     17  C   UNL     1     -10.142   7.792  10.289  0.00  0.00    +0.125 A 
ATOM     18  O   UNL     1      -9.625   6.746  10.998  0.00  0.00    -0.442 OA
ATOM     19  C   UNL     1     -11.357  10.038  10.811  0.00  0.00    +0.249 A 
ATOM     20  N   UNL     1     -11.831  10.880  11.717  0.00  0.00    -0.210 NA
ATOM     21  C   UNL     1     -12.322  11.943  10.992  0.00  0.00    +0.109 A 
ATOM     22  C   UNL     1     -12.134  11.692   9.651  0.00  0.00    +0.118 A 
ATOM     23  O   UNL     1     -11.525  10.482   9.520  0.00  0.00    -0.442 OA
ATOM     24  C   UNL     1     -12.886  13.157  11.669  0.00  0.00    +0.113 C 
ATOM     25  C   UNL     1     -11.902  13.703  12.727  0.00  0.00    +0.051 C 
ATOM     26  C   UNL     1     -12.485  14.970  13.338  0.00  0.00    +0.161 C 
ATOM     27  O   UNL     1     -12.974  15.862  12.647  0.00  0.00    -0.292 OA
ATOM     28  C   UNL     1     -12.417  15.187  14.814  0.00  0.00    -0.023 C 
ATOM     29  C   UNL     1     -11.520  14.611  15.632  0.00  0.00    -0.078 C 
ATOM     30  C   UNL     1     -11.452  14.885  17.111  0.00  0.00    -0.008 C 
ATOM     31  C   UNL     1     -11.595  13.618  17.976  0.00  0.00    +0.069 C 
ATOM     32  C   UNL     1     -10.324  12.760  17.978  0.00  0.00    +0.071 C 
ATOM     33  C   UNL     1     -10.647  11.290  18.091  0.00  0.00    +0.310 C 
ATOM     34  O   UNL     1     -11.696  10.773  17.738  0.00  0.00    -0.251 OA
ATOM     35  O   UNL     1      -9.558  10.617  18.561  0.00  0.00    -0.461 OA
ATOM     36  C   UNL     1      -9.615   9.165  18.523  0.00  0.00    +0.110 C 
ATOM     37  H   UNL     1     -10.988   9.476  20.134  0.00  0.00    +0.036 HD
ATOM     38  H   UNL     1     -11.502   7.110  20.714  0.00  0.00    +0.060 HD
ATOM     39  H   UNL     1      -9.544   5.918  19.648  0.00  0.00    +0.033 HD
ATOM     40  H   UNL     1     -11.156   5.267  19.354  0.00  0.00    +0.033 HD
ATOM     41  H   UNL     1     -10.963   6.760  17.072  0.00  0.00    +0.057 HD
ATOM     42  H   UNL     1      -8.786   4.619  17.464  0.00  0.00    +0.067 HD
ATOM     43  H   UNL     1      -8.404   4.361  12.692  0.00  0.00    +0.105 HD
ATOM     44  H   UNL     1     -10.057   7.743   9.217  0.00  0.00    +0.105 HD
ATOM     45  H   UNL     1     -12.341  12.226   8.735  0.00  0.00    +0.105 HD
ATOM     46  H   UNL     1     -13.087  13.935  10.920  0.00  0.00    +0.067 HD
ATOM     47  H   UNL     1     -11.784  12.949  13.513  0.00  0.00    +0.041 HD
ATOM     48  H   UNL     1     -13.139  15.910  15.184  0.00  0.00    +0.065 HD
ATOM     49  H   UNL     1     -10.772  13.927  15.238  0.00  0.00    +0.057 HD
ATOM     50  H   UNL     1     -10.501  15.381  17.340  0.00  0.00    +0.033 HD
ATOM     51  H   UNL     1     -12.231  15.603  17.397  0.00  0.00    +0.033 HD
ATOM     52  H   UNL     1     -12.474  13.053  17.646  0.00  0.00    +0.060 HD
ATOM     53  H   UNL     1      -9.679  13.045  18.817  0.00  0.00    +0.040 HD
ATOM     54  H   UNL     1      -9.756  12.870  17.048  0.00  0.00    +0.040 HD
ATOM     55  H   UNL     1     -10.187   8.867  17.640  0.00  0.00    +0.074 HD
BRANCH   4  56
ATOM     56  C   UNL     1      -9.339   8.550  21.022  0.00  0.00    -0.057 C 
ATOM     57  H   UNL     1      -9.350   7.551  21.470  0.00  0.00    +0.023 HD
ATOM     58  H   UNL     1      -8.312   8.782  20.720  0.00  0.00    +0.023 HD
ATOM     59  H   UNL     1      -9.611   9.261  21.812  0.00  0.00    +0.023 HD
ENDBRANCH   4  56
BRANCH  25  60
ATOM     60  C   UNL     1     -10.533  14.061  12.141  0.00  0.00    -0.053 C 
ATOM     61  H   UNL     1      -9.721  13.771  12.816  0.00  0.00    +0.024 HD
ATOM     62  H   UNL     1     -10.450  15.137  11.972  0.00  0.00    +0.024 HD
ATOM     63  H   UNL     1     -10.363  13.551  11.188  0.00  0.00    +0.024 HD
ENDBRANCH  25  60
BRANCH  31  64
ATOM     64  O   UNL     1     -11.840  14.026  19.329  0.00  0.00    -0.391 OA
ATOM     65  H   UNL     1     -11.120  13.665  19.879  0.00  0.00    +0.210 HD
ENDBRANCH  31  64
BRANCH  24  66
ATOM     66  O   UNL     1     -14.114  12.844  12.356  0.00  0.00    -0.373 OA
BRANCH  66  67
ATOM     67  C   UNL     1     -15.270  13.062  11.559  0.00  0.00    +0.037 C 
ATOM     68  H   UNL     1     -15.013  13.559  10.621  0.00  0.00    +0.052 HD
ATOM     69  H   UNL     1     -16.010  13.649  12.113  0.00  0.00    +0.052 HD
ATOM     70  H   UNL     1     -15.711  12.090  11.325  0.00  0.00    +0.052 HD
ENDBRANCH  66  67
ENDBRANCH  24  66
BRANCH   5  71
ATOM     71  O   UNL     1     -12.353   7.612  18.918  0.00  0.00    -0.379 OA
BRANCH  71  72
ATOM     72  C   UNL     1     -13.567   7.213  19.537  0.00  0.00    +0.037 C 
ATOM     73  H   UNL     1     -13.550   7.559  20.576  0.00  0.00    +0.052 HD
ATOM     74  H   UNL     1     -14.428   7.667  19.037  0.00  0.00    +0.052 HD
ATOM     75  H   UNL     1     -13.671   6.127  19.550  0.00  0.00    +0.052 HD
ENDBRANCH  71  72
ENDBRANCH   5  71
ENDBRANCH   1  36
BRANCH   1  76
ATOM     76  C   UNL     1      -7.274   9.487  17.388  0.00  0.00    +0.064 C 
ATOM     77  H   UNL     1      -7.673  10.506  17.307  0.00  0.00    +0.060 HD
BRANCH  76  78
ATOM     78  C   UNL     1      -5.759   9.606  17.728  0.00  0.00    -0.017 C 
ATOM     79  H   UNL     1      -5.438   8.688  18.231  0.00  0.00    +0.032 HD
BRANCH  78  80
ATOM     80  C   UNL     1      -4.894   9.817  16.474  0.00  0.00    -0.060 C 
ATOM     81  H   UNL     1      -5.504  10.148  15.628  0.00  0.00    +0.023 HD
ATOM     82  H   UNL     1      -4.385   8.894  16.182  0.00  0.00    +0.023 HD
ATOM     83  H   UNL     1      -4.132  10.586  16.623  0.00  0.00    +0.023 HD
ENDBRANCH  78  80
BRANCH  78  84
ATOM     84  C   UNL     1      -5.568  10.781  18.721  0.00  0.00    -0.045 C 
ATOM     85  H   UNL     1      -6.338  10.691  19.488  0.00  0.00    +0.027 HD
ATOM     86  H   UNL     1      -4.599  10.672  19.225  0.00  0.00    +0.027 HD
BRANCH  84  87
ATOM     87  C   UNL     1      -5.650  12.180  18.109  0.00  0.00    -0.015 C 
ATOM     88  H   UNL     1      -5.911  12.130  17.047  0.00  0.00    +0.030 HD
ATOM     89  H   UNL     1      -4.650  12.637  18.130  0.00  0.00    +0.030 HD
BRANCH  87  90
ATOM     90  C   UNL     1      -6.632  13.127  18.828  0.00  0.00    +0.109 C 
ATOM     91  H   UNL     1      -7.649  12.778  18.612  0.00  0.00    +0.074 HD
BRANCH  90  92
ATOM     92  C   UNL     1      -6.545  14.658  18.498  0.00  0.00    +0.031 C 
ATOM     93  H   UNL     1      -6.399  15.150  19.469  0.00  0.00    +0.037 HD
BRANCH  92  94
ATOM     94  C   UNL     1      -7.882  15.177  17.955  0.00  0.00    -0.056 C 
ATOM     95  H   UNL     1      -8.668  15.208  18.711  0.00  0.00    +0.023 HD
ATOM     96  H   UNL     1      -7.778  16.184  17.538  0.00  0.00    +0.023 HD
ATOM     97  H   UNL     1      -8.239  14.546  17.137  0.00  0.00    +0.023 HD
ENDBRANCH  92  94
BRANCH  92  98
ATOM     98  C   UNL     1      -5.311  15.032  17.618  0.00  0.00    +0.115 C 
ATOM     99  H   UNL     1      -4.905  14.110  17.190  0.00  0.00    +0.074 HD
BRANCH  98 100
ATOM    100  C   UNL     1      -5.535  16.046  16.454  0.00  0.00    +0.013 C 
ATOM    101  H   UNL     1      -6.603  16.007  16.193  0.00  0.00    +0.038 HD
BRANCH 100 102
ATOM    102  C   UNL     1      -4.823  15.658  15.153  0.00  0.00    -0.056 C 
ATOM    103  H   UNL     1      -4.264  16.493  14.718  0.00  0.00    +0.024 HD
ATOM    104  H   UNL     1      -4.123  14.836  15.325  0.00  0.00    +0.024 HD
ATOM    105  H   UNL     1      -5.547  15.323  14.402  0.00  0.00    +0.024 HD
ENDBRANCH 100 102
BRANCH 100 106
ATOM    106  C   UNL     1      -5.238  17.479  16.847  0.00  0.00    -0.064 C 
ATOM    107  C   UNL     1      -6.113  18.468  16.615  0.00  0.00    -0.005 C 
ATOM    108  H   UNL     1      -4.282  17.662  17.323  0.00  0.00    +0.059 HD
ATOM    109  H   UNL     1      -7.061  18.220  16.130  0.00  0.00    +0.078 HD
BRANCH 107 110
ATOM    110  N   UNL     1      -5.977  19.812  16.931  0.00  0.00    -0.284 N 
ATOM    111  C   UNL     1      -5.220  20.730  16.218  0.00  0.00    +0.206 C 
ATOM    112  O   UNL     1      -5.085  21.923  16.483  0.00  0.00    -0.279 OA
ATOM    113  H   UNL     1      -4.702  20.302  15.349  0.00  0.00    +0.126 HD
BRANCH 110 114
ATOM    114  C   UNL     1      -6.667  20.284  18.129  0.00  0.00    +0.007 C 
ATOM    115  H   UNL     1      -7.736  20.054  18.101  0.00  0.00    +0.043 HD
ATOM    116  H   UNL     1      -6.232  19.808  19.012  0.00  0.00    +0.043 HD
ATOM    117  H   UNL     1      -6.542  21.368  18.199  0.00  0.00    +0.043 HD
ENDBRANCH 110 114
ENDBRANCH 107 110
ENDBRANCH 100 106
ENDBRANCH  98 100
BRANCH  98 118
ATOM    118  O   UNL     1      -4.309  15.606  18.503  0.00  0.00    -0.461 OA
BRANCH 118 119
ATOM    119  C   UNL     1      -3.192  14.864  18.736  0.00  0.00    +0.304 C 
ATOM    120  O   UNL     1      -3.084  13.992  19.585  0.00  0.00    -0.251 OA
BRANCH 119 121
ATOM    121  C   UNL     1      -2.104  15.269  17.789  0.00  0.00    +0.033 C 
ATOM    122  H   UNL     1      -1.243  15.635  18.352  0.00  0.00    +0.034 HD
ATOM    123  H   UNL     1      -2.467  16.076  17.147  0.00  0.00    +0.034 HD
ATOM    124  H   UNL     1      -1.821  14.422  17.160  0.00  0.00    +0.034 HD
ENDBRANCH 119 121
ENDBRANCH 118 119
ENDBRANCH  98 118
ENDBRANCH  92  98
ENDBRANCH  90  92
BRANCH  90 125
ATOM    125  O   UNL     1      -6.357  13.004  20.248  0.00  0.00    -0.459 OA
BRANCH 125 126
ATOM    126  C   UNL     1      -7.321  13.434  21.121  0.00  0.00    +0.339 C 
ATOM    127  O   UNL     1      -8.507  13.131  21.061  0.00  0.00    -0.248 OA
BRANCH 126 128
ATOM    128  C   UNL     1      -6.666  14.309  22.207  0.00  0.00    +0.178 C 
ATOM    129  H   UNL     1      -7.064  15.328  22.094  0.00  0.00    +0.074 HD
BRANCH 128 130
ATOM    130  C   UNL     1      -7.084  13.780  23.591  0.00  0.00    +0.084 C 
ATOM    131  H   UNL     1      -6.322  13.107  24.000  0.00  0.00    +0.059 HD
ATOM    132  H   UNL     1      -8.023  13.223  23.493  0.00  0.00    +0.059 HD
BRANCH 130 133
ATOM    133  O   UNL     1      -7.279  14.861  24.512  0.00  0.00    -0.380 OA
BRANCH 133 134
ATOM    134  C   UNL     1      -8.186  15.831  24.008  0.00  0.00    +0.037 C 
ATOM    135  H   UNL     1      -8.773  15.412  23.185  0.00  0.00    +0.052 HD
ATOM    136  H   UNL     1      -8.850  16.187  24.802  0.00  0.00    +0.052 HD
ATOM    137  H   UNL     1      -7.606  16.678  23.627  0.00  0.00    +0.052 HD
ENDBRANCH 133 134
ENDBRANCH 130 133
ENDBRANCH 128 130
BRANCH 128 138
ATOM    138  O   UNL     1      -5.238  14.397  22.205  0.00  0.00    -0.366 OA
BRANCH 138 139
ATOM    139  C   UNL     1      -4.754  15.731  22.167  0.00  0.00    +0.038 C 
ATOM    140  H   UNL     1      -3.660  15.751  22.115  0.00  0.00    +0.052 HD
ATOM    141  H   UNL     1      -5.103  16.297  23.035  0.00  0.00    +0.052 HD
ATOM    142  H   UNL     1      -5.151  16.212  21.268  0.00  0.00    +0.052 HD
ENDBRANCH 138 139
ENDBRANCH 128 138
ENDBRANCH 126 128
ENDBRANCH 125 126
ENDBRANCH  90 125
ENDBRANCH  87  90
ENDBRANCH  84  87
ENDBRANCH  78  84
ENDBRANCH  76  78
BRANCH  76 143
ATOM    143  O   UNL     1      -7.368   8.829  16.106  0.00  0.00    -0.379 OA
BRANCH 143 144
ATOM    144  C   UNL     1      -8.404   9.337  15.277  0.00  0.00    +0.037 C 
ATOM    145  H   UNL     1      -9.310   8.753  15.465  0.00  0.00    +0.052 HD
ATOM    146  H   UNL     1      -8.612  10.385  15.513  0.00  0.00    +0.052 HD
ATOM    147  H   UNL     1      -8.136   9.228  14.220  0.00  0.00    +0.052 HD
ENDBRANCH 143 144
ENDBRANCH  76 143
ENDBRANCH   1  76
TORSDOF 35
ENDMDL
MODEL 3
REMARK VINA RESULT:      -5.1      1.648      4.032
REMARK  Name = Mycalolide B_conf1
REMARK  35 active torsions:
REMARK  status: ('A' for Active; 'I' for Inactive)
REMARK    1  A    between atoms: C_1  and  C_2
REMARK    2  A    between atoms: C_3  and  O_72
REMARK    3  A    between atoms: C_22  and  O_70
REMARK    4  A    between atoms: C_23  and  C_69
REMARK    5  A    between atoms: C_29  and  O_68
REMARK    6  A    between atoms: C_34  and  C_35
REMARK    7  A    between atoms: C_35  and  C_36
REMARK    8  A    between atoms: C_36  and  C_37
REMARK    9  A    between atoms: C_36  and  O_66
REMARK   10  A    between atoms: C_37  and  C_38
REMARK   11  A    between atoms: C_37  and  C_39
REMARK   12  A    between atoms: C_39  and  C_40
REMARK   13  A    between atoms: C_40  and  C_41
REMARK   14  A    between atoms: C_41  and  C_42
REMARK   15  A    between atoms: C_41  and  O_57
REMARK   16  A    between atoms: C_42  and  C_43
REMARK   17  A    between atoms: C_42  and  C_44
REMARK   18  A    between atoms: C_44  and  C_45
REMARK   19  A    between atoms: C_44  and  O_53
REMARK   20  A    between atoms: C_45  and  C_46
REMARK   21  A    between atoms: C_45  and  C_47
REMARK   22  A    between atoms: C_48  and  N_49
REMARK   23  A    between atoms: N_49  and  C_50
REMARK   24  A    between atoms: O_53  and  C_54
REMARK   25  A    between atoms: C_54  and  C_56
REMARK   26  A    between atoms: O_57  and  C_58
REMARK   27  A    between atoms: C_58  and  C_60
REMARK   28  A    between atoms: C_60  and  C_61
REMARK   29  A    between atoms: C_60  and  O_64
REMARK   30  A    between atoms: C_61  and  O_62
REMARK   31  A    between atoms: O_62  and  C_63
REMARK   32  A    between atoms: O_64  and  C_65
REMARK   33  A    between atoms: O_66  and  C_67
REMARK   34  A    between atoms: O_70  and  C_71
REMARK   35  A    between atoms: O_72  and  C_73
REMARK                            x       y       z     vdW  Elec       q    Type
REMARK                         _______ _______ _______ _____ _____    ______ ____
ROOT
ATOM      1  C   UNL     1      -8.135   9.019  18.378  0.00  0.00    +0.011 C 
ATOM      2  H   UNL     1      -7.654   9.053  19.364  0.00  0.00    +0.033 HD
ATOM      3  H   UNL     1      -8.119   7.962  18.093  0.00  0.00    +0.033 HD
ENDROOT
BRANCH   1  36
ATOM      4  C   UNL     1     -10.293   9.108  19.820  0.00  0.00    +0.020 C 
ATOM      5  C   UNL     1     -11.158   7.812  19.782  0.00  0.00    +0.068 C 
ATOM      6  C   UNL     1     -10.471   6.501  19.310  0.00  0.00    -0.008 C 
ATOM      7  C   UNL     1     -10.271   6.379  17.825  0.00  0.00    -0.077 C 
ATOM      8  C   UNL     1      -9.393   5.565  17.215  0.00  0.00    -0.003 C 
ATOM      9  C   UNL     1      -9.287   5.578  15.795  0.00  0.00    +0.220 A 
ATOM     10  N   UNL     1      -9.746   6.533  14.999  0.00  0.00    -0.205 NA
ATOM     11  C   UNL     1      -9.439   6.135  13.724  0.00  0.00    +0.164 A 
ATOM     12  C   UNL     1      -8.769   4.944  13.768  0.00  0.00    +0.125 A 
ATOM     13  O   UNL     1      -8.645   4.583  15.077  0.00  0.00    -0.443 OA
ATOM     14  C   UNL     1      -9.817   6.942  12.446  0.00  0.00    +0.250 A 
ATOM     15  N   UNL     1     -10.436   8.106  12.501  0.00  0.00    -0.203 NA
ATOM     16  C   UNL     1     -10.597   8.474  11.190  0.00  0.00    +0.164 A 
ATOM     17  C   UNL     1     -10.066   7.513  10.371  0.00  0.00    +0.125 A 
ATOM     18  O   UNL     1      -9.553   6.525  11.160  0.00  0.00    -0.442 OA
ATOM     19  C   UNL     1     -11.287   9.791  10.715  0.00  0.00    +0.249 A 
ATOM     20  N   UNL     1     -11.768  10.698  11.551  0.00  0.00    -0.210 NA
ATOM     21  C   UNL     1     -12.255  11.703  10.745  0.00  0.00    +0.109 A 
ATOM     22  C   UNL     1     -12.058  11.352   9.429  0.00  0.00    +0.118 A 
ATOM     23  O   UNL     1     -11.447  10.136   9.393  0.00  0.00    -0.442 OA
ATOM     24  C   UNL     1     -12.825  12.963  11.326  0.00  0.00    +0.113 C 
ATOM     25  C   UNL     1     -11.849  13.588  12.346  0.00  0.00    +0.051 C 
ATOM     26  C   UNL     1     -12.437  14.897  12.857  0.00  0.00    +0.161 C 
ATOM     27  O   UNL     1     -12.923  15.734  12.097  0.00  0.00    -0.292 OA
ATOM     28  C   UNL     1     -12.379  15.224  14.313  0.00  0.00    -0.023 C 
ATOM     29  C   UNL     1     -11.487  14.713  15.177  0.00  0.00    -0.078 C 
ATOM     30  C   UNL     1     -11.429  15.097  16.632  0.00  0.00    -0.008 C 
ATOM     31  C   UNL     1     -11.577  13.898  17.589  0.00  0.00    +0.069 C 
ATOM     32  C   UNL     1     -10.305  13.045  17.664  0.00  0.00    +0.071 C 
ATOM     33  C   UNL     1     -10.627  11.586  17.884  0.00  0.00    +0.310 C 
ATOM     34  O   UNL     1     -11.674  11.044  17.565  0.00  0.00    -0.251 OA
ATOM     35  O   UNL     1      -9.541  10.953  18.411  0.00  0.00    -0.461 OA
ATOM     36  C   UNL     1      -9.596   9.502  18.482  0.00  0.00    +0.110 C 
ATOM     37  H   UNL     1     -10.981   9.930  20.056  0.00  0.00    +0.036 HD
ATOM     38  H   UNL     1     -11.496   7.614  20.808  0.00  0.00    +0.060 HD
ATOM     39  H   UNL     1      -9.530   6.349  19.848  0.00  0.00    +0.033 HD
ATOM     40  H   UNL     1     -11.139   5.675  19.593  0.00  0.00    +0.033 HD
ATOM     41  H   UNL     1     -10.932   6.993  17.206  0.00  0.00    +0.057 HD
ATOM     42  H   UNL     1      -8.755   4.890  17.773  0.00  0.00    +0.067 HD
ATOM     43  H   UNL     1      -8.341   4.276  13.036  0.00  0.00    +0.105 HD
ATOM     44  H   UNL     1      -9.974   7.385   9.306  0.00  0.00    +0.105 HD
ATOM     45  H   UNL     1     -12.259  11.815   8.474  0.00  0.00    +0.105 HD
ATOM     46  H   UNL     1     -13.022  13.683  10.520  0.00  0.00    +0.067 HD
ATOM     47  H   UNL     1     -11.735  12.896  13.188  0.00  0.00    +0.041 HD
ATOM     48  H   UNL     1     -13.104  15.972  14.623  0.00  0.00    +0.065 HD
ATOM     49  H   UNL     1     -10.736  14.002  14.841  0.00  0.00    +0.057 HD
ATOM     50  H   UNL     1     -10.480  15.610  16.830  0.00  0.00    +0.033 HD
ATOM     51  H   UNL     1     -12.211  15.833  16.859  0.00  0.00    +0.033 HD
ATOM     52  H   UNL     1     -12.453  13.309  17.296  0.00  0.00    +0.060 HD
ATOM     53  H   UNL     1      -9.666  13.392  18.484  0.00  0.00    +0.040 HD
ATOM     54  H   UNL     1      -9.731  13.085  16.732  0.00  0.00    +0.040 HD
ATOM     55  H   UNL     1     -10.162   9.137  17.620  0.00  0.00    +0.074 HD
BRANCH   4  56
ATOM     56  C   UNL     1      -9.336   9.076  21.022  0.00  0.00    -0.057 C 
ATOM     57  H   UNL     1      -8.714   9.975  21.087  0.00  0.00    +0.023 HD
ATOM     58  H   UNL     1      -9.889   8.970  21.961  0.00  0.00    +0.023 HD
ATOM     59  H   UNL     1      -8.657   8.218  20.949  0.00  0.00    +0.023 HD
ENDBRANCH   4  56
BRANCH  25  60
ATOM     60  C   UNL     1     -10.476  13.903  11.744  0.00  0.00    -0.053 C 
ATOM     61  H   UNL     1     -10.153  14.920  11.994  0.00  0.00    +0.024 HD
ATOM     62  H   UNL     1     -10.501  13.826  10.654  0.00  0.00    +0.024 HD
ATOM     63  H   UNL     1      -9.711  13.216  12.119  0.00  0.00    +0.024 HD
ENDBRANCH  25  60
BRANCH  31  64
ATOM     64  O   UNL     1     -11.832  14.406  18.906  0.00  0.00    -0.391 OA
ATOM     65  H   UNL     1     -11.793  13.651  19.524  0.00  0.00    +0.210 HD
ENDBRANCH  31  64
BRANCH  24  66
ATOM     66  O   UNL     1     -14.057  12.701  12.027  0.00  0.00    -0.373 OA
BRANCH  66  67
ATOM     67  C   UNL     1     -15.207  12.853  11.207  0.00  0.00    +0.037 C 
ATOM     68  H   UNL     1     -16.114  12.557  11.741  0.00  0.00    +0.052 HD
ATOM     69  H   UNL     1     -15.099  12.269  10.287  0.00  0.00    +0.052 HD
ATOM     70  H   UNL     1     -15.296  13.907  10.933  0.00  0.00    +0.052 HD
ENDBRANCH  66  67
ENDBRANCH  24  66
BRANCH   5  71
ATOM     71  O   UNL     1     -12.335   7.979  18.974  0.00  0.00    -0.379 OA
BRANCH  71  72
ATOM     72  C   UNL     1     -13.391   8.694  19.598  0.00  0.00    +0.037 C 
ATOM     73  H   UNL     1     -13.289   8.577  20.682  0.00  0.00    +0.052 HD
ATOM     74  H   UNL     1     -13.334   9.761  19.361  0.00  0.00    +0.052 HD
ATOM     75  H   UNL     1     -14.367   8.299  19.311  0.00  0.00    +0.052 HD
ENDBRANCH  71  72
ENDBRANCH   5  71
ENDBRANCH   1  36
BRANCH   1  76
ATOM     76  C   UNL     1      -7.235   9.774  17.377  0.00  0.00    +0.064 C 
ATOM     77  H   UNL     1      -7.625  10.792  17.255  0.00  0.00    +0.060 HD
BRANCH  76  78
ATOM     78  C   UNL     1      -5.724   9.894  17.733  0.00  0.00    -0.017 C 
ATOM     79  H   UNL     1      -5.385   8.943  18.155  0.00  0.00    +0.032 HD
BRANCH  78  80
ATOM     80  C   UNL     1      -4.860  10.232  16.506  0.00  0.00    -0.060 C 
ATOM     81  H   UNL     1      -5.439  10.142  15.583  0.00  0.00    +0.023 HD
ATOM     82  H   UNL     1      -3.998   9.562  16.430  0.00  0.00    +0.023 HD
ATOM     83  H   UNL     1      -4.484  11.258  16.536  0.00  0.00    +0.023 HD
ENDBRANCH  78  80
BRANCH  78  84
ATOM     84  C   UNL     1      -5.560  10.981  18.826  0.00  0.00    -0.045 C 
ATOM     85  H   UNL     1      -6.544  11.412  19.011  0.00  0.00    +0.027 HD
ATOM     86  H   UNL     1      -5.237  10.506  19.761  0.00  0.00    +0.027 HD
BRANCH  84  87
ATOM     87  C   UNL     1      -4.588  12.112  18.489  0.00  0.00    -0.015 C 
ATOM     88  H   UNL     1      -4.151  11.972  17.494  0.00  0.00    +0.030 HD
ATOM     89  H   UNL     1      -3.734  12.065  19.179  0.00  0.00    +0.030 HD
BRANCH  87  90
ATOM     90  C   UNL     1      -5.206  13.523  18.575  0.00  0.00    +0.109 C 
ATOM     91  H   UNL     1      -5.165  13.839  19.624  0.00  0.00    +0.074 HD
BRANCH  90  92
ATOM     92  C   UNL     1      -6.671  13.712  18.049  0.00  0.00    +0.031 C 
ATOM     93  H   UNL     1      -6.996  12.707  17.747  0.00  0.00    +0.037 HD
BRANCH  92  94
ATOM     94  C   UNL     1      -6.688  14.566  16.775  0.00  0.00    -0.056 C 
ATOM     95  H   UNL     1      -5.774  14.475  16.186  0.00  0.00    +0.023 HD
ATOM     96  H   UNL     1      -7.530  14.301  16.129  0.00  0.00    +0.023 HD
ATOM     97  H   UNL     1      -6.815  15.624  17.019  0.00  0.00    +0.023 HD
ENDBRANCH  92  94
BRANCH  92  98
ATOM     98  C   UNL     1      -7.668  14.191  19.150  0.00  0.00    +0.115 C 
ATOM     99  H   UNL     1      -8.682  13.931  18.828  0.00  0.00    +0.074 HD
BRANCH  98 100
ATOM    100  C   UNL     1      -7.466  13.644  20.596  0.00  0.00    +0.013 C 
ATOM    101  H   UNL     1      -6.673  12.883  20.545  0.00  0.00    +0.038 HD
BRANCH 100 102
ATOM    102  C   UNL     1      -8.677  12.878  21.140  0.00  0.00    -0.056 C 
ATOM    103  H   UNL     1      -9.369  12.574  20.349  0.00  0.00    +0.024 HD
ATOM    104  H   UNL     1      -8.359  11.978  21.674  0.00  0.00    +0.024 HD
ATOM    105  H   UNL     1      -9.240  13.499  21.846  0.00  0.00    +0.024 HD
ENDBRANCH 100 102
BRANCH 100 106
ATOM    106  C   UNL     1      -6.989  14.701  21.571  0.00  0.00    -0.064 C 
ATOM    107  C   UNL     1      -7.476  14.779  22.818  0.00  0.00    -0.005 C 
ATOM    108  H   UNL     1      -6.237  15.391  21.208  0.00  0.00    +0.059 HD
ATOM    109  H   UNL     1      -8.235  14.054  23.126  0.00  0.00    +0.078 HD
BRANCH 107 110
ATOM    110  N   UNL     1      -7.124  15.681  23.811  0.00  0.00    -0.284 N 
ATOM    111  C   UNL     1      -7.504  15.594  25.143  0.00  0.00    +0.206 C 
ATOM    112  O   UNL     1      -7.205  16.384  26.037  0.00  0.00    -0.279 OA
ATOM    113  H   UNL     1      -8.140  14.728  25.370  0.00  0.00    +0.126 HD
BRANCH 110 114
ATOM    114  C   UNL     1      -6.311  16.825  23.409  0.00  0.00    +0.007 C 
ATOM    115  H   UNL     1      -6.838  17.772  23.553  0.00  0.00    +0.043 HD
ATOM    116  H   UNL     1      -5.391  16.845  24.000  0.00  0.00    +0.043 HD
ATOM    117  H   UNL     1      -6.061  16.719  22.349  0.00  0.00    +0.043 HD
ENDBRANCH 110 114
ENDBRANCH 107 110
ENDBRANCH 100 106
ENDBRANCH  98 100
BRANCH  98 118
ATOM    118  O   UNL     1      -7.569  15.642  19.220  0.00  0.00    -0.461 OA
BRANCH 118 119
ATOM    119  C   UNL     1      -8.727  16.347  19.098  0.00  0.00    +0.304 C 
ATOM    120  O   UNL     1      -9.758  16.129  19.714  0.00  0.00    -0.251 OA
BRANCH 119 121
ATOM    121  C   UNL     1      -8.552  17.445  18.093  0.00  0.00    +0.033 C 
ATOM    122  H   UNL     1      -7.494  17.691  17.997  0.00  0.00    +0.034 HD
ATOM    123  H   UNL     1      -9.087  18.336  18.436  0.00  0.00    +0.034 HD
ATOM    124  H   UNL     1      -8.967  17.138  17.129  0.00  0.00    +0.034 HD
ENDBRANCH 119 121
ENDBRANCH 118 119
ENDBRANCH  98 118
ENDBRANCH  92  98
ENDBRANCH  90  92
BRANCH  90 125
ATOM    125  O   UNL     1      -4.369  14.388  17.763  0.00  0.00    -0.459 OA
BRANCH 125 126
ATOM    126  C   UNL     1      -3.895  15.536  18.342  0.00  0.00    +0.339 C 
ATOM    127  O   UNL     1      -4.582  16.501  18.653  0.00  0.00    -0.248 OA
BRANCH 126 128
ATOM    128  C   UNL     1      -2.379  15.392  18.580  0.00  0.00    +0.178 C 
ATOM    129  H   UNL     1      -1.872  16.108  17.917  0.00  0.00    +0.074 HD
BRANCH 128 130
ATOM    130  C   UNL     1      -2.065  15.779  20.036  0.00  0.00    +0.084 C 
ATOM    131  H   UNL     1      -2.649  16.654  20.343  0.00  0.00    +0.059 HD
ATOM    132  H   UNL     1      -1.001  16.025  20.121  0.00  0.00    +0.059 HD
BRANCH 130 133
ATOM    133  O   UNL     1      -2.366  14.697  20.927  0.00  0.00    -0.380 OA
BRANCH 133 134
ATOM    134  C   UNL     1      -3.489  14.982  21.748  0.00  0.00    +0.037 C 
ATOM    135  H   UNL     1      -3.846  14.070  22.236  0.00  0.00    +0.052 HD
ATOM    136  H   UNL     1      -3.236  15.737  22.499  0.00  0.00    +0.052 HD
ATOM    137  H   UNL     1      -4.289  15.373  21.111  0.00  0.00    +0.052 HD
ENDBRANCH 133 134
ENDBRANCH 130 133
ENDBRANCH 128 130
BRANCH 128 138
ATOM    138  O   UNL     1      -1.799  14.104  18.353  0.00  0.00    -0.366 OA
BRANCH 138 139
ATOM    139  C   UNL     1      -0.424  14.156  18.005  0.00  0.00    +0.038 C 
ATOM    140  H   UNL     1       0.209  13.945  18.874  0.00  0.00    +0.052 HD
ATOM    141  H   UNL     1      -0.167  15.128  17.576  0.00  0.00    +0.052 HD
ATOM    142  H   UNL     1      -0.235  13.391  17.246  0.00  0.00    +0.052 HD
ENDBRANCH 138 139
ENDBRANCH 128 138
ENDBRANCH 126 128
ENDBRANCH 125 126
ENDBRANCH  90 125
ENDBRANCH  87  90
ENDBRANCH  84  87
ENDBRANCH  78  84
ENDBRANCH  76  78
BRANCH  76 143
ATOM    143  O   UNL     1      -7.316   9.072  16.118  0.00  0.00    -0.379 OA
BRANCH 143 144
ATOM    144  C   UNL     1      -8.437   9.443  15.328  0.00  0.00    +0.037 C 
ATOM    145  H   UNL     1      -8.823   8.545  14.838  0.00  0.00    +0.052 HD
ATOM    146  H   UNL     1      -9.230   9.866  15.952  0.00  0.00    +0.052 HD
ATOM    147  H   UNL     1      -8.138  10.158  14.553  0.00  0.00    +0.052 HD
ENDBRANCH 143 144
ENDBRANCH  76 143
ENDBRANCH   1  76
TORSDOF 35
ENDMDL
MODEL 4
REMARK VINA RESULT:      -5.0      3.544      9.420
REMARK  Name = Mycalolide B_conf1
REMARK  35 active torsions:
REMARK  status: ('A' for Active; 'I' for Inactive)
REMARK    1  A    between atoms: C_1  and  C_2
REMARK    2  A    between atoms: C_3  and  O_72
REMARK    3  A    between atoms: C_22  and  O_70
REMARK    4  A    between atoms: C_23  and  C_69
REMARK    5  A    between atoms: C_29  and  O_68
REMARK    6  A    between atoms: C_34  and  C_35
REMARK    7  A    between atoms: C_35  and  C_36
REMARK    8  A    between atoms: C_36  and  C_37
REMARK    9  A    between atoms: C_36  and  O_66
REMARK   10  A    between atoms: C_37  and  C_38
REMARK   11  A    between atoms: C_37  and  C_39
REMARK   12  A    between atoms: C_39  and  C_40
REMARK   13  A    between atoms: C_40  and  C_41
REMARK   14  A    between atoms: C_41  and  C_42
REMARK   15  A    between atoms: C_41  and  O_57
REMARK   16  A    between atoms: C_42  and  C_43
REMARK   17  A    between atoms: C_42  and  C_44
REMARK   18  A    between atoms: C_44  and  C_45
REMARK   19  A    between atoms: C_44  and  O_53
REMARK   20  A    between atoms: C_45  and  C_46
REMARK   21  A    between atoms: C_45  and  C_47
REMARK   22  A    between atoms: C_48  and  N_49
REMARK   23  A    between atoms: N_49  and  C_50
REMARK   24  A    between atoms: O_53  and  C_54
REMARK   25  A    between atoms: C_54  and  C_56
REMARK   26  A    between atoms: O_57  and  C_58
REMARK   27  A    between atoms: C_58  and  C_60
REMARK   28  A    between atoms: C_60  and  C_61
REMARK   29  A    between atoms: C_60  and  O_64
REMARK   30  A    between atoms: C_61  and  O_62
REMARK   31  A    between atoms: O_62  and  C_63
REMARK   32  A    between atoms: O_64  and  C_65
REMARK   33  A    between atoms: O_66  and  C_67
REMARK   34  A    between atoms: O_70  and  C_71
REMARK   35  A    between atoms: O_72  and  C_73
REMARK                            x       y       z     vdW  Elec       q    Type
REMARK                         _______ _______ _______ _____ _____    ______ ____
ROOT
ATOM      1  C   UNL     1      -8.573   8.724  18.295  0.00  0.00    +0.011 C 
ATOM      2  H   UNL     1      -8.427   9.804  18.161  0.00  0.00    +0.033 HD
ATOM      3  H   UNL     1      -9.088   8.627  19.256  0.00  0.00    +0.033 HD
ENDROOT
BRANCH   1  36
ATOM      4  C   UNL     1      -9.967   9.248  16.168  0.00  0.00    +0.020 C 
ATOM      5  C   UNL     1     -11.387   9.830  16.444  0.00  0.00    +0.068 C 
ATOM      6  C   UNL     1     -11.650  10.455  17.843  0.00  0.00    -0.008 C 
ATOM      7  C   UNL     1     -11.867   9.469  18.956  0.00  0.00    -0.077 C 
ATOM      8  C   UNL     1     -11.731   9.724  20.268  0.00  0.00    -0.003 C 
ATOM      9  C   UNL     1     -11.936   8.680  21.215  0.00  0.00    +0.220 A 
ATOM     10  N   UNL     1     -11.951   7.384  20.940  0.00  0.00    -0.205 NA
ATOM     11  C   UNL     1     -12.188   6.752  22.132  0.00  0.00    +0.164 A 
ATOM     12  C   UNL     1     -12.291   7.683  23.128  0.00  0.00    +0.125 A 
ATOM     13  O   UNL     1     -12.113   8.914  22.569  0.00  0.00    -0.443 OA
ATOM     14  C   UNL     1     -12.319   5.207  22.286  0.00  0.00    +0.250 A 
ATOM     15  N   UNL     1     -12.170   4.379  21.270  0.00  0.00    -0.203 NA
ATOM     16  C   UNL     1     -12.373   3.133  21.806  0.00  0.00    +0.164 A 
ATOM     17  C   UNL     1     -12.643   3.245  23.145  0.00  0.00    +0.125 A 
ATOM     18  O   UNL     1     -12.605   4.569  23.473  0.00  0.00    -0.442 OA
ATOM     19  C   UNL     1     -12.309   1.798  21.002  0.00  0.00    +0.249 A 
ATOM     20  N   UNL     1     -12.024   1.745  19.710  0.00  0.00    -0.210 NA
ATOM     21  C   UNL     1     -12.036   0.404  19.398  0.00  0.00    +0.109 A 
ATOM     22  C   UNL     1     -12.345  -0.315  20.531  0.00  0.00    +0.118 A 
ATOM     23  O   UNL     1     -12.525   0.558  21.560  0.00  0.00    -0.442 OA
ATOM     24  C   UNL     1     -11.683  -0.081  18.023  0.00  0.00    +0.113 C 
ATOM     25  C   UNL     1     -10.336   0.514  17.559  0.00  0.00    +0.051 C 
ATOM     26  C   UNL     1      -9.986  -0.057  16.192  0.00  0.00    +0.161 C 
ATOM     27  O   UNL     1     -10.079  -1.259  15.943  0.00  0.00    -0.292 OA
ATOM     28  C   UNL     1      -9.454   0.838  15.121  0.00  0.00    -0.023 C 
ATOM     29  C   UNL     1      -8.831   2.008  15.342  0.00  0.00    -0.078 C 
ATOM     30  C   UNL     1      -8.269   2.867  14.241  0.00  0.00    -0.008 C 
ATOM     31  C   UNL     1      -8.845   4.296  14.222  0.00  0.00    +0.069 C 
ATOM     32  C   UNL     1      -8.269   5.178  15.337  0.00  0.00    +0.071 C 
ATOM     33  C   UNL     1      -9.284   6.179  15.833  0.00  0.00    +0.310 C 
ATOM     34  O   UNL     1     -10.496   6.038  15.771  0.00  0.00    -0.251 OA
ATOM     35  O   UNL     1      -8.642   7.218  16.440  0.00  0.00    -0.461 OA
ATOM     36  C   UNL     1      -9.468   8.164  17.172  0.00  0.00    +0.110 C 
ATOM     37  H   UNL     1     -10.023   8.752  15.190  0.00  0.00    +0.036 HD
ATOM     38  H   UNL     1     -11.553  10.642  15.723  0.00  0.00    +0.060 HD
ATOM     39  H   UNL     1     -10.859  11.168  18.096  0.00  0.00    +0.033 HD
ATOM     40  H   UNL     1     -12.584  11.028  17.761  0.00  0.00    +0.033 HD
ATOM     41  H   UNL     1     -12.194   8.471  18.648  0.00  0.00    +0.057 HD
ATOM     42  H   UNL     1     -11.468  10.709  20.636  0.00  0.00    +0.067 HD
ATOM     43  H   UNL     1     -12.465   7.652  24.193  0.00  0.00    +0.105 HD
ATOM     44  H   UNL     1     -12.863   2.551  23.939  0.00  0.00    +0.105 HD
ATOM     45  H   UNL     1     -12.454  -1.363  20.768  0.00  0.00    +0.105 HD
ATOM     46  H   UNL     1     -11.616  -1.178  18.026  0.00  0.00    +0.067 HD
ATOM     47  H   UNL     1     -10.447   1.601  17.473  0.00  0.00    +0.041 HD
ATOM     48  H   UNL     1      -9.565   0.436  14.118  0.00  0.00    +0.065 HD
ATOM     49  H   UNL     1      -8.685   2.374  16.355  0.00  0.00    +0.057 HD
ATOM     50  H   UNL     1      -7.177   2.913  14.344  0.00  0.00    +0.033 HD
ATOM     51  H   UNL     1      -8.449   2.396  13.266  0.00  0.00    +0.033 HD
ATOM     52  H   UNL     1      -9.939   4.244  14.260  0.00  0.00    +0.060 HD
ATOM     53  H   UNL     1      -7.389   5.719  14.971  0.00  0.00    +0.040 HD
ATOM     54  H   UNL     1      -7.977   4.589  16.213  0.00  0.00    +0.040 HD
ATOM     55  H   UNL     1     -10.307   7.618  17.612  0.00  0.00    +0.074 HD
BRANCH   4  56
ATOM     56  C   UNL     1      -8.958  10.385  15.944  0.00  0.00    -0.057 C 
ATOM     57  H   UNL     1      -9.383  11.371  16.160  0.00  0.00    +0.023 HD
ATOM     58  H   UNL     1      -8.068  10.248  16.566  0.00  0.00    +0.023 HD
ATOM     59  H   UNL     1      -8.623  10.400  14.899  0.00  0.00    +0.023 HD
ENDBRANCH   4  56
BRANCH  25  60
ATOM     60  C   UNL     1      -9.179   0.184  18.506  0.00  0.00    -0.053 C 
ATOM     61  H   UNL     1      -9.458  -0.595  19.223  0.00  0.00    +0.024 HD
ATOM     62  H   UNL     1      -8.881   1.066  19.080  0.00  0.00    +0.024 HD
ATOM     63  H   UNL     1      -8.305  -0.177  17.956  0.00  0.00    +0.024 HD
ENDBRANCH  25  60
BRANCH  31  64
ATOM     64  O   UNL     1      -8.496   4.903  12.971  0.00  0.00    -0.391 OA
ATOM     65  H   UNL     1      -8.365   5.856  13.133  0.00  0.00    +0.210 HD
ENDBRANCH  31  64
BRANCH  24  66
ATOM     66  O   UNL     1     -12.676   0.322  17.059  0.00  0.00    -0.373 OA
BRANCH  66  67
ATOM     67  C   UNL     1     -13.724  -0.626  16.910  0.00  0.00    +0.037 C 
ATOM     68  H   UNL     1     -14.617  -0.317  17.458  0.00  0.00    +0.052 HD
ATOM     69  H   UNL     1     -13.395  -1.615  17.245  0.00  0.00    +0.052 HD
ATOM     70  H   UNL     1     -13.977  -0.692  15.848  0.00  0.00    +0.052 HD
ENDBRANCH  66  67
ENDBRANCH  24  66
BRANCH   5  71
ATOM     71  O   UNL     1     -12.417   8.852  16.225  0.00  0.00    -0.379 OA
BRANCH  71  72
ATOM     72  C   UNL     1     -12.748   8.628  14.863  0.00  0.00    +0.037 C 
ATOM     73  H   UNL     1     -11.988   9.114  14.243  0.00  0.00    +0.052 HD
ATOM     74  H   UNL     1     -12.748   7.558  14.631  0.00  0.00    +0.052 HD
ATOM     75  H   UNL     1     -13.715   9.066  14.608  0.00  0.00    +0.052 HD
ENDBRANCH  71  72
ENDBRANCH   5  71
ENDBRANCH   1  36
BRANCH   1  76
ATOM     76  C   UNL     1      -7.185   8.068  18.455  0.00  0.00    +0.064 C 
ATOM     77  H   UNL     1      -7.158   7.155  17.846  0.00  0.00    +0.060 HD
BRANCH  76  78
ATOM     78  C   UNL     1      -5.946   8.925  18.065  0.00  0.00    -0.017 C 
ATOM     79  H   UNL     1      -5.064   8.521  18.573  0.00  0.00    +0.032 HD
BRANCH  78  80
ATOM     80  C   UNL     1      -5.691   8.929  16.549  0.00  0.00    -0.060 C 
ATOM     81  H   UNL     1      -6.622   8.782  15.995  0.00  0.00    +0.023 HD
ATOM     82  H   UNL     1      -4.997   8.134  16.260  0.00  0.00    +0.023 HD
ATOM     83  H   UNL     1      -5.273   9.878  16.203  0.00  0.00    +0.023 HD
ENDBRANCH  78  80
BRANCH  78  84
ATOM     84  C   UNL     1      -6.165  10.371  18.580  0.00  0.00    -0.045 C 
ATOM     85  H   UNL     1      -6.928  10.831  17.951  0.00  0.00    +0.027 HD
ATOM     86  H   UNL     1      -6.570  10.333  19.599  0.00  0.00    +0.027 HD
BRANCH  84  87
ATOM     87  C   UNL     1      -4.926  11.266  18.577  0.00  0.00    -0.015 C 
ATOM     88  H   UNL     1      -4.425  11.242  17.603  0.00  0.00    +0.030 HD
ATOM     89  H   UNL     1      -4.188  10.856  19.281  0.00  0.00    +0.030 HD
BRANCH  87  90
ATOM     90  C   UNL     1      -5.205  12.733  18.966  0.00  0.00    +0.109 C 
ATOM     91  H   UNL     1      -5.288  12.777  20.058  0.00  0.00    +0.074 HD
BRANCH  90  92
ATOM     92  C   UNL     1      -6.460  13.430  18.336  0.00  0.00    +0.031 C 
ATOM     93  H   UNL     1      -6.999  12.626  17.816  0.00  0.00    +0.037 HD
BRANCH  92  94
ATOM     94  C   UNL     1      -6.044  14.433  17.254  0.00  0.00    -0.056 C 
ATOM     95  H   UNL     1      -5.839  13.963  16.291  0.00  0.00    +0.023 HD
ATOM     96  H   UNL     1      -6.815  15.194  17.098  0.00  0.00    +0.023 HD
ATOM     97  H   UNL     1      -5.142  14.973  17.552  0.00  0.00    +0.023 HD
ENDBRANCH  92  94
BRANCH  92  98
ATOM     98  C   UNL     1      -7.445  14.011  19.399  0.00  0.00    +0.115 C 
ATOM     99  H   UNL     1      -7.522  15.091  19.237  0.00  0.00    +0.074 HD
BRANCH  98 100
ATOM    100  C   UNL     1      -8.889  13.426  19.442  0.00  0.00    +0.013 C 
ATOM    101  H   UNL     1      -9.499  14.115  20.045  0.00  0.00    +0.038 HD
BRANCH 100 102
ATOM    102  C   UNL     1      -8.992  12.092  20.190  0.00  0.00    -0.056 C 
ATOM    103  H   UNL     1      -9.102  11.240  19.512  0.00  0.00    +0.024 HD
ATOM    104  H   UNL     1      -8.104  11.923  20.805  0.00  0.00    +0.024 HD
ATOM    105  H   UNL     1      -9.861  12.091  20.859  0.00  0.00    +0.024 HD
ENDBRANCH 100 102
BRANCH 100 106
ATOM    106  C   UNL     1      -9.543  13.352  18.077  0.00  0.00    -0.064 C 
ATOM    107  C   UNL     1      -9.880  14.458  17.397  0.00  0.00    -0.005 C 
ATOM    108  H   UNL     1      -9.726  12.360  17.681  0.00  0.00    +0.059 HD
ATOM    109  H   UNL     1      -9.672  15.430  17.851  0.00  0.00    +0.078 HD
BRANCH 107 110
ATOM    110  N   UNL     1     -10.468  14.536  16.144  0.00  0.00    -0.284 N 
ATOM    111  C   UNL     1     -10.069  13.818  15.026  0.00  0.00    +0.206 C 
ATOM    112  O   UNL     1     -10.575  13.875  13.907  0.00  0.00    -0.279 OA
ATOM    113  H   UNL     1      -9.210  13.157  15.203  0.00  0.00    +0.126 HD
BRANCH 110 114
ATOM    114  C   UNL     1     -11.578  15.473  15.990  0.00  0.00    +0.007 C 
ATOM    115  H   UNL     1     -11.475  16.340  16.647  0.00  0.00    +0.043 HD
ATOM    116  H   UNL     1     -11.619  15.824  14.955  0.00  0.00    +0.043 HD
ATOM    117  H   UNL     1     -12.509  14.953  16.237  0.00  0.00    +0.043 HD
ENDBRANCH 110 114
ENDBRANCH 107 110
ENDBRANCH 100 106
ENDBRANCH  98 100
BRANCH  98 118
ATOM    118  O   UNL     1      -6.848  13.786  20.707  0.00  0.00    -0.461 OA
BRANCH 118 119
ATOM    119  C   UNL     1      -6.652  14.881  21.493  0.00  0.00    +0.304 C 
ATOM    120  O   UNL     1      -6.120  15.921  21.140  0.00  0.00    -0.251 OA
BRANCH 119 121
ATOM    121  C   UNL     1      -7.194  14.625  22.867  0.00  0.00    +0.033 C 
ATOM    122  H   UNL     1      -7.943  13.833  22.827  0.00  0.00    +0.034 HD
ATOM    123  H   UNL     1      -7.671  15.535  23.241  0.00  0.00    +0.034 HD
ATOM    124  H   UNL     1      -6.380  14.354  23.544  0.00  0.00    +0.034 HD
ENDBRANCH 119 121
ENDBRANCH 118 119
ENDBRANCH  98 118
ENDBRANCH  92  98
ENDBRANCH  90  92
BRANCH  90 125
ATOM    125  O   UNL     1      -4.053  13.501  18.525  0.00  0.00    -0.459 OA
BRANCH 125 126
ATOM    126  C   UNL     1      -3.347  14.187  19.477  0.00  0.00    +0.339 C 
ATOM    127  O   UNL     1      -3.320  13.906  20.669  0.00  0.00    -0.248 OA
BRANCH 126 128
ATOM    128  C   UNL     1      -2.561  15.326  18.800  0.00  0.00    +0.178 C 
ATOM    129  H   UNL     1      -2.077  15.911  19.596  0.00  0.00    +0.074 HD
BRANCH 128 130
ATOM    130  C   UNL     1      -1.460  14.713  17.916  0.00  0.00    +0.084 C 
ATOM    131  H   UNL     1      -0.907  15.493  17.380  0.00  0.00    +0.059 HD
ATOM    132  H   UNL     1      -1.921  14.046  17.179  0.00  0.00    +0.059 HD
BRANCH 130 133
ATOM    133  O   UNL     1      -0.532  13.961  18.708  0.00  0.00    -0.380 OA
BRANCH 133 134
ATOM    134  C   UNL     1       0.807  14.135  18.266  0.00  0.00    +0.037 C 
ATOM    135  H   UNL     1       1.239  13.174  17.971  0.00  0.00    +0.052 HD
ATOM    136  H   UNL     1       0.848  14.840  17.429  0.00  0.00    +0.052 HD
ATOM    137  H   UNL     1       1.393  14.541  19.097  0.00  0.00    +0.052 HD
ENDBRANCH 133 134
ENDBRANCH 130 133
ENDBRANCH 128 130
BRANCH 128 138
ATOM    138  O   UNL     1      -3.301  16.236  17.980  0.00  0.00    -0.366 OA
BRANCH 138 139
ATOM    139  C   UNL     1      -3.850  17.328  18.702  0.00  0.00    +0.038 C 
ATOM    140  H   UNL     1      -4.231  17.003  19.676  0.00  0.00    +0.052 HD
ATOM    141  H   UNL     1      -4.643  17.815  18.128  0.00  0.00    +0.052 HD
ATOM    142  H   UNL     1      -3.054  18.060  18.869  0.00  0.00    +0.052 HD
ENDBRANCH 138 139
ENDBRANCH 128 138
ENDBRANCH 126 128
ENDBRANCH 125 126
ENDBRANCH  90 125
ENDBRANCH  87  90
ENDBRANCH  84  87
ENDBRANCH  78  84
ENDBRANCH  76  78
BRANCH  76 143
ATOM    143  O   UNL     1      -7.036   7.723  19.849  0.00  0.00    -0.379 OA
BRANCH 143 144
ATOM    144  C   UNL     1      -8.203   7.959  20.625  0.00  0.00    +0.037 C 
ATOM    145  H   UNL     1      -8.867   7.096  20.516  0.00  0.00    +0.052 HD
ATOM    146  H   UNL     1      -7.951   8.072  21.683  0.00  0.00    +0.052 HD
ATOM    147  H   UNL     1      -8.730   8.848  20.260  0.00  0.00    +0.052 HD
ENDBRANCH 143 144
ENDBRANCH  76 143
ENDBRANCH   1  76
TORSDOF 35
ENDMDL
MODEL 5
REMARK VINA RESULT:      -5.0      3.452      6.967
REMARK  Name = Mycalolide B_conf1
REMARK  35 active torsions:
REMARK  status: ('A' for Active; 'I' for Inactive)
REMARK    1  A    between atoms: C_1  and  C_2
REMARK    2  A    between atoms: C_3  and  O_72
REMARK    3  A    between atoms: C_22  and  O_70
REMARK    4  A    between atoms: C_23  and  C_69
REMARK    5  A    between atoms: C_29  and  O_68
REMARK    6  A    between atoms: C_34  and  C_35
REMARK    7  A    between atoms: C_35  and  C_36
REMARK    8  A    between atoms: C_36  and  C_37
REMARK    9  A    between atoms: C_36  and  O_66
REMARK   10  A    between atoms: C_37  and  C_38
REMARK   11  A    between atoms: C_37  and  C_39
REMARK   12  A    between atoms: C_39  and  C_40
REMARK   13  A    between atoms: C_40  and  C_41
REMARK   14  A    between atoms: C_41  and  C_42
REMARK   15  A    between atoms: C_41  and  O_57
REMARK   16  A    between atoms: C_42  and  C_43
REMARK   17  A    between atoms: C_42  and  C_44
REMARK   18  A    between atoms: C_44  and  C_45
REMARK   19  A    between atoms: C_44  and  O_53
REMARK   20  A    between atoms: C_45  and  C_46
REMARK   21  A    between atoms: C_45  and  C_47
REMARK   22  A    between atoms: C_48  and  N_49
REMARK   23  A    between atoms: N_49  and  C_50
REMARK   24  A    between atoms: O_53  and  C_54
REMARK   25  A    between atoms: C_54  and  C_56
REMARK   26  A    between atoms: O_57  and  C_58
REMARK   27  A    between atoms: C_58  and  C_60
REMARK   28  A    between atoms: C_60  and  C_61
REMARK   29  A    between atoms: C_60  and  O_64
REMARK   30  A    between atoms: C_61  and  O_62
REMARK   31  A    between atoms: O_62  and  C_63
REMARK   32  A    between atoms: O_64  and  C_65
REMARK   33  A    between atoms: O_66  and  C_67
REMARK   34  A    between atoms: O_70  and  C_71
REMARK   35  A    between atoms: O_72  and  C_73
REMARK                            x       y       z     vdW  Elec       q    Type
REMARK                         _______ _______ _______ _____ _____    ______ ____
ROOT
ATOM      1  C   UNL     1      -9.644   6.614  16.644  0.00  0.00    +0.011 C 
ATOM      2  H   UNL     1     -10.144   6.899  17.578  0.00  0.00    +0.033 HD
ATOM      3  H   UNL     1      -9.230   5.619  16.838  0.00  0.00    +0.033 HD
ENDROOT
BRANCH   1  36
ATOM      4  C   UNL     1     -12.135   6.823  15.940  0.00  0.00    +0.020 C 
ATOM      5  C   UNL     1     -13.012   5.575  16.261  0.00  0.00    +0.068 C 
ATOM      6  C   UNL     1     -12.482   4.578  17.329  0.00  0.00    -0.008 C 
ATOM      7  C   UNL     1     -11.390   3.656  16.860  0.00  0.00    -0.077 C 
ATOM      8  C   UNL     1     -10.526   2.998  17.650  0.00  0.00    -0.003 C 
ATOM      9  C   UNL     1      -9.516   2.181  17.066  0.00  0.00    +0.220 A 
ATOM     10  N   UNL     1      -9.125   2.230  15.801  0.00  0.00    -0.205 NA
ATOM     11  C   UNL     1      -8.152   1.275  15.674  0.00  0.00    +0.164 A 
ATOM     12  C   UNL     1      -7.947   0.670  16.884  0.00  0.00    +0.125 A 
ATOM     13  O   UNL     1      -8.790   1.247  17.786  0.00  0.00    -0.443 OA
ATOM     14  C   UNL     1      -7.417   0.952  14.338  0.00  0.00    +0.250 A 
ATOM     15  N   UNL     1      -7.656   1.613  13.222  0.00  0.00    -0.203 NA
ATOM     16  C   UNL     1      -6.837   1.028  12.291  0.00  0.00    +0.164 A 
ATOM     17  C   UNL     1      -6.118   0.020  12.877  0.00  0.00    +0.125 A 
ATOM     18  O   UNL     1      -6.472  -0.039  14.193  0.00  0.00    -0.442 OA
ATOM     19  C   UNL     1      -6.747   1.454  10.793  0.00  0.00    +0.249 A 
ATOM     20  N   UNL     1      -7.452   2.451  10.281  0.00  0.00    -0.210 NA
ATOM     21  C   UNL     1      -7.064   2.521   8.961  0.00  0.00    +0.109 A 
ATOM     22  C   UNL     1      -6.133   1.536   8.718  0.00  0.00    +0.118 A 
ATOM     23  O   UNL     1      -5.923   0.846   9.873  0.00  0.00    -0.442 OA
ATOM     24  C   UNL     1      -7.591   3.587   8.047  0.00  0.00    +0.113 C 
ATOM     25  C   UNL     1      -7.419   4.986   8.678  0.00  0.00    +0.051 C 
ATOM     26  C   UNL     1      -7.903   6.038   7.690  0.00  0.00    +0.161 C 
ATOM     27  O   UNL     1      -7.580   6.016   6.503  0.00  0.00    -0.292 OA
ATOM     28  C   UNL     1      -8.746   7.177   8.163  0.00  0.00    -0.023 C 
ATOM     29  C   UNL     1      -8.773   7.635   9.426  0.00  0.00    -0.078 C 
ATOM     30  C   UNL     1      -9.603   8.813   9.862  0.00  0.00    -0.008 C 
ATOM     31  C   UNL     1     -10.590   8.482  10.997  0.00  0.00    +0.069 C 
ATOM     32  C   UNL     1      -9.898   8.343  12.358  0.00  0.00    +0.071 C 
ATOM     33  C   UNL     1     -10.585   7.319  13.229  0.00  0.00    +0.310 C 
ATOM     34  O   UNL     1     -11.250   6.381  12.816  0.00  0.00    -0.251 OA
ATOM     35  O   UNL     1     -10.276   7.550  14.537  0.00  0.00    -0.461 OA
ATOM     36  C   UNL     1     -10.669   6.530  15.495  0.00  0.00    +0.110 C 
ATOM     37  H   UNL     1     -12.614   7.325  15.090  0.00  0.00    +0.036 HD
ATOM     38  H   UNL     1     -13.971   5.941  16.652  0.00  0.00    +0.060 HD
ATOM     39  H   UNL     1     -12.184   5.113  18.236  0.00  0.00    +0.033 HD
ATOM     40  H   UNL     1     -13.327   3.929  17.601  0.00  0.00    +0.033 HD
ATOM     41  H   UNL     1     -11.334   3.499  15.779  0.00  0.00    +0.057 HD
ATOM     42  H   UNL     1     -10.572   3.066  18.731  0.00  0.00    +0.067 HD
ATOM     43  H   UNL     1      -7.298  -0.110  17.253  0.00  0.00    +0.105 HD
ATOM     44  H   UNL     1      -5.381  -0.688  12.537  0.00  0.00    +0.105 HD
ATOM     45  H   UNL     1      -5.555   1.222   7.861  0.00  0.00    +0.105 HD
ATOM     46  H   UNL     1      -7.053   3.549   7.090  0.00  0.00    +0.067 HD
ATOM     47  H   UNL     1      -8.034   5.037   9.584  0.00  0.00    +0.041 HD
ATOM     48  H   UNL     1      -9.316   7.658   7.374  0.00  0.00    +0.065 HD
ATOM     49  H   UNL     1      -8.159   7.173  10.195  0.00  0.00    +0.057 HD
ATOM     50  H   UNL     1      -8.935   9.624  10.181  0.00  0.00    +0.033 HD
ATOM     51  H   UNL     1     -10.162   9.217   9.008  0.00  0.00    +0.033 HD
ATOM     52  H   UNL     1     -11.159   7.584  10.729  0.00  0.00    +0.060 HD
ATOM     53  H   UNL     1      -9.898   9.306  12.880  0.00  0.00    +0.040 HD
ATOM     54  H   UNL     1      -8.862   8.001  12.256  0.00  0.00    +0.040 HD
ATOM     55  H   UNL     1     -10.593   5.554  15.009  0.00  0.00    +0.074 HD
BRANCH   4  56
ATOM     56  C   UNL     1     -12.235   7.853  17.076  0.00  0.00    -0.057 C 
ATOM     57  H   UNL     1     -13.245   7.920  17.494  0.00  0.00    +0.023 HD
ATOM     58  H   UNL     1     -11.541   7.611  17.887  0.00  0.00    +0.023 HD
ATOM     59  H   UNL     1     -11.970   8.853  16.712  0.00  0.00    +0.023 HD
ENDBRANCH   4  56
BRANCH  25  60
ATOM     60  C   UNL     1      -5.962   5.311   9.022  0.00  0.00    -0.053 C 
ATOM     61  H   UNL     1      -5.278   4.557   8.620  0.00  0.00    +0.024 HD
ATOM     62  H   UNL     1      -5.815   5.343  10.105  0.00  0.00    +0.024 HD
ATOM     63  H   UNL     1      -5.662   6.278   8.608  0.00  0.00    +0.024 HD
ENDBRANCH  25  60
BRANCH  31  64
ATOM     64  O   UNL     1     -11.531   9.560  11.101  0.00  0.00    -0.391 OA
ATOM     65  H   UNL     1     -12.045   9.581  10.272  0.00  0.00    +0.210 HD
ENDBRANCH  31  64
BRANCH  24  66
ATOM     66  O   UNL     1      -8.999   3.407   7.797  0.00  0.00    -0.373 OA
BRANCH  66  67
ATOM     67  C   UNL     1      -9.264   2.650   6.624  0.00  0.00    +0.037 C 
ATOM     68  H   UNL     1      -9.353   1.586   6.854  0.00  0.00    +0.052 HD
ATOM     69  H   UNL     1      -8.480   2.815   5.878  0.00  0.00    +0.052 HD
ATOM     70  H   UNL     1     -10.213   2.992   6.204  0.00  0.00    +0.052 HD
ENDBRANCH  66  67
ENDBRANCH  24  66
BRANCH   5  71
ATOM     71  O   UNL     1     -13.301   4.807  15.081  0.00  0.00    -0.379 OA
BRANCH  71  72
ATOM     72  C   UNL     1     -14.639   4.909  14.616  0.00  0.00    +0.037 C 
ATOM     73  H   UNL     1     -14.612   5.215  13.565  0.00  0.00    +0.052 HD
ATOM     74  H   UNL     1     -15.149   3.943  14.680  0.00  0.00    +0.052 HD
ATOM     75  H   UNL     1     -15.198   5.666  15.168  0.00  0.00    +0.052 HD
ENDBRANCH  71  72
ENDBRANCH   5  71
ENDBRANCH   1  36
BRANCH   1  76
ATOM     76  C   UNL     1      -8.451   7.568  16.427  0.00  0.00    +0.064 C 
ATOM     77  H   UNL     1      -8.578   8.074  15.462  0.00  0.00    +0.060 HD
BRANCH  76  78
ATOM     78  C   UNL     1      -8.218   8.669  17.503  0.00  0.00    -0.017 C 
ATOM     79  H   UNL     1      -9.142   8.805  18.073  0.00  0.00    +0.032 HD
BRANCH  78  80
ATOM     80  C   UNL     1      -7.080   8.307  18.473  0.00  0.00    -0.060 C 
ATOM     81  H   UNL     1      -6.112   8.322  17.964  0.00  0.00    +0.023 HD
ATOM     82  H   UNL     1      -7.223   7.309  18.898  0.00  0.00    +0.023 HD
ATOM     83  H   UNL     1      -7.004   9.015  19.301  0.00  0.00    +0.023 HD
ENDBRANCH  78  80
BRANCH  78  84
ATOM     84  C   UNL     1      -7.907  10.006  16.780  0.00  0.00    -0.045 C 
ATOM     85  H   UNL     1      -6.995  10.411  17.219  0.00  0.00    +0.027 HD
ATOM     86  H   UNL     1      -7.692   9.802  15.724  0.00  0.00    +0.027 HD
BRANCH  84  87
ATOM     87  C   UNL     1      -9.003  11.068  16.863  0.00  0.00    -0.015 C 
ATOM     88  H   UNL     1      -9.772  10.785  17.590  0.00  0.00    +0.030 HD
ATOM     89  H   UNL     1      -9.531  11.111  15.900  0.00  0.00    +0.030 HD
BRANCH  87  90
ATOM     90  C   UNL     1      -8.487  12.483  17.198  0.00  0.00    +0.109 C 
ATOM     91  H   UNL     1      -7.955  12.859  16.317  0.00  0.00    +0.074 HD
BRANCH  90  92
ATOM     92  C   UNL     1      -7.561  12.645  18.453  0.00  0.00    +0.031 C 
ATOM     93  H   UNL     1      -7.205  11.630  18.676  0.00  0.00    +0.037 HD
BRANCH  92  94
ATOM     94  C   UNL     1      -8.370  13.091  19.677  0.00  0.00    -0.056 C 
ATOM     95  H   UNL     1      -8.166  12.493  20.566  0.00  0.00    +0.023 HD
ATOM     96  H   UNL     1      -8.172  14.138  19.925  0.00  0.00    +0.023 HD
ATOM     97  H   UNL     1      -9.443  13.025  19.477  0.00  0.00    +0.023 HD
ENDBRANCH  92  94
BRANCH  92  98
ATOM     98  C   UNL     1      -6.291  13.511  18.179  0.00  0.00    +0.115 C 
ATOM     99  H   UNL     1      -6.278  14.334  18.900  0.00  0.00    +0.074 HD
BRANCH  98 100
ATOM    100  C   UNL     1      -4.905  12.799  18.234  0.00  0.00    +0.013 C 
ATOM    101  H   UNL     1      -4.505  12.790  17.209  0.00  0.00    +0.038 HD
BRANCH 100 102
ATOM    102  C   UNL     1      -4.988  11.315  18.611  0.00  0.00    -0.056 C 
ATOM    103  H   UNL     1      -5.719  11.126  19.403  0.00  0.00    +0.024 HD
ATOM    104  H   UNL     1      -5.265  10.710  17.743  0.00  0.00    +0.024 HD
ATOM    105  H   UNL     1      -4.017  10.954  18.969  0.00  0.00    +0.024 HD
ENDBRANCH 100 102
BRANCH 100 106
ATOM    106  C   UNL     1      -3.892  13.535  19.087  0.00  0.00    -0.064 C 
ATOM    107  C   UNL     1      -2.923  14.285  18.540  0.00  0.00    -0.005 C 
ATOM    108  H   UNL     1      -3.988  13.422  20.160  0.00  0.00    +0.059 HD
ATOM    109  H   UNL     1      -2.876  14.358  17.450  0.00  0.00    +0.078 HD
BRANCH 107 110
ATOM    110  N   UNL     1      -1.945  15.017  19.196  0.00  0.00    -0.284 N 
ATOM    111  C   UNL     1      -0.713  15.365  18.662  0.00  0.00    +0.206 C 
ATOM    112  O   UNL     1       0.168  16.010  19.228  0.00  0.00    -0.279 OA
ATOM    113  H   UNL     1      -0.549  14.999  17.640  0.00  0.00    +0.126 HD
BRANCH 110 114
ATOM    114  C   UNL     1      -2.232  15.426  20.568  0.00  0.00    +0.007 C 
ATOM    115  H   UNL     1      -1.425  16.029  20.992  0.00  0.00    +0.043 HD
ATOM    116  H   UNL     1      -3.153  16.015  20.588  0.00  0.00    +0.043 HD
ATOM    117  H   UNL     1      -2.359  14.528  21.180  0.00  0.00    +0.043 HD
ENDBRANCH 110 114
ENDBRANCH 107 110
ENDBRANCH 100 106
ENDBRANCH  98 100
BRANCH  98 118
ATOM    118  O   UNL     1      -6.434  14.074  16.844  0.00  0.00    -0.461 OA
BRANCH 118 119
ATOM    119  C   UNL     1      -5.920  15.318  16.641  0.00  0.00    +0.304 C 
ATOM    120  O   UNL     1      -6.046  16.270  17.394  0.00  0.00    -0.251 OA
BRANCH 119 121
ATOM    121  C   UNL     1      -5.163  15.352  15.347  0.00  0.00    +0.033 C 
ATOM    122  H   UNL     1      -4.100  15.192  15.538  0.00  0.00    +0.034 HD
ATOM    123  H   UNL     1      -5.288  16.334  14.882  0.00  0.00    +0.034 HD
ATOM    124  H   UNL     1      -5.552  14.591  14.667  0.00  0.00    +0.034 HD
ENDBRANCH 119 121
ENDBRANCH 118 119
ENDBRANCH  98 118
ENDBRANCH  92  98
ENDBRANCH  90  92
BRANCH  90 125
ATOM    125  O   UNL     1      -9.661  13.298  17.455  0.00  0.00    -0.459 OA
BRANCH 125 126
ATOM    126  C   UNL     1      -9.949  14.294  16.560  0.00  0.00    +0.339 C 
ATOM    127  O   UNL     1      -9.343  15.355  16.471  0.00  0.00    -0.248 OA
BRANCH 126 128
ATOM    128  C   UNL     1     -11.115  13.842  15.659  0.00  0.00    +0.178 C 
ATOM    129  H   UNL     1     -11.763  14.716  15.496  0.00  0.00    +0.074 HD
BRANCH 128 130
ATOM    130  C   UNL     1     -10.549  13.402  14.297  0.00  0.00    +0.084 C 
ATOM    131  H   UNL     1     -11.153  12.596  13.864  0.00  0.00    +0.059 HD
ATOM    132  H   UNL     1      -9.527  13.032  14.436  0.00  0.00    +0.059 HD
BRANCH 130 133
ATOM    133  O   UNL     1     -10.527  14.499  13.376  0.00  0.00    -0.380 OA
BRANCH 133 134
ATOM    134  C   UNL     1     -10.570  14.060  12.026  0.00  0.00    +0.037 C 
ATOM    135  H   UNL     1     -11.096  13.103  11.953  0.00  0.00    +0.052 HD
ATOM    136  H   UNL     1     -11.057  14.808  11.392  0.00  0.00    +0.052 HD
ATOM    137  H   UNL     1      -9.541  13.919  11.678  0.00  0.00    +0.052 HD
ENDBRANCH 133 134
ENDBRANCH 130 133
ENDBRANCH 128 130
BRANCH 128 138
ATOM    138  O   UNL     1     -11.938  12.775  16.139  0.00  0.00    -0.366 OA
BRANCH 138 139
ATOM    139  C   UNL     1     -13.158  13.217  16.714  0.00  0.00    +0.038 C 
ATOM    140  H   UNL     1     -13.008  14.133  17.296  0.00  0.00    +0.052 HD
ATOM    141  H   UNL     1     -13.599  12.437  17.341  0.00  0.00    +0.052 HD
ATOM    142  H   UNL     1     -13.858  13.435  15.902  0.00  0.00    +0.052 HD
ENDBRANCH 138 139
ENDBRANCH 128 138
ENDBRANCH 126 128
ENDBRANCH 125 126
ENDBRANCH  90 125
ENDBRANCH  87  90
ENDBRANCH  84  87
ENDBRANCH  78  84
ENDBRANCH  76  78
BRANCH  76 143
ATOM    143  O   UNL     1      -7.257   6.755  16.392  0.00  0.00    -0.379 OA
BRANCH 143 144
ATOM    144  C   UNL     1      -7.511   5.379  16.148  0.00  0.00    +0.037 C 
ATOM    145  H   UNL     1      -7.357   4.832  17.083  0.00  0.00    +0.052 HD
ATOM    146  H   UNL     1      -8.543   5.225  15.822  0.00  0.00    +0.052 HD
ATOM    147  H   UNL     1      -6.811   4.988  15.400  0.00  0.00    +0.052 HD
ENDBRANCH 143 144
ENDBRANCH  76 143
ENDBRANCH   1  76
TORSDOF 35
ENDMDL
MODEL 6
REMARK VINA RESULT:      -5.0      4.153      9.385
REMARK  Name = Mycalolide B_conf1
REMARK  35 active torsions:
REMARK  status: ('A' for Active; 'I' for Inactive)
REMARK    1  A    between atoms: C_1  and  C_2
REMARK    2  A    between atoms: C_3  and  O_72
REMARK    3  A    between atoms: C_22  and  O_70
REMARK    4  A    between atoms: C_23  and  C_69
REMARK    5  A    between atoms: C_29  and  O_68
REMARK    6  A    between atoms: C_34  and  C_35
REMARK    7  A    between atoms: C_35  and  C_36
REMARK    8  A    between atoms: C_36  and  C_37
REMARK    9  A    between atoms: C_36  and  O_66
REMARK   10  A    between atoms: C_37  and  C_38
REMARK   11  A    between atoms: C_37  and  C_39
REMARK   12  A    between atoms: C_39  and  C_40
REMARK   13  A    between atoms: C_40  and  C_41
REMARK   14  A    between atoms: C_41  and  C_42
REMARK   15  A    between atoms: C_41  and  O_57
REMARK   16  A    between atoms: C_42  and  C_43
REMARK   17  A    between atoms: C_42  and  C_44
REMARK   18  A    between atoms: C_44  and  C_45
REMARK   19  A    between atoms: C_44  and  O_53
REMARK   20  A    between atoms: C_45  and  C_46
REMARK   21  A    between atoms: C_45  and  C_47
REMARK   22  A    between atoms: C_48  and  N_49
REMARK   23  A    between atoms: N_49  and  C_50
REMARK   24  A    between atoms: O_53  and  C_54
REMARK   25  A    between atoms: C_54  and  C_56
REMARK   26  A    between atoms: O_57  and  C_58
REMARK   27  A    between atoms: C_58  and  C_60
REMARK   28  A    between atoms: C_60  and  C_61
REMARK   29  A    between atoms: C_60  and  O_64
REMARK   30  A    between atoms: C_61  and  O_62
REMARK   31  A    between atoms: O_62  and  C_63
REMARK   32  A    between atoms: O_64  and  C_65
REMARK   33  A    between atoms: O_66  and  C_67
REMARK   34  A    between atoms: O_70  and  C_71
REMARK   35  A    between atoms: O_72  and  C_73
REMARK                            x       y       z     vdW  Elec       q    Type
REMARK                         _______ _______ _______ _____ _____    ______ ____
ROOT
ATOM      1  C   UNL     1      -9.840  14.973  23.064  0.00  0.00    +0.011 C 
ATOM      2  H   UNL     1      -9.270  15.654  23.708  0.00  0.00    +0.033 HD
ATOM      3  H   UNL     1     -10.891  15.208  23.266  0.00  0.00    +0.033 HD
ENDROOT
BRANCH   1  36
ATOM      4  C   UNL     1      -9.753  16.738  21.162  0.00  0.00    +0.020 C 
ATOM      5  C   UNL     1     -11.129  17.056  20.502  0.00  0.00    +0.068 C 
ATOM      6  C   UNL     1     -12.412  16.683  21.297  0.00  0.00    -0.008 C 
ATOM      7  C   UNL     1     -12.774  15.224  21.284  0.00  0.00    -0.077 C 
ATOM      8  C   UNL     1     -13.572  14.605  22.169  0.00  0.00    -0.003 C 
ATOM      9  C   UNL     1     -13.801  13.204  22.054  0.00  0.00    +0.220 A 
ATOM     10  N   UNL     1     -13.068  12.361  21.343  0.00  0.00    -0.205 NA
ATOM     11  C   UNL     1     -13.647  11.131  21.508  0.00  0.00    +0.164 A 
ATOM     12  C   UNL     1     -14.723  11.243  22.346  0.00  0.00    +0.125 A 
ATOM     13  O   UNL     1     -14.825  12.550  22.720  0.00  0.00    -0.443 OA
ATOM     14  C   UNL     1     -13.134   9.828  20.825  0.00  0.00    +0.250 A 
ATOM     15  N   UNL     1     -12.062   9.807  20.056  0.00  0.00    -0.203 NA
ATOM     16  C   UNL     1     -11.957   8.504  19.645  0.00  0.00    +0.164 A 
ATOM     17  C   UNL     1     -12.979   7.765  20.182  0.00  0.00    +0.125 A 
ATOM     18  O   UNL     1     -13.741   8.597  20.949  0.00  0.00    -0.442 OA
ATOM     19  C   UNL     1     -10.840   7.956  18.703  0.00  0.00    +0.249 A 
ATOM     20  N   UNL     1      -9.862   8.710  18.227  0.00  0.00    -0.210 NA
ATOM     21  C   UNL     1      -9.084   7.855  17.479  0.00  0.00    +0.109 A 
ATOM     22  C   UNL     1      -9.638   6.595  17.523  0.00  0.00    +0.118 A 
ATOM     23  O   UNL     1     -10.759   6.644  18.295  0.00  0.00    -0.442 OA
ATOM     24  C   UNL     1      -7.817   8.321  16.824  0.00  0.00    +0.113 C 
ATOM     25  C   UNL     1      -6.906   9.043  17.841  0.00  0.00    +0.051 C 
ATOM     26  C   UNL     1      -5.608   9.437  17.151  0.00  0.00    +0.161 C 
ATOM     27  O   UNL     1      -4.984   8.652  16.436  0.00  0.00    -0.292 OA
ATOM     28  C   UNL     1      -5.020  10.790  17.380  0.00  0.00    -0.023 C 
ATOM     29  C   UNL     1      -5.257  11.555  18.459  0.00  0.00    -0.078 C 
ATOM     30  C   UNL     1      -4.614  12.898  18.680  0.00  0.00    -0.008 C 
ATOM     31  C   UNL     1      -5.631  14.042  18.859  0.00  0.00    +0.069 C 
ATOM     32  C   UNL     1      -6.298  14.027  20.240  0.00  0.00    +0.071 C 
ATOM     33  C   UNL     1      -7.721  14.526  20.174  0.00  0.00    +0.310 C 
ATOM     34  O   UNL     1      -8.434  14.484  19.183  0.00  0.00    -0.251 OA
ATOM     35  O   UNL     1      -8.115  14.948  21.409  0.00  0.00    -0.461 OA
ATOM     36  C   UNL     1      -9.526  15.253  21.581  0.00  0.00    +0.110 C 
ATOM     37  H   UNL     1      -8.991  16.959  20.404  0.00  0.00    +0.036 HD
ATOM     38  H   UNL     1     -11.179  18.144  20.358  0.00  0.00    +0.060 HD
ATOM     39  H   UNL     1     -12.351  17.065  22.320  0.00  0.00    +0.033 HD
ATOM     40  H   UNL     1     -13.248  17.205  20.809  0.00  0.00    +0.033 HD
ATOM     41  H   UNL     1     -12.364  14.642  20.453  0.00  0.00    +0.057 HD
ATOM     42  H   UNL     1     -14.055  15.142  22.977  0.00  0.00    +0.067 HD
ATOM     43  H   UNL     1     -15.455  10.562  22.752  0.00  0.00    +0.105 HD
ATOM     44  H   UNL     1     -13.284   6.734  20.128  0.00  0.00    +0.105 HD
ATOM     45  H   UNL     1      -9.381   5.630  17.113  0.00  0.00    +0.105 HD
ATOM     46  H   UNL     1      -7.283   7.459  16.403  0.00  0.00    +0.067 HD
ATOM     47  H   UNL     1      -7.418   9.950  18.183  0.00  0.00    +0.041 HD
ATOM     48  H   UNL     1      -4.321  11.101  16.608  0.00  0.00    +0.065 HD
ATOM     49  H   UNL     1      -5.922  11.208  19.247  0.00  0.00    +0.057 HD
ATOM     50  H   UNL     1      -3.964  12.844  19.562  0.00  0.00    +0.033 HD
ATOM     51  H   UNL     1      -3.948  13.140  17.842  0.00  0.00    +0.033 HD
ATOM     52  H   UNL     1      -6.363  14.004  18.045  0.00  0.00    +0.060 HD
ATOM     53  H   UNL     1      -5.735  14.657  20.937  0.00  0.00    +0.040 HD
ATOM     54  H   UNL     1      -6.356  13.014  20.653  0.00  0.00    +0.040 HD
ATOM     55  H   UNL     1     -10.104  14.573  20.951  0.00  0.00    +0.074 HD
BRANCH   4  56
ATOM     56  C   UNL     1      -9.454  17.744  22.285  0.00  0.00    -0.057 C 
ATOM     57  H   UNL     1      -8.381  17.903  22.431  0.00  0.00    +0.023 HD
ATOM     58  H   UNL     1      -9.922  18.712  22.079  0.00  0.00    +0.023 HD
ATOM     59  H   UNL     1      -9.860  17.385  23.239  0.00  0.00    +0.023 HD
ENDBRANCH   4  56
BRANCH  25  60
ATOM     60  C   UNL     1      -6.542   8.168  19.044  0.00  0.00    -0.053 C 
ATOM     61  H   UNL     1      -6.308   8.776  19.925  0.00  0.00    +0.024 HD
ATOM     62  H   UNL     1      -5.665   7.553  18.828  0.00  0.00    +0.024 HD
ATOM     63  H   UNL     1      -7.367   7.504  19.317  0.00  0.00    +0.024 HD
ENDBRANCH  25  60
BRANCH  31  64
ATOM     64  O   UNL     1      -4.929  15.287  18.735  0.00  0.00    -0.391 OA
ATOM     65  H   UNL     1      -4.273  15.327  19.457  0.00  0.00    +0.210 HD
ENDBRANCH  31  64
BRANCH  24  66
ATOM     66  O   UNL     1      -8.095   9.259  15.766  0.00  0.00    -0.373 OA
BRANCH  66  67
ATOM     67  C   UNL     1      -8.971   8.738  14.776  0.00  0.00    +0.037 C 
ATOM     68  H   UNL     1      -9.091   9.440  13.947  0.00  0.00    +0.052 HD
ATOM     69  H   UNL     1      -9.945   8.499  15.217  0.00  0.00    +0.052 HD
ATOM     70  H   UNL     1      -8.536   7.815  14.385  0.00  0.00    +0.052 HD
ENDBRANCH  66  67
ENDBRANCH  24  66
BRANCH   5  71
ATOM     71  O   UNL     1     -11.253  16.451  19.205  0.00  0.00    -0.379 OA
BRANCH  71  72
ATOM     72  C   UNL     1     -10.644  17.177  18.147  0.00  0.00    +0.037 C 
ATOM     73  H   UNL     1     -11.434  17.536  17.480  0.00  0.00    +0.052 HD
ATOM     74  H   UNL     1     -10.099  18.046  18.532  0.00  0.00    +0.052 HD
ATOM     75  H   UNL     1      -9.974  16.546  17.562  0.00  0.00    +0.052 HD
ENDBRANCH  71  72
ENDBRANCH   5  71
ENDBRANCH   1  36
BRANCH   1  76
ATOM     76  C   UNL     1      -9.595  13.530  23.554  0.00  0.00    +0.064 C 
ATOM     77  H   UNL     1      -9.938  13.450  24.594  0.00  0.00    +0.060 HD
BRANCH  76  78
ATOM     78  C   UNL     1     -10.273  12.382  22.750  0.00  0.00    -0.017 C 
ATOM     79  H   UNL     1     -11.208  12.757  22.323  0.00  0.00    +0.032 HD
BRANCH  78  80
ATOM     80  C   UNL     1      -9.380  11.856  21.615  0.00  0.00    -0.060 C 
ATOM     81  H   UNL     1      -9.906  11.104  21.019  0.00  0.00    +0.023 HD
ATOM     82  H   UNL     1      -8.467  11.398  22.007  0.00  0.00    +0.023 HD
ATOM     83  H   UNL     1      -9.085  12.648  20.921  0.00  0.00    +0.023 HD
ENDBRANCH  78  80
BRANCH  78  84
ATOM     84  C   UNL     1     -10.629  11.237  23.733  0.00  0.00    -0.045 C 
ATOM     85  H   UNL     1     -10.896  10.364  23.136  0.00  0.00    +0.027 HD
ATOM     86  H   UNL     1      -9.737  10.969  24.312  0.00  0.00    +0.027 HD
BRANCH  84  87
ATOM     87  C   UNL     1     -11.774  11.533  24.702  0.00  0.00    -0.015 C 
ATOM     88  H   UNL     1     -12.745  11.429  24.207  0.00  0.00    +0.030 HD
ATOM     89  H   UNL     1     -11.723  12.589  25.000  0.00  0.00    +0.030 HD
BRANCH  87  90
ATOM     90  C   UNL     1     -11.761  10.666  25.979  0.00  0.00    +0.109 C 
ATOM     91  H   UNL     1     -12.735  10.168  26.051  0.00  0.00    +0.074 HD
BRANCH  90  92
ATOM     92  C   UNL     1     -11.456  11.378  27.342  0.00  0.00    +0.031 C 
ATOM     93  H   UNL     1     -11.013  10.599  27.976  0.00  0.00    +0.037 HD
BRANCH  92  94
ATOM     94  C   UNL     1     -12.754  11.807  28.037  0.00  0.00    -0.056 C 
ATOM     95  H   UNL     1     -13.534  11.046  27.994  0.00  0.00    +0.023 HD
ATOM     96  H   UNL     1     -12.580  12.050  29.090  0.00  0.00    +0.023 HD
ATOM     97  H   UNL     1     -13.157  12.715  27.579  0.00  0.00    +0.023 HD
ENDBRANCH  92  94
BRANCH  92  98
ATOM     98  C   UNL     1     -10.391  12.514  27.223  0.00  0.00    +0.115 C 
ATOM     99  H   UNL     1      -9.915  12.434  26.241  0.00  0.00    +0.074 HD
BRANCH  98 100
ATOM    100  C   UNL     1     -10.880  13.984  27.402  0.00  0.00    +0.013 C 
ATOM    101  H   UNL     1     -11.575  13.992  28.255  0.00  0.00    +0.038 HD
BRANCH 100 102
ATOM    102  C   UNL     1     -11.726  14.500  26.233  0.00  0.00    -0.056 C 
ATOM    103  H   UNL     1     -12.724  14.820  26.548  0.00  0.00    +0.024 HD
ATOM    104  H   UNL     1     -11.238  15.348  25.745  0.00  0.00    +0.024 HD
ATOM    105  H   UNL     1     -11.858  13.716  25.477  0.00  0.00    +0.024 HD
ENDBRANCH 100 102
BRANCH 100 106
ATOM    106  C   UNL     1      -9.761  14.945  27.748  0.00  0.00    -0.064 C 
ATOM    107  C   UNL     1      -9.461  15.989  26.961  0.00  0.00    -0.005 C 
ATOM    108  H   UNL     1      -9.214  14.744  28.661  0.00  0.00    +0.059 HD
ATOM    109  H   UNL     1     -10.048  16.139  26.051  0.00  0.00    +0.078 HD
BRANCH 107 110
ATOM    110  N   UNL     1      -8.479  16.947  27.161  0.00  0.00    -0.284 N 
ATOM    111  C   UNL     1      -7.243  16.971  26.530  0.00  0.00    +0.206 C 
ATOM    112  O   UNL     1      -6.358  17.808  26.696  0.00  0.00    -0.279 OA
ATOM    113  H   UNL     1      -7.080  16.136  25.836  0.00  0.00    +0.126 HD
BRANCH 110 114
ATOM    114  C   UNL     1      -8.766  17.997  28.135  0.00  0.00    +0.007 C 
ATOM    115  H   UNL     1      -7.906  18.203  28.778  0.00  0.00    +0.043 HD
ATOM    116  H   UNL     1      -9.036  18.917  27.611  0.00  0.00    +0.043 HD
ATOM    117  H   UNL     1      -9.602  17.672  28.760  0.00  0.00    +0.043 HD
ENDBRANCH 110 114
ENDBRANCH 107 110
ENDBRANCH 100 106
ENDBRANCH  98 100
BRANCH  98 118
ATOM    118  O   UNL     1      -9.383  12.267  28.242  0.00  0.00    -0.461 OA
BRANCH 118 119
ATOM    119  C   UNL     1      -8.660  11.119  28.132  0.00  0.00    +0.304 C 
ATOM    120  O   UNL     1      -7.878  10.858  27.231  0.00  0.00    -0.251 OA
BRANCH 119 121
ATOM    121  C   UNL     1      -8.960  10.214  29.287  0.00  0.00    +0.033 C 
ATOM    122  H   UNL     1      -9.858   9.631  29.075  0.00  0.00    +0.034 HD
ATOM    123  H   UNL     1      -9.142  10.818  30.181  0.00  0.00    +0.034 HD
ATOM    124  H   UNL     1      -8.109   9.556  29.478  0.00  0.00    +0.034 HD
ENDBRANCH 119 121
ENDBRANCH 118 119
ENDBRANCH  98 118
ENDBRANCH  92  98
ENDBRANCH  90  92
BRANCH  90 125
ATOM    125  O   UNL     1     -10.712   9.679  25.794  0.00  0.00    -0.459 OA
BRANCH 125 126
ATOM    126  C   UNL     1     -10.988   8.387  26.152  0.00  0.00    +0.339 C 
ATOM    127  O   UNL     1     -11.918   8.040  26.870  0.00  0.00    -0.248 OA
BRANCH 126 128
ATOM    128  C   UNL     1      -9.977   7.446  25.468  0.00  0.00    +0.178 C 
ATOM    129  H   UNL     1     -10.234   6.417  25.760  0.00  0.00    +0.074 HD
BRANCH 128 130
ATOM    130  C   UNL     1     -10.138   7.568  23.942  0.00  0.00    +0.084 C 
ATOM    131  H   UNL     1     -11.008   8.184  23.688  0.00  0.00    +0.059 HD
ATOM    132  H   UNL     1     -10.284   6.569  23.515  0.00  0.00    +0.059 HD
BRANCH 130 133
ATOM    133  O   UNL     1      -8.973   8.161  23.353  0.00  0.00    -0.380 OA
BRANCH 133 134
ATOM    134  C   UNL     1      -9.052   8.189  21.935  0.00  0.00    +0.037 C 
ATOM    135  H   UNL     1      -8.938   9.214  21.568  0.00  0.00    +0.052 HD
ATOM    136  H   UNL     1      -8.287   7.543  21.494  0.00  0.00    +0.052 HD
ATOM    137  H   UNL     1     -10.039   7.820  21.639  0.00  0.00    +0.052 HD
ENDBRANCH 133 134
ENDBRANCH 130 133
ENDBRANCH 128 130
BRANCH 128 138
ATOM    138  O   UNL     1      -8.591   7.647  25.763  0.00  0.00    -0.366 OA
BRANCH 138 139
ATOM    139  C   UNL     1      -8.206   7.149  27.035  0.00  0.00    +0.038 C 
ATOM    140  H   UNL     1      -7.259   6.602  26.972  0.00  0.00    +0.052 HD
ATOM    141  H   UNL     1      -8.986   6.509  27.456  0.00  0.00    +0.052 HD
ATOM    142  H   UNL     1      -8.068   8.001  27.707  0.00  0.00    +0.052 HD
ENDBRANCH 138 139
ENDBRANCH 128 138
ENDBRANCH 126 128
ENDBRANCH 125 126
ENDBRANCH  90 125
ENDBRANCH  87  90
ENDBRANCH  84  87
ENDBRANCH  78  84
ENDBRANCH  76  78
BRANCH  76 143
ATOM    143  O   UNL     1      -8.170  13.298  23.498  0.00  0.00    -0.379 OA
BRANCH 143 144
ATOM    144  C   UNL     1      -7.487  13.642  24.695  0.00  0.00    +0.037 C 
ATOM    145  H   UNL     1      -6.583  14.196  24.426  0.00  0.00    +0.052 HD
ATOM    146  H   UNL     1      -8.110  14.281  25.328  0.00  0.00    +0.052 HD
ATOM    147  H   UNL     1      -7.190  12.739  25.239  0.00  0.00    +0.052 HD
ENDBRANCH 143 144
ENDBRANCH  76 143
ENDBRANCH   1  76
TORSDOF 35
ENDMDL
MODEL 7
REMARK VINA RESULT:      -5.0      1.899      4.986
REMARK  Name = Mycalolide B_conf1
REMARK  35 active torsions:
REMARK  status: ('A' for Active; 'I' for Inactive)
REMARK    1  A    between atoms: C_1  and  C_2
REMARK    2  A    between atoms: C_3  and  O_72
REMARK    3  A    between atoms: C_22  and  O_70
REMARK    4  A    between atoms: C_23  and  C_69
REMARK    5  A    between atoms: C_29  and  O_68
REMARK    6  A    between atoms: C_34  and  C_35
REMARK    7  A    between atoms: C_35  and  C_36
REMARK    8  A    between atoms: C_36  and  C_37
REMARK    9  A    between atoms: C_36  and  O_66
REMARK   10  A    between atoms: C_37  and  C_38
REMARK   11  A    between atoms: C_37  and  C_39
REMARK   12  A    between atoms: C_39  and  C_40
REMARK   13  A    between atoms: C_40  and  C_41
REMARK   14  A    between atoms: C_41  and  C_42
REMARK   15  A    between atoms: C_41  and  O_57
REMARK   16  A    between atoms: C_42  and  C_43
REMARK   17  A    between atoms: C_42  and  C_44
REMARK   18  A    between atoms: C_44  and  C_45
REMARK   19  A    between atoms: C_44  and  O_53
REMARK   20  A    between atoms: C_45  and  C_46
REMARK   21  A    between atoms: C_45  and  C_47
REMARK   22  A    between atoms: C_48  and  N_49
REMARK   23  A    between atoms: N_49  and  C_50
REMARK   24  A    between atoms: O_53  and  C_54
REMARK   25  A    between atoms: C_54  and  C_56
REMARK   26  A    between atoms: O_57  and  C_58
REMARK   27  A    between atoms: C_58  and  C_60
REMARK   28  A    between atoms: C_60  and  C_61
REMARK   29  A    between atoms: C_60  and  O_64
REMARK   30  A    between atoms: C_61  and  O_62
REMARK   31  A    between atoms: O_62  and  C_63
REMARK   32  A    between atoms: O_64  and  C_65
REMARK   33  A    between atoms: O_66  and  C_67
REMARK   34  A    between atoms: O_70  and  C_71
REMARK   35  A    between atoms: O_72  and  C_73
REMARK                            x       y       z     vdW  Elec       q    Type
REMARK                         _______ _______ _______ _____ _____    ______ ____
ROOT
ATOM      1  C   UNL     1      -8.155   9.004  18.503  0.00  0.00    +0.011 C 
ATOM      2  H   UNL     1      -7.667   9.067  19.484  0.00  0.00    +0.033 HD
ATOM      3  H   UNL     1      -8.151   7.938  18.253  0.00  0.00    +0.033 HD
ENDROOT
BRANCH   1  36
ATOM      4  C   UNL     1     -10.324   9.105  19.925  0.00  0.00    +0.020 C 
ATOM      5  C   UNL     1     -11.207   7.822  19.863  0.00  0.00    +0.068 C 
ATOM      6  C   UNL     1     -10.533   6.507  19.381  0.00  0.00    -0.008 C 
ATOM      7  C   UNL     1     -10.321   6.401  17.896  0.00  0.00    -0.077 C 
ATOM      8  C   UNL     1      -9.449   5.583  17.284  0.00  0.00    -0.003 C 
ATOM      9  C   UNL     1      -9.330   5.613  15.865  0.00  0.00    +0.220 A 
ATOM     10  N   UNL     1      -9.768   6.583  15.077  0.00  0.00    -0.205 NA
ATOM     11  C   UNL     1      -9.454   6.197  13.801  0.00  0.00    +0.164 A 
ATOM     12  C   UNL     1      -8.802   4.996  13.836  0.00  0.00    +0.125 A 
ATOM     13  O   UNL     1      -8.694   4.617  15.141  0.00  0.00    -0.443 OA
ATOM     14  C   UNL     1      -9.809   7.026  12.529  0.00  0.00    +0.250 A 
ATOM     15  N   UNL     1     -10.413   8.197  12.593  0.00  0.00    -0.203 NA
ATOM     16  C   UNL     1     -10.557   8.584  11.286  0.00  0.00    +0.164 A 
ATOM     17  C   UNL     1     -10.031   7.626  10.459  0.00  0.00    +0.125 A 
ATOM     18  O   UNL     1      -9.539   6.621  11.240  0.00  0.00    -0.442 OA
ATOM     19  C   UNL     1     -11.224   9.915  10.821  0.00  0.00    +0.249 A 
ATOM     20  N   UNL     1     -11.700  10.818  11.664  0.00  0.00    -0.210 NA
ATOM     21  C   UNL     1     -12.165  11.840  10.866  0.00  0.00    +0.109 A 
ATOM     22  C   UNL     1     -11.961  11.503   9.547  0.00  0.00    +0.118 A 
ATOM     23  O   UNL     1     -11.366  10.280   9.502  0.00  0.00    -0.442 OA
ATOM     24  C   UNL     1     -12.723  13.101  11.458  0.00  0.00    +0.113 C 
ATOM     25  C   UNL     1     -11.748  13.700  12.495  0.00  0.00    +0.051 C 
ATOM     26  C   UNL     1     -12.322  15.010  13.016  0.00  0.00    +0.161 C 
ATOM     27  O   UNL     1     -12.790  15.863  12.263  0.00  0.00    -0.292 OA
ATOM     28  C   UNL     1     -12.274  15.318  14.477  0.00  0.00    -0.023 C 
ATOM     29  C   UNL     1     -11.397  14.783  15.343  0.00  0.00    -0.078 C 
ATOM     30  C   UNL     1     -11.348  15.149  16.803  0.00  0.00    -0.008 C 
ATOM     31  C   UNL     1     -11.521  13.940  17.743  0.00  0.00    +0.069 C 
ATOM     32  C   UNL     1     -10.261  13.068  17.819  0.00  0.00    +0.071 C 
ATOM     33  C   UNL     1     -10.606  11.612  18.018  0.00  0.00    +0.310 C 
ATOM     34  O   UNL     1     -11.657  11.088  17.682  0.00  0.00    -0.251 OA
ATOM     35  O   UNL     1      -9.534  10.957  18.547  0.00  0.00    -0.461 OA
ATOM     36  C   UNL     1      -9.609   9.506  18.598  0.00  0.00    +0.110 C 
ATOM     37  H   UNL     1     -11.003   9.934  20.165  0.00  0.00    +0.036 HD
ATOM     38  H   UNL     1     -11.557   7.616  20.884  0.00  0.00    +0.060 HD
ATOM     39  H   UNL     1      -9.600   6.335  19.926  0.00  0.00    +0.033 HD
ATOM     40  H   UNL     1     -11.216   5.687  19.647  0.00  0.00    +0.033 HD
ATOM     41  H   UNL     1     -10.968   7.032  17.279  0.00  0.00    +0.057 HD
ATOM     42  H   UNL     1      -8.826   4.892  17.839  0.00  0.00    +0.067 HD
ATOM     43  H   UNL     1      -8.376   4.331  13.099  0.00  0.00    +0.105 HD
ATOM     44  H   UNL     1      -9.931   7.509   9.394  0.00  0.00    +0.105 HD
ATOM     45  H   UNL     1     -12.147  11.981   8.596  0.00  0.00    +0.105 HD
ATOM     46  H   UNL     1     -12.902  13.833  10.659  0.00  0.00    +0.067 HD
ATOM     47  H   UNL     1     -11.651  12.995  13.329  0.00  0.00    +0.041 HD
ATOM     48  H   UNL     1     -12.992  16.072  14.790  0.00  0.00    +0.065 HD
ATOM     49  H   UNL     1     -10.653  14.066  15.005  0.00  0.00    +0.057 HD
ATOM     50  H   UNL     1     -10.394  15.646  17.016  0.00  0.00    +0.033 HD
ATOM     51  H   UNL     1     -12.121  15.893  17.031  0.00  0.00    +0.033 HD
ATOM     52  H   UNL     1     -12.403  13.367  17.435  0.00  0.00    +0.060 HD
ATOM     53  H   UNL     1      -9.626  13.397  18.649  0.00  0.00    +0.040 HD
ATOM     54  H   UNL     1      -9.678  13.113  16.893  0.00  0.00    +0.040 HD
ATOM     55  H   UNL     1     -10.173   9.160  17.728  0.00  0.00    +0.074 HD
BRANCH   4  56
ATOM     56  C   UNL     1      -9.379   9.045  21.136  0.00  0.00    -0.057 C 
ATOM     57  H   UNL     1      -8.326   8.995  20.843  0.00  0.00    +0.023 HD
ATOM     58  H   UNL     1      -9.517   9.916  21.784  0.00  0.00    +0.023 HD
ATOM     59  H   UNL     1      -9.589   8.155  21.742  0.00  0.00    +0.023 HD
ENDBRANCH   4  56
BRANCH  25  60
ATOM     60  C   UNL     1     -10.366  14.003  11.910  0.00  0.00    -0.053 C 
ATOM     61  H   UNL     1      -9.887  14.842  12.427  0.00  0.00    +0.024 HD
ATOM     62  H   UNL     1     -10.439  14.269  10.852  0.00  0.00    +0.024 HD
ATOM     63  H   UNL     1      -9.698  13.141  12.000  0.00  0.00    +0.024 HD
ENDBRANCH  25  60
BRANCH  31  64
ATOM     64  O   UNL     1     -11.781  14.435  19.064  0.00  0.00    -0.391 OA
ATOM     65  H   UNL     1     -11.895  15.402  18.998  0.00  0.00    +0.210 HD
ENDBRANCH  31  64
BRANCH  24  66
ATOM     66  O   UNL     1     -13.965  12.847  12.144  0.00  0.00    -0.373 OA
BRANCH  66  67
ATOM     67  C   UNL     1     -15.105  13.020  11.314  0.00  0.00    +0.037 C 
ATOM     68  H   UNL     1     -14.859  12.844  10.264  0.00  0.00    +0.052 HD
ATOM     69  H   UNL     1     -15.524  14.023  11.444  0.00  0.00    +0.052 HD
ATOM     70  H   UNL     1     -15.862  12.292  11.617  0.00  0.00    +0.052 HD
ENDBRANCH  66  67
ENDBRANCH  24  66
BRANCH   5  71
ATOM     71  O   UNL     1     -12.374   8.015  19.047  0.00  0.00    -0.379 OA
BRANCH  71  72
ATOM     72  C   UNL     1     -13.423   8.743  19.668  0.00  0.00    +0.037 C 
ATOM     73  H   UNL     1     -13.233   8.764  20.746  0.00  0.00    +0.052 HD
ATOM     74  H   UNL     1     -13.452   9.775  19.304  0.00  0.00    +0.052 HD
ATOM     75  H   UNL     1     -14.391   8.264  19.510  0.00  0.00    +0.052 HD
ENDBRANCH  71  72
ENDBRANCH   5  71
ENDBRANCH   1  36
BRANCH   1  76
ATOM     76  C   UNL     1      -7.253   9.715  17.471  0.00  0.00    +0.064 C 
ATOM     77  H   UNL     1      -7.788  10.591  17.082  0.00  0.00    +0.060 HD
BRANCH  76  78
ATOM     78  C   UNL     1      -5.859  10.203  17.964  0.00  0.00    -0.017 C 
ATOM     79  H   UNL     1      -5.340   9.363  18.437  0.00  0.00    +0.032 HD
BRANCH  78  80
ATOM     80  C   UNL     1      -4.990  10.745  16.817  0.00  0.00    -0.060 C 
ATOM     81  H   UNL     1      -5.065  10.105  15.932  0.00  0.00    +0.023 HD
ATOM     82  H   UNL     1      -3.936  10.797  17.107  0.00  0.00    +0.023 HD
ATOM     83  H   UNL     1      -5.300  11.744  16.501  0.00  0.00    +0.023 HD
ENDBRANCH  78  80
BRANCH  78  84
ATOM     84  C   UNL     1      -6.072  11.295  19.043  0.00  0.00    -0.045 C 
ATOM     85  H   UNL     1      -6.803  12.004  18.652  0.00  0.00    +0.027 HD
ATOM     86  H   UNL     1      -6.516  10.837  19.936  0.00  0.00    +0.027 HD
BRANCH  84  87
ATOM     87  C   UNL     1      -4.818  12.066  19.456  0.00  0.00    -0.015 C 
ATOM     88  H   UNL     1      -4.118  12.155  18.619  0.00  0.00    +0.030 HD
ATOM     89  H   UNL     1      -4.276  11.483  20.214  0.00  0.00    +0.030 HD
BRANCH  87  90
ATOM     90  C   UNL     1      -5.100  13.469  20.033  0.00  0.00    +0.109 C 
ATOM     91  H   UNL     1      -5.045  13.396  21.125  0.00  0.00    +0.074 HD
BRANCH  90  92
ATOM     92  C   UNL     1      -6.451  14.161  19.642  0.00  0.00    +0.031 C 
ATOM     93  H   UNL     1      -7.051  13.369  19.174  0.00  0.00    +0.037 HD
BRANCH  92  94
ATOM     94  C   UNL     1      -6.229  15.223  18.557  0.00  0.00    -0.056 C 
ATOM     95  H   UNL     1      -6.853  15.070  17.675  0.00  0.00    +0.023 HD
ATOM     96  H   UNL     1      -6.427  16.229  18.938  0.00  0.00    +0.023 HD
ATOM     97  H   UNL     1      -5.187  15.224  18.225  0.00  0.00    +0.023 HD
ENDBRANCH  92  94
BRANCH  92  98
ATOM     98  C   UNL     1      -7.266  14.670  20.872  0.00  0.00    +0.115 C 
ATOM     99  H   UNL     1      -7.036  15.730  21.019  0.00  0.00    +0.074 HD
BRANCH  98 100
ATOM    100  C   UNL     1      -8.817  14.516  20.825  0.00  0.00    +0.013 C 
ATOM    101  H   UNL     1      -9.111  14.520  19.765  0.00  0.00    +0.038 HD
BRANCH 100 102
ATOM    102  C   UNL     1      -9.574  15.708  21.422  0.00  0.00    -0.056 C 
ATOM    103  H   UNL     1      -9.186  16.000  22.402  0.00  0.00    +0.024 HD
ATOM    104  H   UNL     1      -9.511  16.577  20.761  0.00  0.00    +0.024 HD
ATOM    105  H   UNL     1     -10.635  15.466  21.549  0.00  0.00    +0.024 HD
ENDBRANCH 100 102
BRANCH 100 106
ATOM    106  C   UNL     1      -9.303  13.202  21.402  0.00  0.00    -0.064 C 
ATOM    107  C   UNL     1     -10.430  13.123  22.125  0.00  0.00    -0.005 C 
ATOM    108  H   UNL     1      -8.690  12.330  21.204  0.00  0.00    +0.059 HD
ATOM    109  H   UNL     1     -11.004  14.038  22.292  0.00  0.00    +0.078 HD
BRANCH 107 110
ATOM    110  N   UNL     1     -10.993  11.993  22.698  0.00  0.00    -0.284 N 
ATOM    111  C   UNL     1     -10.484  11.312  23.794  0.00  0.00    +0.206 C 
ATOM    112  O   UNL     1     -10.966  10.308  24.314  0.00  0.00    -0.279 OA
ATOM    113  H   UNL     1      -9.556  11.742  24.194  0.00  0.00    +0.126 HD
BRANCH 110 114
ATOM    114  C   UNL     1     -12.204  11.467  22.073  0.00  0.00    +0.007 C 
ATOM    115  H   UNL     1     -13.062  12.126  22.227  0.00  0.00    +0.043 HD
ATOM    116  H   UNL     1     -12.041  11.355  20.998  0.00  0.00    +0.043 HD
ATOM    117  H   UNL     1     -12.427  10.491  22.512  0.00  0.00    +0.043 HD
ENDBRANCH 110 114
ENDBRANCH 107 110
ENDBRANCH 100 106
ENDBRANCH  98 100
BRANCH  98 118
ATOM    118  O   UNL     1      -6.795  13.934  22.035  0.00  0.00    -0.461 OA
BRANCH 118 119
ATOM    119  C   UNL     1      -6.692  14.624  23.204  0.00  0.00    +0.304 C 
ATOM    120  O   UNL     1      -6.169  15.720  23.337  0.00  0.00    -0.251 OA
BRANCH 119 121
ATOM    121  C   UNL     1      -7.323  13.843  24.316  0.00  0.00    +0.033 C 
ATOM    122  H   UNL     1      -7.221  14.389  25.255  0.00  0.00    +0.034 HD
ATOM    123  H   UNL     1      -6.811  12.881  24.416  0.00  0.00    +0.034 HD
ATOM    124  H   UNL     1      -8.376  13.656  24.090  0.00  0.00    +0.034 HD
ENDBRANCH 119 121
ENDBRANCH 118 119
ENDBRANCH  98 118
ENDBRANCH  92  98
ENDBRANCH  90  92
BRANCH  90 125
ATOM    125  O   UNL     1      -4.044  14.335  19.539  0.00  0.00    -0.459 OA
BRANCH 125 126
ATOM    126  C   UNL     1      -3.234  14.937  20.465  0.00  0.00    +0.339 C 
ATOM    127  O   UNL     1      -3.421  14.925  21.675  0.00  0.00    -0.248 OA
BRANCH 126 128
ATOM    128  C   UNL     1      -2.033  15.580  19.743  0.00  0.00    +0.178 C 
ATOM    129  H   UNL     1      -1.123  15.270  20.278  0.00  0.00    +0.074 HD
BRANCH 128 130
ATOM    130  C   UNL     1      -1.961  15.026  18.309  0.00  0.00    +0.084 C 
ATOM    131  H   UNL     1      -1.709  15.818  17.594  0.00  0.00    +0.059 HD
ATOM    132  H   UNL     1      -2.937  14.609  18.035  0.00  0.00    +0.059 HD
BRANCH 130 133
ATOM    133  O   UNL     1      -0.971  13.994  18.211  0.00  0.00    -0.380 OA
BRANCH 133 134
ATOM    134  C   UNL     1       0.344  14.525  18.135  0.00  0.00    +0.037 C 
ATOM    135  H   UNL     1       0.404  15.282  17.346  0.00  0.00    +0.052 HD
ATOM    136  H   UNL     1       0.643  14.957  19.095  0.00  0.00    +0.052 HD
ATOM    137  H   UNL     1       1.030  13.709  17.887  0.00  0.00    +0.052 HD
ENDBRANCH 133 134
ENDBRANCH 130 133
ENDBRANCH 128 130
BRANCH 128 138
ATOM    138  O   UNL     1      -2.015  17.007  19.644  0.00  0.00    -0.366 OA
BRANCH 138 139
ATOM    139  C   UNL     1      -3.239  17.557  19.180  0.00  0.00    +0.038 C 
ATOM    140  H   UNL     1      -4.032  16.801  19.177  0.00  0.00    +0.052 HD
ATOM    141  H   UNL     1      -3.121  17.986  18.182  0.00  0.00    +0.052 HD
ATOM    142  H   UNL     1      -3.532  18.361  19.862  0.00  0.00    +0.052 HD
ENDBRANCH 138 139
ENDBRANCH 128 138
ENDBRANCH 126 128
ENDBRANCH 125 126
ENDBRANCH  90 125
ENDBRANCH  87  90
ENDBRANCH  84  87
ENDBRANCH  78  84
ENDBRANCH  76  78
BRANCH  76 143
ATOM    143  O   UNL     1      -7.015   8.779  16.397  0.00  0.00    -0.379 OA
BRANCH 143 144
ATOM    144  C   UNL     1      -6.403   7.568  16.819  0.00  0.00    +0.037 C 
ATOM    145  H   UNL     1      -6.158   7.661  17.881  0.00  0.00    +0.052 HD
ATOM    146  H   UNL     1      -7.086   6.723  16.694  0.00  0.00    +0.052 HD
ATOM    147  H   UNL     1      -5.475   7.395  16.264  0.00  0.00    +0.052 HD
ENDBRANCH 143 144
ENDBRANCH  76 143
ENDBRANCH   1  76
TORSDOF 35
ENDMDL
MODEL 8
REMARK VINA RESULT:      -5.0      4.832      9.576
REMARK  Name = Mycalolide B_conf1
REMARK  35 active torsions:
REMARK  status: ('A' for Active; 'I' for Inactive)
REMARK    1  A    between atoms: C_1  and  C_2
REMARK    2  A    between atoms: C_3  and  O_72
REMARK    3  A    between atoms: C_22  and  O_70
REMARK    4  A    between atoms: C_23  and  C_69
REMARK    5  A    between atoms: C_29  and  O_68
REMARK    6  A    between atoms: C_34  and  C_35
REMARK    7  A    between atoms: C_35  and  C_36
REMARK    8  A    between atoms: C_36  and  C_37
REMARK    9  A    between atoms: C_36  and  O_66
REMARK   10  A    between atoms: C_37  and  C_38
REMARK   11  A    between atoms: C_37  and  C_39
REMARK   12  A    between atoms: C_39  and  C_40
REMARK   13  A    between atoms: C_40  and  C_41
REMARK   14  A    between atoms: C_41  and  C_42
REMARK   15  A    between atoms: C_41  and  O_57
REMARK   16  A    between atoms: C_42  and  C_43
REMARK   17  A    between atoms: C_42  and  C_44
REMARK   18  A    between atoms: C_44  and  C_45
REMARK   19  A    between atoms: C_44  and  O_53
REMARK   20  A    between atoms: C_45  and  C_46
REMARK   21  A    between atoms: C_45  and  C_47
REMARK   22  A    between atoms: C_48  and  N_49
REMARK   23  A    between atoms: N_49  and  C_50
REMARK   24  A    between atoms: O_53  and  C_54
REMARK   25  A    between atoms: C_54  and  C_56
REMARK   26  A    between atoms: O_57  and  C_58
REMARK   27  A    between atoms: C_58  and  C_60
REMARK   28  A    between atoms: C_60  and  C_61
REMARK   29  A    between atoms: C_60  and  O_64
REMARK   30  A    between atoms: C_61  and  O_62
REMARK   31  A    between atoms: O_62  and  C_63
REMARK   32  A    between atoms: O_64  and  C_65
REMARK   33  A    between atoms: O_66  and  C_67
REMARK   34  A    between atoms: O_70  and  C_71
REMARK   35  A    between atoms: O_72  and  C_73
REMARK                            x       y       z     vdW  Elec       q    Type
REMARK                         _______ _______ _______ _____ _____    ______ ____
ROOT
ATOM      1  C   UNL     1     -11.033   8.445  21.399  0.00  0.00    +0.011 C 
ATOM      2  H   UNL     1     -11.655   7.548  21.281  0.00  0.00    +0.033 HD
ATOM      3  H   UNL     1     -10.188   8.294  20.720  0.00  0.00    +0.033 HD
ENDROOT
BRANCH   1  36
ATOM      4  C   UNL     1     -13.202   9.380  20.320  0.00  0.00    +0.020 C 
ATOM      5  C   UNL     1     -13.228   9.337  18.762  0.00  0.00    +0.068 C 
ATOM      6  C   UNL     1     -12.240   8.369  18.052  0.00  0.00    -0.008 C 
ATOM      7  C   UNL     1     -10.813   8.841  17.988  0.00  0.00    -0.077 C 
ATOM      8  C   UNL     1      -9.738   8.063  17.788  0.00  0.00    -0.003 C 
ATOM      9  C   UNL     1      -8.437   8.643  17.785  0.00  0.00    +0.220 A 
ATOM     10  N   UNL     1      -8.128   9.838  18.266  0.00  0.00    -0.205 NA
ATOM     11  C   UNL     1      -6.784   9.992  18.048  0.00  0.00    +0.164 A 
ATOM     12  C   UNL     1      -6.288   8.865  17.454  0.00  0.00    +0.125 A 
ATOM     13  O   UNL     1      -7.319   7.987  17.297  0.00  0.00    -0.443 OA
ATOM     14  C   UNL     1      -5.981  11.272  18.429  0.00  0.00    +0.250 A 
ATOM     15  N   UNL     1      -6.539  12.302  19.035  0.00  0.00    -0.203 NA
ATOM     16  C   UNL     1      -5.522  13.211  19.178  0.00  0.00    +0.164 A 
ATOM     17  C   UNL     1      -4.366  12.699  18.649  0.00  0.00    +0.125 A 
ATOM     18  O   UNL     1      -4.640  11.451  18.170  0.00  0.00    -0.442 OA
ATOM     19  C   UNL     1      -5.671  14.616  19.841  0.00  0.00    +0.249 A 
ATOM     20  N   UNL     1      -6.809  15.055  20.355  0.00  0.00    -0.210 NA
ATOM     21  C   UNL     1      -6.513  16.301  20.861  0.00  0.00    +0.109 A 
ATOM     22  C   UNL     1      -5.187  16.578  20.617  0.00  0.00    +0.118 A 
ATOM     23  O   UNL     1      -4.638  15.516  19.965  0.00  0.00    -0.442 OA
ATOM     24  C   UNL     1      -7.539  17.107  21.602  0.00  0.00    +0.113 C 
ATOM     25  C   UNL     1      -8.191  16.270  22.723  0.00  0.00    +0.051 C 
ATOM     26  C   UNL     1      -9.173  17.146  23.490  0.00  0.00    +0.161 C 
ATOM     27  O   UNL     1      -8.881  18.282  23.861  0.00  0.00    -0.292 OA
ATOM     28  C   UNL     1     -10.515  16.611  23.867  0.00  0.00    -0.023 C 
ATOM     29  C   UNL     1     -10.809  15.307  24.000  0.00  0.00    -0.078 C 
ATOM     30  C   UNL     1     -12.163  14.802  24.423  0.00  0.00    -0.008 C 
ATOM     31  C   UNL     1     -12.805  13.840  23.405  0.00  0.00    +0.069 C 
ATOM     32  C   UNL     1     -12.170  12.445  23.432  0.00  0.00    +0.071 C 
ATOM     33  C   UNL     1     -12.170  11.808  22.063  0.00  0.00    +0.310 C 
ATOM     34  O   UNL     1     -12.187  12.420  21.006  0.00  0.00    -0.251 OA
ATOM     35  O   UNL     1     -12.059  10.455  22.188  0.00  0.00    -0.461 OA
ATOM     36  C   UNL     1     -11.821   9.699  20.970  0.00  0.00    +0.110 C 
ATOM     37  H   UNL     1     -13.871  10.198  20.616  0.00  0.00    +0.036 HD
ATOM     38  H   UNL     1     -14.231   9.005  18.461  0.00  0.00    +0.060 HD
ATOM     39  H   UNL     1     -12.305   7.369  18.490  0.00  0.00    +0.033 HD
ATOM     40  H   UNL     1     -12.576   8.285  17.009  0.00  0.00    +0.033 HD
ATOM     41  H   UNL     1     -10.667   9.921  18.084  0.00  0.00    +0.057 HD
ATOM     42  H   UNL     1      -9.825   6.995  17.626  0.00  0.00    +0.067 HD
ATOM     43  H   UNL     1      -5.316   8.541  17.111  0.00  0.00    +0.105 HD
ATOM     44  H   UNL     1      -3.355  13.053  18.540  0.00  0.00    +0.105 HD
ATOM     45  H   UNL     1      -4.523  17.402  20.833  0.00  0.00    +0.105 HD
ATOM     46  H   UNL     1      -7.063  17.996  22.039  0.00  0.00    +0.067 HD
ATOM     47  H   UNL     1      -8.738  15.439  22.264  0.00  0.00    +0.041 HD
ATOM     48  H   UNL     1     -11.249  17.382  24.084  0.00  0.00    +0.065 HD
ATOM     49  H   UNL     1     -10.050  14.548  23.825  0.00  0.00    +0.057 HD
ATOM     50  H   UNL     1     -12.071  14.301  25.395  0.00  0.00    +0.033 HD
ATOM     51  H   UNL     1     -12.843  15.647  24.595  0.00  0.00    +0.033 HD
ATOM     52  H   UNL     1     -12.767  14.293  22.408  0.00  0.00    +0.060 HD
ATOM     53  H   UNL     1     -12.718  11.795  24.123  0.00  0.00    +0.040 HD
ATOM     54  H   UNL     1     -11.120  12.480  23.744  0.00  0.00    +0.040 HD
ATOM     55  H   UNL     1     -11.203  10.307  20.303  0.00  0.00    +0.074 HD
BRANCH   4  56
ATOM     56  C   UNL     1     -13.877   8.127  20.900  0.00  0.00    -0.057 C 
ATOM     57  H   UNL     1     -14.731   8.369  21.540  0.00  0.00    +0.023 HD
ATOM     58  H   UNL     1     -14.220   7.461  20.102  0.00  0.00    +0.023 HD
ATOM     59  H   UNL     1     -13.166   7.558  21.513  0.00  0.00    +0.023 HD
ENDBRANCH   4  56
BRANCH  25  60
ATOM     60  C   UNL     1      -7.174  15.726  23.731  0.00  0.00    -0.053 C 
ATOM     61  H   UNL     1      -7.571  15.750  24.752  0.00  0.00    +0.024 HD
ATOM     62  H   UNL     1      -6.258  16.323  23.722  0.00  0.00    +0.024 HD
ATOM     63  H   UNL     1      -6.909  14.688  23.508  0.00  0.00    +0.024 HD
ENDBRANCH  25  60
BRANCH  31  64
ATOM     64  O   UNL     1     -14.190  13.688  23.745  0.00  0.00    -0.391 OA
ATOM     65  H   UNL     1     -14.252  12.978  24.412  0.00  0.00    +0.210 HD
ENDBRANCH  31  64
BRANCH  24  66
ATOM     66  O   UNL     1      -8.599  17.533  20.723  0.00  0.00    -0.373 OA
BRANCH  66  67
ATOM     67  C   UNL     1      -8.371  18.815  20.154  0.00  0.00    +0.037 C 
ATOM     68  H   UNL     1      -8.565  18.809  19.079  0.00  0.00    +0.052 HD
ATOM     69  H   UNL     1      -7.346  19.143  20.355  0.00  0.00    +0.052 HD
ATOM     70  H   UNL     1      -9.056  19.525  20.624  0.00  0.00    +0.052 HD
ENDBRANCH  66  67
ENDBRANCH  24  66
BRANCH   5  71
ATOM     71  O   UNL     1     -13.022  10.637  18.187  0.00  0.00    -0.379 OA
BRANCH  71  72
ATOM     72  C   UNL     1     -14.197  11.423  18.052  0.00  0.00    +0.037 C 
ATOM     73  H   UNL     1     -14.811  10.985  17.258  0.00  0.00    +0.052 HD
ATOM     74  H   UNL     1     -14.779  11.418  18.979  0.00  0.00    +0.052 HD
ATOM     75  H   UNL     1     -13.961  12.449  17.764  0.00  0.00    +0.052 HD
ENDBRANCH  71  72
ENDBRANCH   5  71
ENDBRANCH   1  36
BRANCH   1  76
ATOM     76  C   UNL     1     -10.466   8.452  22.835  0.00  0.00    +0.064 C 
ATOM     77  H   UNL     1     -10.508   9.478  23.222  0.00  0.00    +0.060 HD
BRANCH  76  78
ATOM     78  C   UNL     1     -11.164   7.531  23.878  0.00  0.00    -0.017 C 
ATOM     79  H   UNL     1     -12.044   7.076  23.412  0.00  0.00    +0.032 HD
BRANCH  78  80
ATOM     80  C   UNL     1     -10.236   6.416  24.388  0.00  0.00    -0.060 C 
ATOM     81  H   UNL     1      -9.412   6.831  24.976  0.00  0.00    +0.023 HD
ATOM     82  H   UNL     1      -9.806   5.847  23.559  0.00  0.00    +0.023 HD
ATOM     83  H   UNL     1     -10.757   5.712  25.041  0.00  0.00    +0.023 HD
ENDBRANCH  78  80
BRANCH  78  84
ATOM     84  C   UNL     1     -11.655   8.408  25.059  0.00  0.00    -0.045 C 
ATOM     85  H   UNL     1     -12.598   8.866  24.758  0.00  0.00    +0.027 HD
ATOM     86  H   UNL     1     -11.872   7.764  25.920  0.00  0.00    +0.027 HD
BRANCH  84  87
ATOM     87  C   UNL     1     -10.696   9.513  25.501  0.00  0.00    -0.015 C 
ATOM     88  H   UNL     1     -11.018  10.489  25.122  0.00  0.00    +0.030 HD
ATOM     89  H   UNL     1      -9.716   9.342  25.033  0.00  0.00    +0.030 HD
BRANCH  87  90
ATOM     90  C   UNL     1     -10.496   9.603  27.028  0.00  0.00    +0.109 C 
ATOM     91  H   UNL     1     -11.084   8.800  27.487  0.00  0.00    +0.074 HD
BRANCH  90  92
ATOM     92  C   UNL     1     -10.856  10.957  27.733  0.00  0.00    +0.031 C 
ATOM     93  H   UNL     1     -11.107  10.680  28.766  0.00  0.00    +0.037 HD
BRANCH  92  94
ATOM     94  C   UNL     1     -12.130  11.564  27.133  0.00  0.00    -0.056 C 
ATOM     95  H   UNL     1     -12.143  12.654  27.171  0.00  0.00    +0.023 HD
ATOM     96  H   UNL     1     -12.262  11.263  26.089  0.00  0.00    +0.023 HD
ATOM     97  H   UNL     1     -13.017  11.208  27.664  0.00  0.00    +0.023 HD
ENDBRANCH  92  94
BRANCH  92  98
ATOM     98  C   UNL     1      -9.656  11.951  27.817  0.00  0.00    +0.115 C 
ATOM     99  H   UNL     1      -8.731  11.381  27.675  0.00  0.00    +0.074 HD
BRANCH  98 100
ATOM    100  C   UNL     1      -9.640  13.151  26.821  0.00  0.00    +0.013 C 
ATOM    101  H   UNL     1     -10.556  13.080  26.216  0.00  0.00    +0.038 HD
BRANCH 100 102
ATOM    102  C   UNL     1      -8.509  13.080  25.788  0.00  0.00    -0.056 C 
ATOM    103  H   UNL     1      -8.771  12.463  24.923  0.00  0.00    +0.024 HD
ATOM    104  H   UNL     1      -8.253  14.079  25.425  0.00  0.00    +0.024 HD
ATOM    105  H   UNL     1      -7.605  12.650  26.235  0.00  0.00    +0.024 HD
ENDBRANCH 100 102
BRANCH 100 106
ATOM    106  C   UNL     1      -9.681  14.498  27.512  0.00  0.00    -0.064 C 
ATOM    107  C   UNL     1      -8.970  15.543  27.062  0.00  0.00    -0.005 C 
ATOM    108  H   UNL     1     -10.312  14.573  28.390  0.00  0.00    +0.059 HD
ATOM    109  H   UNL     1      -8.350  15.404  26.172  0.00  0.00    +0.078 HD
BRANCH 107 110
ATOM    110  N   UNL     1      -8.924  16.826  27.586  0.00  0.00    -0.284 N 
ATOM    111  C   UNL     1      -8.023  17.812  27.211  0.00  0.00    +0.206 C 
ATOM    112  O   UNL     1      -7.964  18.953  27.665  0.00  0.00    -0.279 OA
ATOM    113  H   UNL     1      -7.307  17.493  26.442  0.00  0.00    +0.126 HD
BRANCH 110 114
ATOM    114  C   UNL     1      -9.887  17.148  28.635  0.00  0.00    +0.007 C 
ATOM    115  H   UNL     1      -9.661  18.102  29.118  0.00  0.00    +0.043 HD
ATOM    116  H   UNL     1     -10.891  17.206  28.205  0.00  0.00    +0.043 HD
ATOM    117  H   UNL     1      -9.858  16.357  29.390  0.00  0.00    +0.043 HD
ENDBRANCH 110 114
ENDBRANCH 107 110
ENDBRANCH 100 106
ENDBRANCH  98 100
BRANCH  98 118
ATOM    118  O   UNL     1      -9.649  12.506  29.162  0.00  0.00    -0.461 OA
BRANCH 118 119
ATOM    119  C   UNL     1      -9.066  11.757  30.137  0.00  0.00    +0.304 C 
ATOM    120  O   UNL     1      -8.057  11.081  30.005  0.00  0.00    -0.251 OA
BRANCH 119 121
ATOM    121  C   UNL     1      -9.844  11.884  31.412  0.00  0.00    +0.033 C 
ATOM    122  H   UNL     1     -10.837  11.452  31.282  0.00  0.00    +0.034 HD
ATOM    123  H   UNL     1      -9.956  12.943  31.661  0.00  0.00    +0.034 HD
ATOM    124  H   UNL     1      -9.310  11.388  32.226  0.00  0.00    +0.034 HD
ENDBRANCH 119 121
ENDBRANCH 118 119
ENDBRANCH  98 118
ENDBRANCH  92  98
ENDBRANCH  90  92
BRANCH  90 125
ATOM    125  O   UNL     1      -9.081   9.385  27.271  0.00  0.00    -0.459 OA
BRANCH 125 126
ATOM    126  C   UNL     1      -8.626   8.094  27.246  0.00  0.00    +0.339 C 
ATOM    127  O   UNL     1      -7.847   7.640  26.417  0.00  0.00    -0.248 OA
BRANCH 126 128
ATOM    128  C   UNL     1      -9.210   7.329  28.450  0.00  0.00    +0.178 C 
ATOM    129  H   UNL     1     -10.164   6.886  28.128  0.00  0.00    +0.074 HD
BRANCH 128 130
ATOM    130  C   UNL     1      -8.250   6.185  28.825  0.00  0.00    +0.084 C 
ATOM    131  H   UNL     1      -7.839   6.333  29.830  0.00  0.00    +0.059 HD
ATOM    132  H   UNL     1      -7.420   6.164  28.110  0.00  0.00    +0.059 HD
BRANCH 130 133
ATOM    133  O   UNL     1      -8.926   4.922  28.792  0.00  0.00    -0.380 OA
BRANCH 133 134
ATOM    134  C   UNL     1      -9.164   4.482  27.463  0.00  0.00    +0.037 C 
ATOM    135  H   UNL     1      -8.223   4.190  26.984  0.00  0.00    +0.052 HD
ATOM    136  H   UNL     1      -9.868   3.644  27.453  0.00  0.00    +0.052 HD
ATOM    137  H   UNL     1      -9.598   5.313  26.899  0.00  0.00    +0.052 HD
ENDBRANCH 133 134
ENDBRANCH 130 133
ENDBRANCH 128 130
BRANCH 128 138
ATOM    138  O   UNL     1      -9.460   8.078  29.644  0.00  0.00    -0.366 OA
BRANCH 138 139
ATOM    139  C   UNL     1      -8.633   7.697  30.733  0.00  0.00    +0.038 C 
ATOM    140  H   UNL     1      -8.435   6.619  30.717  0.00  0.00    +0.052 HD
ATOM    141  H   UNL     1      -9.086   7.984  31.685  0.00  0.00    +0.052 HD
ATOM    142  H   UNL     1      -7.680   8.225  30.638  0.00  0.00    +0.052 HD
ENDBRANCH 138 139
ENDBRANCH 128 138
ENDBRANCH 126 128
ENDBRANCH 125 126
ENDBRANCH  90 125
ENDBRANCH  87  90
ENDBRANCH  84  87
ENDBRANCH  78  84
ENDBRANCH  76  78
BRANCH  76 143
ATOM    143  O   UNL     1      -9.089   8.023  22.751  0.00  0.00    -0.379 OA
BRANCH 143 144
ATOM    144  C   UNL     1      -8.549   8.092  21.438  0.00  0.00    +0.037 C 
ATOM    145  H   UNL     1      -9.253   8.641  20.806  0.00  0.00    +0.052 HD
ATOM    146  H   UNL     1      -7.594   8.626  21.438  0.00  0.00    +0.052 HD
ATOM    147  H   UNL     1      -8.424   7.086  21.023  0.00  0.00    +0.052 HD
ENDBRANCH 143 144
ENDBRANCH  76 143
ENDBRANCH   1  76
TORSDOF 35
ENDMDL
MODEL 9
REMARK VINA RESULT:      -5.0      1.790      4.167
REMARK  Name = Mycalolide B_conf1
REMARK  35 active torsions:
REMARK  status: ('A' for Active; 'I' for Inactive)
REMARK    1  A    between atoms: C_1  and  C_2
REMARK    2  A    between atoms: C_3  and  O_72
REMARK    3  A    between atoms: C_22  and  O_70
REMARK    4  A    between atoms: C_23  and  C_69
REMARK    5  A    between atoms: C_29  and  O_68
REMARK    6  A    between atoms: C_34  and  C_35
REMARK    7  A    between atoms: C_35  and  C_36
REMARK    8  A    between atoms: C_36  and  C_37
REMARK    9  A    between atoms: C_36  and  O_66
REMARK   10  A    between atoms: C_37  and  C_38
REMARK   11  A    between atoms: C_37  and  C_39
REMARK   12  A    between atoms: C_39  and  C_40
REMARK   13  A    between atoms: C_40  and  C_41
REMARK   14  A    between atoms: C_41  and  C_42
REMARK   15  A    between atoms: C_41  and  O_57
REMARK   16  A    between atoms: C_42  and  C_43
REMARK   17  A    between atoms: C_42  and  C_44
REMARK   18  A    between atoms: C_44  and  C_45
REMARK   19  A    between atoms: C_44  and  O_53
REMARK   20  A    between atoms: C_45  and  C_46
REMARK   21  A    between atoms: C_45  and  C_47
REMARK   22  A    between atoms: C_48  and  N_49
REMARK   23  A    between atoms: N_49  and  C_50
REMARK   24  A    between atoms: O_53  and  C_54
REMARK   25  A    between atoms: C_54  and  C_56
REMARK   26  A    between atoms: O_57  and  C_58
REMARK   27  A    between atoms: C_58  and  C_60
REMARK   28  A    between atoms: C_60  and  C_61
REMARK   29  A    between atoms: C_60  and  O_64
REMARK   30  A    between atoms: C_61  and  O_62
REMARK   31  A    between atoms: O_62  and  C_63
REMARK   32  A    between atoms: O_64  and  C_65
REMARK   33  A    between atoms: O_66  and  C_67
REMARK   34  A    between atoms: O_70  and  C_71
REMARK   35  A    between atoms: O_72  and  C_73
REMARK                            x       y       z     vdW  Elec       q    Type
REMARK                         _______ _______ _______ _____ _____    ______ ____
ROOT
ATOM      1  C   UNL     1      -8.230   8.667  18.426  0.00  0.00    +0.011 C 
ATOM      2  H   UNL     1      -7.737   8.655  19.407  0.00  0.00    +0.033 HD
ATOM      3  H   UNL     1      -8.191   7.629  18.079  0.00  0.00    +0.033 HD
ENDROOT
BRANCH   1  36
ATOM      4  C   UNL     1     -10.388   8.568  19.866  0.00  0.00    +0.020 C 
ATOM      5  C   UNL     1     -11.226   7.264  19.700  0.00  0.00    +0.068 C 
ATOM      6  C   UNL     1     -10.511   6.020  19.103  0.00  0.00    -0.008 C 
ATOM      7  C   UNL     1     -10.309   6.049  17.613  0.00  0.00    -0.077 C 
ATOM      8  C   UNL     1      -9.414   5.318  16.928  0.00  0.00    -0.003 C 
ATOM      9  C   UNL     1      -9.310   5.472  15.516  0.00  0.00    +0.220 A 
ATOM     10  N   UNL     1      -9.789   6.490  14.817  0.00  0.00    -0.205 NA
ATOM     11  C   UNL     1      -9.474   6.226  13.510  0.00  0.00    +0.164 A 
ATOM     12  C   UNL     1      -8.779   5.051  13.438  0.00  0.00    +0.125 A 
ATOM     13  O   UNL     1      -8.646   4.566  14.705  0.00  0.00    -0.443 OA
ATOM     14  C   UNL     1      -9.869   7.147  12.316  0.00  0.00    +0.250 A 
ATOM     15  N   UNL     1     -10.513   8.286  12.484  0.00  0.00    -0.203 NA
ATOM     16  C   UNL     1     -10.683   8.777  11.215  0.00  0.00    +0.164 A 
ATOM     17  C   UNL     1     -10.131   7.913  10.307  0.00  0.00    +0.125 A 
ATOM     18  O   UNL     1      -9.597   6.863  10.996  0.00  0.00    -0.442 OA
ATOM     19  C   UNL     1     -11.401  10.119  10.870  0.00  0.00    +0.249 A 
ATOM     20  N   UNL     1     -11.900  10.929  11.791  0.00  0.00    -0.210 NA
ATOM     21  C   UNL     1     -12.409  11.998  11.086  0.00  0.00    +0.109 A 
ATOM     22  C   UNL     1     -12.205  11.782   9.742  0.00  0.00    +0.118 A 
ATOM     23  O   UNL     1     -11.568  10.589   9.588  0.00  0.00    -0.442 OA
ATOM     24  C   UNL     1     -13.005  13.183  11.787  0.00  0.00    +0.113 C 
ATOM     25  C   UNL     1     -12.042  13.726  12.865  0.00  0.00    +0.051 C 
ATOM     26  C   UNL     1     -12.657  14.965  13.501  0.00  0.00    +0.161 C 
ATOM     27  O   UNL     1     -13.161  15.862  12.826  0.00  0.00    -0.292 OA
ATOM     28  C   UNL     1     -12.606  15.149  14.982  0.00  0.00    -0.023 C 
ATOM     29  C   UNL     1     -11.703  14.574  15.793  0.00  0.00    -0.078 C 
ATOM     30  C   UNL     1     -11.653  14.815  17.279  0.00  0.00    -0.008 C 
ATOM     31  C   UNL     1     -11.774  13.526  18.113  0.00  0.00    +0.069 C 
ATOM     32  C   UNL     1     -10.484  12.696  18.107  0.00  0.00    +0.071 C 
ATOM     33  C   UNL     1     -10.776  11.217  18.183  0.00  0.00    +0.310 C 
ATOM     34  O   UNL     1     -11.811  10.686  17.809  0.00  0.00    -0.251 OA
ATOM     35  O   UNL     1      -9.676  10.558  18.646  0.00  0.00    -0.461 OA
ATOM     36  C   UNL     1      -9.700   9.106  18.574  0.00  0.00    +0.110 C 
ATOM     37  H   UNL     1     -11.093   9.349  20.180  0.00  0.00    +0.036 HD
ATOM     38  H   UNL     1     -11.558   6.959  20.702  0.00  0.00    +0.060 HD
ATOM     39  H   UNL     1      -9.567   5.836  19.625  0.00  0.00    +0.033 HD
ATOM     40  H   UNL     1     -11.161   5.157  19.302  0.00  0.00    +0.033 HD
ATOM     41  H   UNL     1     -10.983   6.706  17.057  0.00  0.00    +0.057 HD
ATOM     42  H   UNL     1      -8.762   4.605  17.418  0.00  0.00    +0.067 HD
ATOM     43  H   UNL     1      -8.337   4.467  12.644  0.00  0.00    +0.105 HD
ATOM     44  H   UNL     1     -10.037   7.891   9.234  0.00  0.00    +0.105 HD
ATOM     45  H   UNL     1     -12.417  12.333   8.837  0.00  0.00    +0.105 HD
ATOM     46  H   UNL     1     -13.218  13.974  11.055  0.00  0.00    +0.067 HD
ATOM     47  H   UNL     1     -11.913  12.957  13.635  0.00  0.00    +0.041 HD
ATOM     48  H   UNL     1     -13.347  15.847  15.362  0.00  0.00    +0.065 HD
ATOM     49  H   UNL     1     -10.937  13.916  15.390  0.00  0.00    +0.057 HD
ATOM     50  H   UNL     1     -10.715  15.327  17.528  0.00  0.00    +0.033 HD
ATOM     51  H   UNL     1     -12.450  15.509  17.575  0.00  0.00    +0.033 HD
ATOM     52  H   UNL     1     -12.638  12.950  17.763  0.00  0.00    +0.060 HD
ATOM     53  H   UNL     1      -9.853  12.975  18.957  0.00  0.00    +0.040 HD
ATOM     54  H   UNL     1      -9.912  12.840  17.184  0.00  0.00    +0.040 HD
ATOM     55  H   UNL     1     -10.259   8.816  17.680  0.00  0.00    +0.074 HD
BRANCH   4  56
ATOM     56  C   UNL     1      -9.430   8.439  21.061  0.00  0.00    -0.057 C 
ATOM     57  H   UNL     1      -9.901   7.961  21.926  0.00  0.00    +0.023 HD
ATOM     58  H   UNL     1      -8.540   7.862  20.789  0.00  0.00    +0.023 HD
ATOM     59  H   UNL     1      -9.087   9.429  21.386  0.00  0.00    +0.023 HD
ENDBRANCH   4  56
BRANCH  25  60
ATOM     60  C   UNL     1     -10.677  14.127  12.299  0.00  0.00    -0.053 C 
ATOM     61  H   UNL     1      -9.907  14.134  13.079  0.00  0.00    +0.024 HD
ATOM     62  H   UNL     1     -10.713  15.130  11.866  0.00  0.00    +0.024 HD
ATOM     63  H   UNL     1     -10.348  13.431  11.522  0.00  0.00    +0.024 HD
ENDBRANCH  25  60
BRANCH  31  64
ATOM     64  O   UNL     1     -12.040  13.896  19.473  0.00  0.00    -0.391 OA
ATOM     65  H   UNL     1     -12.996  14.076  19.547  0.00  0.00    +0.210 HD
ENDBRANCH  31  64
BRANCH  24  66
ATOM     66  O   UNL     1     -14.231  12.827  12.457  0.00  0.00    -0.373 OA
BRANCH  66  67
ATOM     67  C   UNL     1     -15.385  13.037  11.655  0.00  0.00    +0.037 C 
ATOM     68  H   UNL     1     -15.398  14.048  11.240  0.00  0.00    +0.052 HD
ATOM     69  H   UNL     1     -16.293  12.852  12.237  0.00  0.00    +0.052 HD
ATOM     70  H   UNL     1     -15.360  12.325  10.826  0.00  0.00    +0.052 HD
ENDBRANCH  66  67
ENDBRANCH  24  66
BRANCH   5  71
ATOM     71  O   UNL     1     -12.407   7.484  18.911  0.00  0.00    -0.379 OA
BRANCH  71  72
ATOM     72  C   UNL     1     -13.575   6.836  19.391  0.00  0.00    +0.037 C 
ATOM     73  H   UNL     1     -14.392   7.045  18.693  0.00  0.00    +0.052 HD
ATOM     74  H   UNL     1     -13.430   5.752  19.435  0.00  0.00    +0.052 HD
ATOM     75  H   UNL     1     -13.868   7.214  20.371  0.00  0.00    +0.052 HD
ENDBRANCH  71  72
ENDBRANCH   5  71
ENDBRANCH   1  36
BRANCH   1  76
ATOM     76  C   UNL     1      -7.361   9.501  17.462  0.00  0.00    +0.064 C 
ATOM     77  H   UNL     1      -7.761  10.522  17.424  0.00  0.00    +0.060 HD
BRANCH  76  78
ATOM     78  C   UNL     1      -5.842   9.609  17.787  0.00  0.00    -0.017 C 
ATOM     79  H   UNL     1      -5.545   8.734  18.374  0.00  0.00    +0.032 HD
BRANCH  78  80
ATOM     80  C   UNL     1      -4.975   9.677  16.519  0.00  0.00    -0.060 C 
ATOM     81  H   UNL     1      -4.041  10.214  16.711  0.00  0.00    +0.023 HD
ATOM     82  H   UNL     1      -5.498  10.192  15.707  0.00  0.00    +0.023 HD
ATOM     83  H   UNL     1      -4.692   8.685  16.158  0.00  0.00    +0.023 HD
ENDBRANCH  78  80
BRANCH  78  84
ATOM     84  C   UNL     1      -5.614  10.866  18.666  0.00  0.00    -0.045 C 
ATOM     85  H   UNL     1      -6.552  11.422  18.691  0.00  0.00    +0.027 HD
ATOM     86  H   UNL     1      -5.400  10.552  19.695  0.00  0.00    +0.027 HD
BRANCH  84  87
ATOM     87  C   UNL     1      -4.503  11.805  18.196  0.00  0.00    -0.015 C 
ATOM     88  H   UNL     1      -4.415  11.795  17.104  0.00  0.00    +0.030 HD
ATOM     89  H   UNL     1      -3.538  11.423  18.557  0.00  0.00    +0.030 HD
BRANCH  87  90
ATOM     90  C   UNL     1      -4.660  13.262  18.679  0.00  0.00    +0.109 C 
ATOM     91  H   UNL     1      -5.144  13.235  19.662  0.00  0.00    +0.074 HD
BRANCH  90  92
ATOM     92  C   UNL     1      -5.448  14.255  17.757  0.00  0.00    +0.031 C 
ATOM     93  H   UNL     1      -6.016  13.614  17.069  0.00  0.00    +0.037 HD
BRANCH  92  94
ATOM     94  C   UNL     1      -4.487  15.071  16.884  0.00  0.00    -0.056 C 
ATOM     95  H   UNL     1      -3.572  14.530  16.635  0.00  0.00    +0.023 HD
ATOM     96  H   UNL     1      -4.961  15.377  15.946  0.00  0.00    +0.023 HD
ATOM     97  H   UNL     1      -4.193  15.995  17.390  0.00  0.00    +0.023 HD
ENDBRANCH  92  94
BRANCH  92  98
ATOM     98  C   UNL     1      -6.495  15.118  18.528  0.00  0.00    +0.115 C 
ATOM     99  H   UNL     1      -5.990  16.014  18.903  0.00  0.00    +0.074 HD
BRANCH  98 100
ATOM    100  C   UNL     1      -7.769  15.574  17.752  0.00  0.00    +0.013 C 
ATOM    101  H   UNL     1      -8.623  15.454  18.434  0.00  0.00    +0.038 HD
BRANCH 100 102
ATOM    102  C   UNL     1      -8.119  14.676  16.560  0.00  0.00    -0.056 C 
ATOM    103  H   UNL     1      -9.169  14.369  16.562  0.00  0.00    +0.024 HD
ATOM    104  H   UNL     1      -7.919  15.191  15.615  0.00  0.00    +0.024 HD
ATOM    105  H   UNL     1      -7.511  13.764  16.573  0.00  0.00    +0.024 HD
ENDBRANCH 100 102
BRANCH 100 106
ATOM    106  C   UNL     1      -7.734  17.037  17.358  0.00  0.00    -0.064 C 
ATOM    107  C   UNL     1      -6.822  17.880  17.863  0.00  0.00    -0.005 C 
ATOM    108  H   UNL     1      -8.485  17.366  16.649  0.00  0.00    +0.059 HD
ATOM    109  H   UNL     1      -6.090  17.489  18.575  0.00  0.00    +0.078 HD
BRANCH 107 110
ATOM    110  N   UNL     1      -6.668  19.230  17.582  0.00  0.00    -0.284 N 
ATOM    111  C   UNL     1      -6.770  19.803  16.323  0.00  0.00    +0.206 C 
ATOM    112  O   UNL     1      -6.634  20.995  16.054  0.00  0.00    -0.279 OA
ATOM    113  H   UNL     1      -6.983  19.084  15.521  0.00  0.00    +0.126 HD
BRANCH 110 114
ATOM    114  C   UNL     1      -6.344  20.107  18.705  0.00  0.00    +0.007 C 
ATOM    115  H   UNL     1      -6.363  21.161  18.418  0.00  0.00    +0.043 HD
ATOM    116  H   UNL     1      -7.069  19.953  19.509  0.00  0.00    +0.043 HD
ATOM    117  H   UNL     1      -5.342  19.858  19.064  0.00  0.00    +0.043 HD
ENDBRANCH 110 114
ENDBRANCH 107 110
ENDBRANCH 100 106
ENDBRANCH  98 100
BRANCH  98 118
ATOM    118  O   UNL     1      -6.943  14.334  19.669  0.00  0.00    -0.461 OA
BRANCH 118 119
ATOM    119  C   UNL     1      -7.222  15.015  20.815  0.00  0.00    +0.304 C 
ATOM    120  O   UNL     1      -6.438  15.720  21.430  0.00  0.00    -0.251 OA
BRANCH 119 121
ATOM    121  C   UNL     1      -8.646  14.775  21.217  0.00  0.00    +0.033 C 
ATOM    122  H   UNL     1      -9.300  15.473  20.691  0.00  0.00    +0.034 HD
ATOM    123  H   UNL     1      -8.751  14.946  22.292  0.00  0.00    +0.034 HD
ATOM    124  H   UNL     1      -8.927  13.742  20.999  0.00  0.00    +0.034 HD
ENDBRANCH 119 121
ENDBRANCH 118 119
ENDBRANCH  98 118
ENDBRANCH  92  98
ENDBRANCH  90  92
BRANCH  90 125
ATOM    125  O   UNL     1      -3.318  13.801  18.801  0.00  0.00    -0.459 OA
BRANCH 125 126
ATOM    126  C   UNL     1      -2.995  14.440  19.968  0.00  0.00    +0.339 C 
ATOM    127  O   UNL     1      -3.420  14.135  21.076  0.00  0.00    -0.248 OA
BRANCH 126 128
ATOM    128  C   UNL     1      -1.980  15.561  19.667  0.00  0.00    +0.178 C 
ATOM    129  H   UNL     1      -1.451  15.786  20.605  0.00  0.00    +0.074 HD
BRANCH 128 130
ATOM    130  C   UNL     1      -0.952  15.039  18.647  0.00  0.00    +0.084 C 
ATOM    131  H   UNL     1      -0.452  15.869  18.136  0.00  0.00    +0.059 HD
ATOM    132  H   UNL     1      -1.469  14.430  17.896  0.00  0.00    +0.059 HD
BRANCH 130 133
ATOM    133  O   UNL     1       0.044  14.237  19.293  0.00  0.00    -0.380 OA
BRANCH 133 134
ATOM    134  C   UNL     1       0.747  14.964  20.291  0.00  0.00    +0.037 C 
ATOM    135  H   UNL     1       0.826  16.018  20.009  0.00  0.00    +0.052 HD
ATOM    136  H   UNL     1       0.249  14.868  21.261  0.00  0.00    +0.052 HD
ATOM    137  H   UNL     1       1.757  14.548  20.370  0.00  0.00    +0.052 HD
ENDBRANCH 133 134
ENDBRANCH 130 133
ENDBRANCH 128 130
BRANCH 128 138
ATOM    138  O   UNL     1      -2.497  16.792  19.153  0.00  0.00    -0.366 OA
BRANCH 138 139
ATOM    139  C   UNL     1      -3.694  17.212  19.791  0.00  0.00    +0.038 C 
ATOM    140  H   UNL     1      -4.083  18.127  19.330  0.00  0.00    +0.052 HD
ATOM    141  H   UNL     1      -3.533  17.365  20.861  0.00  0.00    +0.052 HD
ATOM    142  H   UNL     1      -4.440  16.420  19.671  0.00  0.00    +0.052 HD
ENDBRANCH 138 139
ENDBRANCH 128 138
ENDBRANCH 126 128
ENDBRANCH 125 126
ENDBRANCH  90 125
ENDBRANCH  87  90
ENDBRANCH  84  87
ENDBRANCH  78  84
ENDBRANCH  76  78
BRANCH  76 143
ATOM    143  O   UNL     1      -7.469   8.892  16.157  0.00  0.00    -0.379 OA
BRANCH 143 144
ATOM    144  C   UNL     1      -8.515   9.429  15.360  0.00  0.00    +0.037 C 
ATOM    145  H   UNL     1      -8.105  10.250  14.765  0.00  0.00    +0.052 HD
ATOM    146  H   UNL     1      -8.914   8.672  14.679  0.00  0.00    +0.052 HD
ATOM    147  H   UNL     1      -9.313   9.829  15.997  0.00  0.00    +0.052 HD
ENDBRANCH 143 144
ENDBRANCH  76 143
ENDBRANCH   1  76
TORSDOF 35
ENDMDL
MODEL 10
REMARK VINA RESULT:      -5.0      5.528     10.546
REMARK  Name = Mycalolide B_conf1
REMARK  35 active torsions:
REMARK  status: ('A' for Active; 'I' for Inactive)
REMARK    1  A    between atoms: C_1  and  C_2
REMARK    2  A    between atoms: C_3  and  O_72
REMARK    3  A    between atoms: C_22  and  O_70
REMARK    4  A    between atoms: C_23  and  C_69
REMARK    5  A    between atoms: C_29  and  O_68
REMARK    6  A    between atoms: C_34  and  C_35
REMARK    7  A    between atoms: C_35  and  C_36
REMARK    8  A    between atoms: C_36  and  C_37
REMARK    9  A    between atoms: C_36  and  O_66
REMARK   10  A    between atoms: C_37  and  C_38
REMARK   11  A    between atoms: C_37  and  C_39
REMARK   12  A    between atoms: C_39  and  C_40
REMARK   13  A    between atoms: C_40  and  C_41
REMARK   14  A    between atoms: C_41  and  C_42
REMARK   15  A    between atoms: C_41  and  O_57
REMARK   16  A    between atoms: C_42  and  C_43
REMARK   17  A    between atoms: C_42  and  C_44
REMARK   18  A    between atoms: C_44  and  C_45
REMARK   19  A    between atoms: C_44  and  O_53
REMARK   20  A    between atoms: C_45  and  C_46
REMARK   21  A    between atoms: C_45  and  C_47
REMARK   22  A    between atoms: C_48  and  N_49
REMARK   23  A    between atoms: N_49  and  C_50
REMARK   24  A    between atoms: O_53  and  C_54
REMARK   25  A    between atoms: C_54  and  C_56
REMARK   26  A    between atoms: O_57  and  C_58
REMARK   27  A    between atoms: C_58  and  C_60
REMARK   28  A    between atoms: C_60  and  C_61
REMARK   29  A    between atoms: C_60  and  O_64
REMARK   30  A    between atoms: C_61  and  O_62
REMARK   31  A    between atoms: O_62  and  C_63
REMARK   32  A    between atoms: O_64  and  C_65
REMARK   33  A    between atoms: O_66  and  C_67
REMARK   34  A    between atoms: O_70  and  C_71
REMARK   35  A    between atoms: O_72  and  C_73
REMARK                            x       y       z     vdW  Elec       q    Type
REMARK                         _______ _______ _______ _____ _____    ______ ____
ROOT
ATOM      1  C   UNL     1     -11.245   8.208  22.457  0.00  0.00    +0.011 C 
ATOM      2  H   UNL     1     -12.048   7.465  22.546  0.00  0.00    +0.033 HD
ATOM      3  H   UNL     1     -10.651   7.879  21.597  0.00  0.00    +0.033 HD
ENDROOT
BRANCH   1  36
ATOM      4  C   UNL     1     -13.395   9.618  22.095  0.00  0.00    +0.020 C 
ATOM      5  C   UNL     1     -14.006   9.521  20.665  0.00  0.00    +0.068 C 
ATOM      6  C   UNL     1     -13.593   8.308  19.785  0.00  0.00    -0.008 C 
ATOM      7  C   UNL     1     -12.226   8.401  19.165  0.00  0.00    -0.077 C 
ATOM      8  C   UNL     1     -11.503   7.368  18.703  0.00  0.00    -0.003 C 
ATOM      9  C   UNL     1     -10.203   7.599  18.170  0.00  0.00    +0.220 A 
ATOM     10  N   UNL     1      -9.481   8.695  18.352  0.00  0.00    -0.205 NA
ATOM     11  C   UNL     1      -8.316   8.494  17.660  0.00  0.00    +0.164 A 
ATOM     12  C   UNL     1      -8.339   7.256  17.080  0.00  0.00    +0.125 A 
ATOM     13  O   UNL     1      -9.521   6.663  17.410  0.00  0.00    -0.443 OA
ATOM     14  C   UNL     1      -7.168   9.543  17.566  0.00  0.00    +0.250 A 
ATOM     15  N   UNL     1      -7.218  10.704  18.189  0.00  0.00    -0.203 NA
ATOM     16  C   UNL     1      -6.047  11.331  17.847  0.00  0.00    +0.164 A 
ATOM     17  C   UNL     1      -5.315  10.523  17.018  0.00  0.00    +0.125 A 
ATOM     18  O   UNL     1      -6.015   9.367  16.832  0.00  0.00    -0.442 OA
ATOM     19  C   UNL     1      -5.624  12.752  18.333  0.00  0.00    +0.249 A 
ATOM     20  N   UNL     1      -6.362  13.485  19.152  0.00  0.00    -0.210 NA
ATOM     21  C   UNL     1      -5.632  14.635  19.356  0.00  0.00    +0.109 A 
ATOM     22  C   UNL     1      -4.466  14.557  18.629  0.00  0.00    +0.118 A 
ATOM     23  O   UNL     1      -4.447  13.366  17.969  0.00  0.00    -0.442 OA
ATOM     24  C   UNL     1      -6.103  15.703  20.298  0.00  0.00    +0.113 C 
ATOM     25  C   UNL     1      -6.460  15.103  21.676  0.00  0.00    +0.051 C 
ATOM     26  C   UNL     1      -6.866  16.229  22.617  0.00  0.00    +0.161 C 
ATOM     27  O   UNL     1      -6.213  17.268  22.712  0.00  0.00    -0.292 OA
ATOM     28  C   UNL     1      -8.055  16.067  23.506  0.00  0.00    -0.023 C 
ATOM     29  C   UNL     1      -8.559  14.886  23.902  0.00  0.00    -0.078 C 
ATOM     30  C   UNL     1      -9.734  14.758  24.835  0.00  0.00    -0.008 C 
ATOM     31  C   UNL     1     -10.904  13.950  24.240  0.00  0.00    +0.069 C 
ATOM     32  C   UNL     1     -10.629  12.441  24.223  0.00  0.00    +0.071 C 
ATOM     33  C   UNL     1     -11.279  11.773  23.036  0.00  0.00    +0.310 C 
ATOM     34  O   UNL     1     -11.552  12.326  21.982  0.00  0.00    -0.251 OA
ATOM     35  O   UNL     1     -11.432  10.441  23.289  0.00  0.00    -0.461 OA
ATOM     36  C   UNL     1     -11.837   9.602  22.173  0.00  0.00    +0.110 C 
ATOM     37  H   UNL     1     -13.707  10.590  22.498  0.00  0.00    +0.036 HD
ATOM     38  H   UNL     1     -15.096   9.443  20.780  0.00  0.00    +0.060 HD
ATOM     39  H   UNL     1     -13.710   7.375  20.345  0.00  0.00    +0.033 HD
ATOM     40  H   UNL     1     -14.303   8.271  18.947  0.00  0.00    +0.033 HD
ATOM     41  H   UNL     1     -11.820   9.411  19.063  0.00  0.00    +0.057 HD
ATOM     42  H   UNL     1     -11.879   6.352  18.722  0.00  0.00    +0.067 HD
ATOM     43  H   UNL     1      -7.662   6.683  16.464  0.00  0.00    +0.105 HD
ATOM     44  H   UNL     1      -4.365  10.604  16.517  0.00  0.00    +0.105 HD
ATOM     45  H   UNL     1      -3.604  15.195  18.490  0.00  0.00    +0.105 HD
ATOM     46  H   UNL     1      -5.315  16.459  20.421  0.00  0.00    +0.067 HD
ATOM     47  H   UNL     1      -7.307  14.420  21.549  0.00  0.00    +0.041 HD
ATOM     48  H   UNL     1      -8.465  17.007  23.865  0.00  0.00    +0.065 HD
ATOM     49  H   UNL     1      -8.107  13.953  23.573  0.00  0.00    +0.057 HD
ATOM     50  H   UNL     1      -9.401  14.288  25.768  0.00  0.00    +0.033 HD
ATOM     51  H   UNL     1     -10.096  15.753  25.123  0.00  0.00    +0.033 HD
ATOM     52  H   UNL     1     -11.140  14.339  23.243  0.00  0.00    +0.060 HD
ATOM     53  H   UNL     1     -11.010  11.979  25.140  0.00  0.00    +0.040 HD
ATOM     54  H   UNL     1      -9.559  12.222  24.140  0.00  0.00    +0.040 HD
ATOM     55  H   UNL     1     -11.393  10.007  21.259  0.00  0.00    +0.074 HD
BRANCH   4  56
ATOM     56  C   UNL     1     -14.064   8.601  23.033  0.00  0.00    -0.057 C 
ATOM     57  H   UNL     1     -13.401   8.274  23.840  0.00  0.00    +0.023 HD
ATOM     58  H   UNL     1     -14.972   9.018  23.479  0.00  0.00    +0.023 HD
ATOM     59  H   UNL     1     -14.361   7.704  22.475  0.00  0.00    +0.023 HD
ENDBRANCH   4  56
BRANCH  25  60
ATOM     60  C   UNL     1      -5.288  14.360  22.325  0.00  0.00    -0.053 C 
ATOM     61  H   UNL     1      -4.589  15.054  22.803  0.00  0.00    +0.024 HD
ATOM     62  H   UNL     1      -4.726  13.790  21.579  0.00  0.00    +0.024 HD
ATOM     63  H   UNL     1      -5.636  13.665  23.095  0.00  0.00    +0.024 HD
ENDBRANCH  25  60
BRANCH  31  64
ATOM     64  O   UNL     1     -12.060  14.167  25.061  0.00  0.00    -0.391 OA
ATOM     65  H   UNL     1     -11.795  14.761  25.789  0.00  0.00    +0.210 HD
ENDBRANCH  31  64
BRANCH  24  66
ATOM     66  O   UNL     1      -7.292  16.348  19.799  0.00  0.00    -0.373 OA
BRANCH  66  67
ATOM     67  C   UNL     1      -7.015  17.370  18.850  0.00  0.00    +0.037 C 
ATOM     68  H   UNL     1      -7.892  17.586  18.237  0.00  0.00    +0.052 HD
ATOM     69  H   UNL     1      -6.168  17.083  18.218  0.00  0.00    +0.052 HD
ATOM     70  H   UNL     1      -6.743  18.277  19.395  0.00  0.00    +0.052 HD
ENDBRANCH  66  67
ENDBRANCH  24  66
BRANCH   5  71
ATOM     71  O   UNL     1     -13.747  10.704  19.891  0.00  0.00    -0.379 OA
BRANCH  71  72
ATOM     72  C   UNL     1     -14.711  11.736  20.036  0.00  0.00    +0.037 C 
ATOM     73  H   UNL     1     -14.360  12.612  19.480  0.00  0.00    +0.052 HD
ATOM     74  H   UNL     1     -15.676  11.430  19.621  0.00  0.00    +0.052 HD
ATOM     75  H   UNL     1     -14.829  12.030  21.080  0.00  0.00    +0.052 HD
ENDBRANCH  71  72
ENDBRANCH   5  71
ENDBRANCH   1  36
BRANCH   1  76
ATOM     76  C   UNL     1     -10.341   8.090  23.704  0.00  0.00    +0.064 C 
ATOM     77  H   UNL     1     -10.505   8.969  24.339  0.00  0.00    +0.060 HD
BRANCH  76  78
ATOM     78  C   UNL     1     -10.526   6.828  24.597  0.00  0.00    -0.017 C 
ATOM     79  H   UNL     1     -10.823   5.988  23.962  0.00  0.00    +0.032 HD
BRANCH  78  80
ATOM     80  C   UNL     1      -9.241   6.454  25.353  0.00  0.00    -0.060 C 
ATOM     81  H   UNL     1      -8.662   7.346  25.608  0.00  0.00    +0.023 HD
ATOM     82  H   UNL     1      -8.603   5.798  24.752  0.00  0.00    +0.023 HD
ATOM     83  H   UNL     1      -9.450   5.943  26.296  0.00  0.00    +0.023 HD
ENDBRANCH  78  80
BRANCH  78  84
ATOM     84  C   UNL     1     -11.682   7.097  25.596  0.00  0.00    -0.045 C 
ATOM     85  H   UNL     1     -12.613   7.095  25.029  0.00  0.00    +0.027 HD
ATOM     86  H   UNL     1     -11.739   6.267  26.311  0.00  0.00    +0.027 HD
BRANCH  84  87
ATOM     87  C   UNL     1     -11.587   8.411  26.373  0.00  0.00    -0.015 C 
ATOM     88  H   UNL     1     -12.583   8.816  26.582  0.00  0.00    +0.030 HD
ATOM     89  H   UNL     1     -11.105   9.167  25.737  0.00  0.00    +0.030 HD
BRANCH  87  90
ATOM     90  C   UNL     1     -10.795   8.309  27.692  0.00  0.00    +0.109 C 
ATOM     91  H   UNL     1      -9.952   7.628  27.521  0.00  0.00    +0.074 HD
BRANCH  90  92
ATOM     92  C   UNL     1     -11.567   7.843  28.974  0.00  0.00    +0.031 C 
ATOM     93  H   UNL     1     -12.515   7.432  28.601  0.00  0.00    +0.037 HD
BRANCH  92  94
ATOM     94  C   UNL     1     -11.940   9.042  29.855  0.00  0.00    -0.056 C 
ATOM     95  H   UNL     1     -11.499   9.978  29.511  0.00  0.00    +0.023 HD
ATOM     96  H   UNL     1     -13.025   9.179  29.902  0.00  0.00    +0.023 HD
ATOM     97  H   UNL     1     -11.609   8.884  30.885  0.00  0.00    +0.023 HD
ENDBRANCH  92  94
BRANCH  92  98
ATOM     98  C   UNL     1     -10.853   6.686  29.742  0.00  0.00    +0.115 C 
ATOM     99  H   UNL     1     -10.743   6.989  30.789  0.00  0.00    +0.074 HD
BRANCH  98 100
ATOM    100  C   UNL     1     -11.523   5.279  29.716  0.00  0.00    +0.013 C 
ATOM    101  H   UNL     1     -12.609   5.439  29.643  0.00  0.00    +0.038 HD
BRANCH 100 102
ATOM    102  C   UNL     1     -11.353   4.490  31.019  0.00  0.00    -0.056 C 
ATOM    103  H   UNL     1     -10.679   3.635  30.905  0.00  0.00    +0.024 HD
ATOM    104  H   UNL     1     -10.956   5.131  31.811  0.00  0.00    +0.024 HD
ATOM    105  H   UNL     1     -12.318   4.100  31.362  0.00  0.00    +0.024 HD
ENDBRANCH 100 102
BRANCH 100 106
ATOM    106  C   UNL     1     -11.127   4.454  28.508  0.00  0.00    -0.064 C 
ATOM    107  C   UNL     1     -10.878   3.140  28.604  0.00  0.00    -0.005 C 
ATOM    108  H   UNL     1     -11.052   4.981  27.564  0.00  0.00    +0.059 HD
ATOM    109  H   UNL     1     -10.968   2.664  29.585  0.00  0.00    +0.078 HD
BRANCH 107 110
ATOM    110  N   UNL     1     -10.521   2.267  27.587  0.00  0.00    -0.284 N 
ATOM    111  C   UNL     1     -10.178   2.641  26.295  0.00  0.00    +0.206 C 
ATOM    112  O   UNL     1      -9.862   1.884  25.379  0.00  0.00    -0.279 OA
ATOM    113  H   UNL     1     -10.218   3.724  26.118  0.00  0.00    +0.126 HD
BRANCH 110 114
ATOM    114  C   UNL     1     -10.536   0.841  27.901  0.00  0.00    +0.007 C 
ATOM    115  H   UNL     1     -10.974   0.250  27.093  0.00  0.00    +0.043 HD
ATOM    116  H   UNL     1      -9.513   0.494  28.071  0.00  0.00    +0.043 HD
ATOM    117  H   UNL     1     -11.128   0.691  28.808  0.00  0.00    +0.043 HD
ENDBRANCH 110 114
ENDBRANCH 107 110
ENDBRANCH 100 106
ENDBRANCH  98 100
BRANCH  98 118
ATOM    118  O   UNL     1      -9.524   6.543  29.166  0.00  0.00    -0.461 OA
BRANCH 118 119
ATOM    119  C   UNL     1      -8.472   6.545  30.031  0.00  0.00    +0.304 C 
ATOM    120  O   UNL     1      -7.599   5.693  30.088  0.00  0.00    -0.251 OA
BRANCH 119 121
ATOM    121  C   UNL     1      -8.536   7.758  30.909  0.00  0.00    +0.033 C 
ATOM    122  H   UNL     1      -9.539   7.857  31.328  0.00  0.00    +0.034 HD
ATOM    123  H   UNL     1      -8.321   8.648  30.310  0.00  0.00    +0.034 HD
ATOM    124  H   UNL     1      -7.790   7.683  31.704  0.00  0.00    +0.034 HD
ENDBRANCH 119 121
ENDBRANCH 118 119
ENDBRANCH  98 118
ENDBRANCH  92  98
ENDBRANCH  90  92
BRANCH  90 125
ATOM    125  O   UNL     1     -10.303   9.644  27.980  0.00  0.00    -0.459 OA
BRANCH 125 126
ATOM    126  C   UNL     1      -8.952   9.854  27.894  0.00  0.00    +0.339 C 
ATOM    127  O   UNL     1      -8.166   9.133  27.291  0.00  0.00    -0.248 OA
BRANCH 126 128
ATOM    128  C   UNL     1      -8.596  11.162  28.629  0.00  0.00    +0.178 C 
ATOM    129  H   UNL     1      -7.906  11.725  27.984  0.00  0.00    +0.074 HD
BRANCH 128 130
ATOM    130  C   UNL     1      -9.877  11.996  28.807  0.00  0.00    +0.084 C 
ATOM    131  H   UNL     1      -9.956  12.381  29.830  0.00  0.00    +0.059 HD
ATOM    132  H   UNL     1     -10.749  11.363  28.606  0.00  0.00    +0.059 HD
BRANCH 130 133
ATOM    133  O   UNL     1      -9.891  13.107  27.902  0.00  0.00    -0.380 OA
BRANCH 133 134
ATOM    134  C   UNL     1     -10.533  14.242  28.464  0.00  0.00    +0.037 C 
ATOM    135  H   UNL     1     -10.700  14.094  29.535  0.00  0.00    +0.052 HD
ATOM    136  H   UNL     1      -9.938  15.145  28.296  0.00  0.00    +0.052 HD
ATOM    137  H   UNL     1     -11.504  14.365  27.973  0.00  0.00    +0.052 HD
ENDBRANCH 133 134
ENDBRANCH 130 133
ENDBRANCH 128 130
BRANCH 128 138
ATOM    138  O   UNL     1      -7.988  11.044  29.919  0.00  0.00    -0.366 OA
BRANCH 138 139
ATOM    139  C   UNL     1      -8.780  11.579  30.968  0.00  0.00    +0.038 C 
ATOM    140  H   UNL     1      -8.292  11.439  31.939  0.00  0.00    +0.052 HD
ATOM    141  H   UNL     1      -9.775  11.126  30.975  0.00  0.00    +0.052 HD
ATOM    142  H   UNL     1      -8.898  12.652  30.793  0.00  0.00    +0.052 HD
ENDBRANCH 138 139
ENDBRANCH 128 138
ENDBRANCH 126 128
ENDBRANCH 125 126
ENDBRANCH  90 125
ENDBRANCH  87  90
ENDBRANCH  84  87
ENDBRANCH  78  84
ENDBRANCH  76  78
BRANCH  76 143
ATOM    143  O   UNL     1      -8.974   8.079  23.239  0.00  0.00    -0.379 OA
BRANCH 143 144
ATOM    144  C   UNL     1      -8.852   8.108  21.823  0.00  0.00    +0.037 C 
ATOM    145  H   UNL     1      -7.801   7.942  21.567  0.00  0.00    +0.052 HD
ATOM    146  H   UNL     1      -9.451   7.316  21.365  0.00  0.00    +0.052 HD
ATOM    147  H   UNL     1      -9.151   9.088  21.434  0.00  0.00    +0.052 HD
ENDBRANCH 143 144
ENDBRANCH  76 143
ENDBRANCH   1  76
TORSDOF 35
ENDMDL
