MODEL 1
REMARK VINA RESULT:      -5.4      0.000      0.000
REMARK  Name = Mycalolide B_conf3
REMARK  35 active torsions:
REMARK  status: ('A' for Active; 'I' for Inactive)
REMARK    1  A    between atoms: C_1  and  C_2
REMARK    2  A    between atoms: C_3  and  O_72
REMARK    3  A    between atoms: C_22  and  O_70
REMARK    4  A    between atoms: C_23  and  C_69
REMARK    5  A    between atoms: C_29  and  O_68
REMARK    6  A    between atoms: C_34  and  C_35
REMARK    7  A    between atoms: C_35  and  C_36
REMARK    8  A    between atoms: C_36  and  C_37
REMARK    9  A    between atoms: C_36  and  O_66
REMARK   10  A    between atoms: C_37  and  C_38
REMARK   11  A    between atoms: C_37  and  C_39
REMARK   12  A    between atoms: C_39  and  C_40
REMARK   13  A    between atoms: C_40  and  C_41
REMARK   14  A    between atoms: C_41  and  C_42
REMARK   15  A    between atoms: C_41  and  O_57
REMARK   16  A    between atoms: C_42  and  C_43
REMARK   17  A    between atoms: C_42  and  C_44
REMARK   18  A    between atoms: C_44  and  C_45
REMARK   19  A    between atoms: C_44  and  O_53
REMARK   20  A    between atoms: C_45  and  C_46
REMARK   21  A    between atoms: C_45  and  C_47
REMARK   22  A    between atoms: C_48  and  N_49
REMARK   23  A    between atoms: N_49  and  C_50
REMARK   24  A    between atoms: O_53  and  C_54
REMARK   25  A    between atoms: C_54  and  C_56
REMARK   26  A    between atoms: O_57  and  C_58
REMARK   27  A    between atoms: C_58  and  C_60
REMARK   28  A    between atoms: C_60  and  C_61
REMARK   29  A    between atoms: C_60  and  O_64
REMARK   30  A    between atoms: C_61  and  O_62
REMARK   31  A    between atoms: O_62  and  C_63
REMARK   32  A    between atoms: O_64  and  C_65
REMARK   33  A    between atoms: O_66  and  C_67
REMARK   34  A    between atoms: O_70  and  C_71
REMARK   35  A    between atoms: O_72  and  C_73
REMARK                            x       y       z     vdW  Elec       q    Type
REMARK                         _______ _______ _______ _____ _____    ______ ____
ROOT
ATOM      1  C   UNL     1      -7.369  15.402  25.133  0.00  0.00    +0.011 C 
ATOM      2  H   UNL     1      -7.009  16.220  25.766  0.00  0.00    +0.033 HD
ATOM      3  H   UNL     1      -6.716  14.537  25.296  0.00  0.00    +0.033 HD
ENDROOT
BRANCH   1  36
ATOM      4  C   UNL     1      -6.931  17.326  23.445  0.00  0.00    +0.020 C 
ATOM      5  C   UNL     1      -8.060  18.310  23.864  0.00  0.00    +0.068 C 
ATOM      6  C   UNL     1      -9.455  18.015  23.254  0.00  0.00    -0.008 C 
ATOM      7  C   UNL     1      -9.484  17.594  21.810  0.00  0.00    -0.077 C 
ATOM      8  C   UNL     1      -9.066  18.328  20.767  0.00  0.00    -0.003 C 
ATOM      9  C   UNL     1      -9.140  17.789  19.452  0.00  0.00    +0.220 A 
ATOM     10  N   UNL     1      -9.154  16.497  19.138  0.00  0.00    -0.205 NA
ATOM     11  C   UNL     1      -9.383  16.454  17.787  0.00  0.00    +0.164 A 
ATOM     12  C   UNL     1      -9.449  17.724  17.287  0.00  0.00    +0.125 A 
ATOM     13  O   UNL     1      -9.253  18.589  18.320  0.00  0.00    -0.443 OA
ATOM     14  C   UNL     1      -9.579  15.138  16.983  0.00  0.00    +0.250 A 
ATOM     15  N   UNL     1      -9.399  13.939  17.516  0.00  0.00    -0.203 NA
ATOM     16  C   UNL     1      -9.772  13.069  16.522  0.00  0.00    +0.164 A 
ATOM     17  C   UNL     1     -10.122  13.769  15.399  0.00  0.00    +0.125 A 
ATOM     18  O   UNL     1      -9.981  15.098  15.668  0.00  0.00    -0.442 OA
ATOM     19  C   UNL     1      -9.774  11.518  16.655  0.00  0.00    +0.249 A 
ATOM     20  N   UNL     1      -9.305  10.879  17.713  0.00  0.00    -0.210 NA
ATOM     21  C   UNL     1      -9.414   9.542  17.396  0.00  0.00    +0.109 A 
ATOM     22  C   UNL     1     -10.028   9.425  16.175  0.00  0.00    +0.118 A 
ATOM     23  O   UNL     1     -10.223  10.673  15.665  0.00  0.00    -0.442 OA
ATOM     24  C   UNL     1      -8.904   8.473  18.319  0.00  0.00    +0.113 C 
ATOM     25  C   UNL     1      -7.438   8.066  18.064  0.00  0.00    +0.051 C 
ATOM     26  C   UNL     1      -6.475   8.941  18.847  0.00  0.00    +0.161 C 
ATOM     27  O   UNL     1      -5.880   8.486  19.827  0.00  0.00    -0.292 OA
ATOM     28  C   UNL     1      -6.283  10.363  18.442  0.00  0.00    -0.023 C 
ATOM     29  C   UNL     1      -5.577  11.204  19.215  0.00  0.00    -0.078 C 
ATOM     30  C   UNL     1      -5.461  12.678  18.943  0.00  0.00    -0.008 C 
ATOM     31  C   UNL     1      -6.221  13.523  19.978  0.00  0.00    +0.069 C 
ATOM     32  C   UNL     1      -5.552  13.511  21.351  0.00  0.00    +0.071 C 
ATOM     33  C   UNL     1      -6.576  13.927  22.368  0.00  0.00    +0.310 C 
ATOM     34  O   UNL     1      -7.603  13.294  22.571  0.00  0.00    -0.251 OA
ATOM     35  O   UNL     1      -6.225  15.086  22.978  0.00  0.00    -0.461 OA
ATOM     36  C   UNL     1      -7.279  15.826  23.651  0.00  0.00    +0.110 C 
ATOM     37  H   UNL     1      -6.732  17.478  22.372  0.00  0.00    +0.036 HD
ATOM     38  H   UNL     1      -8.156  18.285  24.957  0.00  0.00    +0.060 HD
ATOM     39  H   UNL     1      -9.918  17.214  23.837  0.00  0.00    +0.033 HD
ATOM     40  H   UNL     1     -10.116  18.882  23.366  0.00  0.00    +0.033 HD
ATOM     41  H   UNL     1      -9.877  16.590  21.627  0.00  0.00    +0.057 HD
ATOM     42  H   UNL     1      -8.691  19.335  20.894  0.00  0.00    +0.067 HD
ATOM     43  H   UNL     1      -9.601  18.163  16.313  0.00  0.00    +0.105 HD
ATOM     44  H   UNL     1     -10.470  13.506  14.407  0.00  0.00    +0.105 HD
ATOM     45  H   UNL     1     -10.320   8.589  15.552  0.00  0.00    +0.105 HD
ATOM     46  H   UNL     1      -9.000   8.872  19.338  0.00  0.00    +0.067 HD
ATOM     47  H   UNL     1      -7.302   7.059  18.486  0.00  0.00    +0.041 HD
ATOM     48  H   UNL     1      -6.786  10.712  17.549  0.00  0.00    +0.065 HD
ATOM     49  H   UNL     1      -5.085  10.823  20.108  0.00  0.00    +0.057 HD
ATOM     50  H   UNL     1      -4.403  12.965  18.923  0.00  0.00    +0.033 HD
ATOM     51  H   UNL     1      -5.847  12.913  17.942  0.00  0.00    +0.033 HD
ATOM     52  H   UNL     1      -7.259  13.172  20.037  0.00  0.00    +0.060 HD
ATOM     53  H   UNL     1      -5.208  12.515  21.656  0.00  0.00    +0.040 HD
ATOM     54  H   UNL     1      -4.688  14.188  21.386  0.00  0.00    +0.040 HD
ATOM     55  H   UNL     1      -8.212  15.628  23.122  0.00  0.00    +0.074 HD
BRANCH   4  56
ATOM     56  C   UNL     1      -5.602  17.694  24.132  0.00  0.00    -0.057 C 
ATOM     57  H   UNL     1      -5.694  17.640  25.220  0.00  0.00    +0.023 HD
ATOM     58  H   UNL     1      -5.287  18.705  23.869  0.00  0.00    +0.023 HD
ATOM     59  H   UNL     1      -4.802  17.005  23.844  0.00  0.00    +0.023 HD
ENDBRANCH   4  56
BRANCH  25  60
ATOM     60  C   UNL     1      -7.032   7.925  16.597  0.00  0.00    -0.053 C 
ATOM     61  H   UNL     1      -6.318   8.691  16.279  0.00  0.00    +0.024 HD
ATOM     62  H   UNL     1      -7.911   7.976  15.945  0.00  0.00    +0.024 HD
ATOM     63  H   UNL     1      -6.549   6.953  16.435  0.00  0.00    +0.024 HD
ENDBRANCH  25  60
BRANCH  31  64
ATOM     64  O   UNL     1      -6.255  14.878  19.517  0.00  0.00    -0.391 OA
ATOM     65  H   UNL     1      -6.661  15.410  20.233  0.00  0.00    +0.210 HD
ENDBRANCH  31  64
BRANCH  24  66
ATOM     66  O   UNL     1      -9.735   7.300  18.202  0.00  0.00    -0.373 OA
BRANCH  66  67
ATOM     67  C   UNL     1     -10.665   7.194  19.275  0.00  0.00    +0.037 C 
ATOM     68  H   UNL     1     -10.972   6.154  19.426  0.00  0.00    +0.052 HD
ATOM     69  H   UNL     1     -10.231   7.594  20.198  0.00  0.00    +0.052 HD
ATOM     70  H   UNL     1     -11.549   7.785  19.022  0.00  0.00    +0.052 HD
ENDBRANCH  66  67
ENDBRANCH  24  66
BRANCH   5  71
ATOM     71  O   UNL     1      -7.653  19.641  23.481  0.00  0.00    -0.379 OA
BRANCH  71  72
ATOM     72  C   UNL     1      -8.032  20.628  24.432  0.00  0.00    +0.037 C 
ATOM     73  H   UNL     1      -8.828  21.272  24.048  0.00  0.00    +0.052 HD
ATOM     74  H   UNL     1      -7.155  21.248  24.645  0.00  0.00    +0.052 HD
ATOM     75  H   UNL     1      -8.353  20.152  25.364  0.00  0.00    +0.052 HD
ENDBRANCH  71  72
ENDBRANCH   5  71
ENDBRANCH   1  36
BRANCH   1  76
ATOM     76  C   UNL     1      -8.795  15.071  25.601  0.00  0.00    +0.064 C 
ATOM     77  H   UNL     1      -9.509  15.290  24.801  0.00  0.00    +0.060 HD
BRANCH  76  78
ATOM     78  C   UNL     1      -8.966  13.590  26.042  0.00  0.00    -0.017 C 
ATOM     79  H   UNL     1      -7.967  13.184  26.210  0.00  0.00    +0.032 HD
BRANCH  78  80
ATOM     80  C   UNL     1      -9.698  13.561  27.405  0.00  0.00    -0.060 C 
ATOM     81  H   UNL     1     -10.730  13.917  27.302  0.00  0.00    +0.023 HD
ATOM     82  H   UNL     1      -9.753  12.547  27.809  0.00  0.00    +0.023 HD
ATOM     83  H   UNL     1      -9.191  14.200  28.135  0.00  0.00    +0.023 HD
ENDBRANCH  78  80
BRANCH  78  84
ATOM     84  C   UNL     1      -9.752  12.668  25.096  0.00  0.00    -0.045 C 
ATOM     85  H   UNL     1     -10.333  13.297  24.403  0.00  0.00    +0.027 HD
ATOM     86  H   UNL     1      -9.041  12.125  24.451  0.00  0.00    +0.027 HD
BRANCH  84  87
ATOM     87  C   UNL     1     -10.762  11.655  25.661  0.00  0.00    -0.015 C 
ATOM     88  H   UNL     1     -11.123  12.131  26.580  0.00  0.00    +0.030 HD
ATOM     89  H   UNL     1     -11.641  11.598  25.008  0.00  0.00    +0.030 HD
BRANCH  87  90
ATOM     90  C   UNL     1     -10.307  10.219  26.014  0.00  0.00    +0.109 C 
ATOM     91  H   UNL     1      -9.275  10.112  25.657  0.00  0.00    +0.074 HD
BRANCH  90  92
ATOM     92  C   UNL     1     -11.227   9.145  25.327  0.00  0.00    +0.031 C 
ATOM     93  H   UNL     1     -11.893   9.679  24.638  0.00  0.00    +0.037 HD
BRANCH  92  94
ATOM     94  C   UNL     1     -12.192   8.482  26.329  0.00  0.00    -0.056 C 
ATOM     95  H   UNL     1     -13.068   9.106  26.512  0.00  0.00    +0.023 HD
ATOM     96  H   UNL     1     -11.698   8.271  27.281  0.00  0.00    +0.023 HD
ATOM     97  H   UNL     1     -12.574   7.533  25.931  0.00  0.00    +0.023 HD
ENDBRANCH  92  94
BRANCH  92  98
ATOM     98  C   UNL     1     -10.492   8.000  24.557  0.00  0.00    +0.115 C 
ATOM     99  H   UNL     1     -10.984   7.047  24.804  0.00  0.00    +0.074 HD
BRANCH  98 100
ATOM    100  C   UNL     1     -10.554   8.080  23.002  0.00  0.00    +0.013 C 
ATOM    101  H   UNL     1     -10.992   7.164  22.600  0.00  0.00    +0.038 HD
BRANCH 100 102
ATOM    102  C   UNL     1      -9.162   8.264  22.380  0.00  0.00    -0.056 C 
ATOM    103  H   UNL     1      -9.049   9.262  21.933  0.00  0.00    +0.024 HD
ATOM    104  H   UNL     1      -8.368   8.146  23.133  0.00  0.00    +0.024 HD
ATOM    105  H   UNL     1      -8.981   7.536  21.585  0.00  0.00    +0.024 HD
ENDBRANCH 100 102
BRANCH 100 106
ATOM    106  C   UNL     1     -11.424   9.243  22.551  0.00  0.00    -0.064 C 
ATOM    107  C   UNL     1     -11.104  10.050  21.529  0.00  0.00    -0.005 C 
ATOM    108  H   UNL     1     -12.334   9.403  23.124  0.00  0.00    +0.059 HD
ATOM    109  H   UNL     1     -10.165   9.871  21.007  0.00  0.00    +0.078 HD
BRANCH 107 110
ATOM    110  N   UNL     1     -11.825  11.133  21.053  0.00  0.00    -0.284 N 
ATOM    111  C   UNL     1     -11.276  12.337  20.609  0.00  0.00    +0.206 C 
ATOM    112  O   UNL     1     -10.097  12.669  20.544  0.00  0.00    -0.279 OA
ATOM    113  H   UNL     1     -12.053  13.051  20.289  0.00  0.00    +0.126 HD
BRANCH 110 114
ATOM    114  C   UNL     1     -13.279  10.992  21.023  0.00  0.00    +0.007 C 
ATOM    115  H   UNL     1     -13.735  11.962  21.253  0.00  0.00    +0.043 HD
ATOM    116  H   UNL     1     -13.633  10.261  21.757  0.00  0.00    +0.043 HD
ATOM    117  H   UNL     1     -13.590  10.667  20.025  0.00  0.00    +0.043 HD
ENDBRANCH 110 114
ENDBRANCH 107 110
ENDBRANCH 100 106
ENDBRANCH  98 100
BRANCH  98 118
ATOM    118  O   UNL     1      -9.103   7.949  24.959  0.00  0.00    -0.461 OA
BRANCH 118 119
ATOM    119  C   UNL     1      -8.762   6.951  25.825  0.00  0.00    +0.304 C 
ATOM    120  O   UNL     1      -7.845   6.984  26.633  0.00  0.00    -0.251 OA
BRANCH 119 121
ATOM    121  C   UNL     1      -9.654   5.762  25.630  0.00  0.00    +0.033 C 
ATOM    122  H   UNL     1      -9.345   5.222  24.733  0.00  0.00    +0.034 HD
ATOM    123  H   UNL     1     -10.695   6.087  25.550  0.00  0.00    +0.034 HD
ATOM    124  H   UNL     1      -9.576   5.104  26.499  0.00  0.00    +0.034 HD
ENDBRANCH 119 121
ENDBRANCH 118 119
ENDBRANCH  98 118
ENDBRANCH  92  98
ENDBRANCH  90  92
BRANCH  90 125
ATOM    125  O   UNL     1     -10.327  10.056  27.456  0.00  0.00    -0.459 OA
BRANCH 125 126
ATOM    126  C   UNL     1      -9.104  10.022  28.082  0.00  0.00    +0.339 C 
ATOM    127  O   UNL     1      -8.035  10.182  27.505  0.00  0.00    -0.248 OA
BRANCH 126 128
ATOM    128  C   UNL     1      -9.209   9.681  29.578  0.00  0.00    +0.178 C 
ATOM    129  H   UNL     1     -10.099  10.209  29.956  0.00  0.00    +0.074 HD
BRANCH 128 130
ATOM    130  C   UNL     1      -9.436   8.176  29.739  0.00  0.00    +0.084 C 
ATOM    131  H   UNL     1     -10.460   7.985  30.067  0.00  0.00    +0.059 HD
ATOM    132  H   UNL     1      -9.323   7.685  28.765  0.00  0.00    +0.059 HD
BRANCH 130 133
ATOM    133  O   UNL     1      -8.508   7.607  30.660  0.00  0.00    -0.380 OA
BRANCH 133 134
ATOM    134  C   UNL     1      -8.166   6.275  30.303  0.00  0.00    +0.037 C 
ATOM    135  H   UNL     1      -7.978   6.212  29.226  0.00  0.00    +0.052 HD
ATOM    136  H   UNL     1      -7.251   5.999  30.833  0.00  0.00    +0.052 HD
ATOM    137  H   UNL     1      -8.961   5.576  30.582  0.00  0.00    +0.052 HD
ENDBRANCH 133 134
ENDBRANCH 130 133
ENDBRANCH 128 130
BRANCH 128 138
ATOM    138  O   UNL     1      -8.075  10.036  30.375  0.00  0.00    -0.366 OA
BRANCH 138 139
ATOM    139  C   UNL     1      -8.239  11.292  31.017  0.00  0.00    +0.038 C 
ATOM    140  H   UNL     1      -9.253  11.650  30.814  0.00  0.00    +0.052 HD
ATOM    141  H   UNL     1      -7.530  12.023  30.614  0.00  0.00    +0.052 HD
ATOM    142  H   UNL     1      -8.112  11.201  32.099  0.00  0.00    +0.052 HD
ENDBRANCH 138 139
ENDBRANCH 128 138
ENDBRANCH 126 128
ENDBRANCH 125 126
ENDBRANCH  90 125
ENDBRANCH  87  90
ENDBRANCH  84  87
ENDBRANCH  78  84
ENDBRANCH  76  78
BRANCH  76 143
ATOM    143  O   UNL     1      -9.055  15.867  26.772  0.00  0.00    -0.379 OA
BRANCH 143 144
ATOM    144  C   UNL     1      -8.077  16.870  27.017  0.00  0.00    +0.037 C 
ATOM    145  H   UNL     1      -7.204  16.391  27.474  0.00  0.00    +0.052 HD
ATOM    146  H   UNL     1      -8.444  17.645  27.698  0.00  0.00    +0.052 HD
ATOM    147  H   UNL     1      -7.752  17.321  26.077  0.00  0.00    +0.052 HD
ENDBRANCH 143 144
ENDBRANCH  76 143
ENDBRANCH   1  76
TORSDOF 35
ENDMDL
MODEL 2
REMARK VINA RESULT:      -5.2      9.654     15.136
REMARK  Name = Mycalolide B_conf3
REMARK  35 active torsions:
REMARK  status: ('A' for Active; 'I' for Inactive)
REMARK    1  A    between atoms: C_1  and  C_2
REMARK    2  A    between atoms: C_3  and  O_72
REMARK    3  A    between atoms: C_22  and  O_70
REMARK    4  A    between atoms: C_23  and  C_69
REMARK    5  A    between atoms: C_29  and  O_68
REMARK    6  A    between atoms: C_34  and  C_35
REMARK    7  A    between atoms: C_35  and  C_36
REMARK    8  A    between atoms: C_36  and  C_37
REMARK    9  A    between atoms: C_36  and  O_66
REMARK   10  A    between atoms: C_37  and  C_38
REMARK   11  A    between atoms: C_37  and  C_39
REMARK   12  A    between atoms: C_39  and  C_40
REMARK   13  A    between atoms: C_40  and  C_41
REMARK   14  A    between atoms: C_41  and  C_42
REMARK   15  A    between atoms: C_41  and  O_57
REMARK   16  A    between atoms: C_42  and  C_43
REMARK   17  A    between atoms: C_42  and  C_44
REMARK   18  A    between atoms: C_44  and  C_45
REMARK   19  A    between atoms: C_44  and  O_53
REMARK   20  A    between atoms: C_45  and  C_46
REMARK   21  A    between atoms: C_45  and  C_47
REMARK   22  A    between atoms: C_48  and  N_49
REMARK   23  A    between atoms: N_49  and  C_50
REMARK   24  A    between atoms: O_53  and  C_54
REMARK   25  A    between atoms: C_54  and  C_56
REMARK   26  A    between atoms: O_57  and  C_58
REMARK   27  A    between atoms: C_58  and  C_60
REMARK   28  A    between atoms: C_60  and  C_61
REMARK   29  A    between atoms: C_60  and  O_64
REMARK   30  A    between atoms: C_61  and  O_62
REMARK   31  A    between atoms: O_62  and  C_63
REMARK   32  A    between atoms: O_64  and  C_65
REMARK   33  A    between atoms: O_66  and  C_67
REMARK   34  A    between atoms: O_70  and  C_71
REMARK   35  A    between atoms: O_72  and  C_73
REMARK                            x       y       z     vdW  Elec       q    Type
REMARK                         _______ _______ _______ _____ _____    ______ ____
ROOT
ATOM      1  C   UNL     1       4.228  19.439  26.277  0.00  0.00    +0.011 C 
ATOM      2  H   UNL     1       4.924  19.226  27.095  0.00  0.00    +0.033 HD
ATOM      3  H   UNL     1       4.621  20.291  25.711  0.00  0.00    +0.033 HD
ENDROOT
BRANCH   1  36
ATOM      4  C   UNL     1       2.807  19.830  28.414  0.00  0.00    +0.020 C 
ATOM      5  C   UNL     1       2.920  18.423  29.070  0.00  0.00    +0.068 C 
ATOM      6  C   UNL     1       1.924  17.363  28.533  0.00  0.00    -0.008 C 
ATOM      7  C   UNL     1       0.518  17.829  28.269  0.00  0.00    -0.077 C 
ATOM      8  C   UNL     1      -0.332  18.320  29.184  0.00  0.00    -0.003 C 
ATOM      9  C   UNL     1      -1.632  18.739  28.782  0.00  0.00    +0.220 A 
ATOM     10  N   UNL     1      -1.984  19.128  27.560  0.00  0.00    -0.205 NA
ATOM     11  C   UNL     1      -3.344  19.291  27.607  0.00  0.00    +0.164 A 
ATOM     12  C   UNL     1      -3.795  19.053  28.875  0.00  0.00    +0.125 A 
ATOM     13  O   UNL     1      -2.719  18.743  29.649  0.00  0.00    -0.443 OA
ATOM     14  C   UNL     1      -4.217  19.650  26.373  0.00  0.00    +0.250 A 
ATOM     15  N   UNL     1      -3.699  19.968  25.197  0.00  0.00    -0.203 NA
ATOM     16  C   UNL     1      -4.789  20.104  24.374  0.00  0.00    +0.164 A 
ATOM     17  C   UNL     1      -5.939  19.910  25.089  0.00  0.00    +0.125 A 
ATOM     18  O   UNL     1      -5.593  19.641  26.381  0.00  0.00    -0.442 OA
ATOM     19  C   UNL     1      -4.719  20.447  22.856  0.00  0.00    +0.249 A 
ATOM     20  N   UNL     1      -3.594  20.754  22.233  0.00  0.00    -0.210 NA
ATOM     21  C   UNL     1      -3.977  21.068  20.946  0.00  0.00    +0.109 A 
ATOM     22  C   UNL     1      -5.327  20.854  20.822  0.00  0.00    +0.118 A 
ATOM     23  O   UNL     1      -5.826  20.505  22.041  0.00  0.00    -0.442 OA
ATOM     24  C   UNL     1      -2.986  21.555  19.929  0.00  0.00    +0.113 C 
ATOM     25  C   UNL     1      -2.823  23.089  19.893  0.00  0.00    +0.051 C 
ATOM     26  C   UNL     1      -1.765  23.559  20.876  0.00  0.00    +0.161 C 
ATOM     27  O   UNL     1      -0.673  23.960  20.466  0.00  0.00    -0.292 OA
ATOM     28  C   UNL     1      -2.047  23.497  22.339  0.00  0.00    -0.023 C 
ATOM     29  C   UNL     1      -1.073  23.739  23.231  0.00  0.00    -0.078 C 
ATOM     30  C   UNL     1      -1.246  23.558  24.714  0.00  0.00    -0.008 C 
ATOM     31  C   UNL     1      -0.444  22.363  25.253  0.00  0.00    +0.069 C 
ATOM     32  C   UNL     1       1.062  22.617  25.249  0.00  0.00    +0.071 C 
ATOM     33  C   UNL     1       1.756  21.287  25.315  0.00  0.00    +0.310 C 
ATOM     34  O   UNL     1       1.632  20.432  24.449  0.00  0.00    -0.251 OA
ATOM     35  O   UNL     1       2.483  21.163  26.453  0.00  0.00    -0.461 OA
ATOM     36  C   UNL     1       2.851  19.819  26.862  0.00  0.00    +0.110 C 
ATOM     37  H   UNL     1       1.843  20.268  28.719  0.00  0.00    +0.036 HD
ATOM     38  H   UNL     1       3.938  18.045  28.910  0.00  0.00    +0.060 HD
ATOM     39  H   UNL     1       2.320  16.971  27.591  0.00  0.00    +0.033 HD
ATOM     40  H   UNL     1       1.873  16.504  29.212  0.00  0.00    +0.033 HD
ATOM     41  H   UNL     1       0.194  17.760  27.227  0.00  0.00    +0.057 HD
ATOM     42  H   UNL     1      -0.067  18.387  30.230  0.00  0.00    +0.067 HD
ATOM     43  H   UNL     1      -4.755  19.067  29.368  0.00  0.00    +0.105 HD
ATOM     44  H   UNL     1      -6.998  19.918  24.860  0.00  0.00    +0.105 HD
ATOM     45  H   UNL     1      -6.037  20.957  20.012  0.00  0.00    +0.105 HD
ATOM     46  H   UNL     1      -2.024  21.093  20.188  0.00  0.00    +0.067 HD
ATOM     47  H   UNL     1      -2.416  23.349  18.904  0.00  0.00    +0.041 HD
ATOM     48  H   UNL     1      -3.032  23.185  22.657  0.00  0.00    +0.065 HD
ATOM     49  H   UNL     1      -0.091  24.049  22.880  0.00  0.00    +0.057 HD
ATOM     50  H   UNL     1      -0.951  24.478  25.233  0.00  0.00    +0.033 HD
ATOM     51  H   UNL     1      -2.307  23.412  24.959  0.00  0.00    +0.033 HD
ATOM     52  H   UNL     1      -0.698  21.467  24.673  0.00  0.00    +0.060 HD
ATOM     53  H   UNL     1       1.417  23.099  24.330  0.00  0.00    +0.040 HD
ATOM     54  H   UNL     1       1.369  23.246  26.096  0.00  0.00    +0.040 HD
ATOM     55  H   UNL     1       2.069  19.142  26.515  0.00  0.00    +0.074 HD
BRANCH   4  56
ATOM     56  C   UNL     1       3.860  20.790  28.999  0.00  0.00    -0.057 C 
ATOM     57  H   UNL     1       4.448  21.260  28.204  0.00  0.00    +0.023 HD
ATOM     58  H   UNL     1       4.549  20.267  29.664  0.00  0.00    +0.023 HD
ATOM     59  H   UNL     1       3.390  21.598  29.568  0.00  0.00    +0.023 HD
ENDBRANCH   4  56
BRANCH  25  60
ATOM     60  C   UNL     1      -4.116  23.898  20.001  0.00  0.00    -0.053 C 
ATOM     61  H   UNL     1      -4.054  24.699  20.745  0.00  0.00    +0.024 HD
ATOM     62  H   UNL     1      -4.960  23.248  20.257  0.00  0.00    +0.024 HD
ATOM     63  H   UNL     1      -4.339  24.375  19.037  0.00  0.00    +0.024 HD
ENDBRANCH  25  60
BRANCH  31  64
ATOM     64  O   UNL     1      -0.846  22.123  26.606  0.00  0.00    -0.391 OA
ATOM     65  H   UNL     1      -1.572  21.464  26.572  0.00  0.00    +0.210 HD
ENDBRANCH  31  64
BRANCH  24  66
ATOM     66  O   UNL     1      -3.379  21.102  18.618  0.00  0.00    -0.373 OA
BRANCH  66  67
ATOM     67  C   UNL     1      -2.574  21.670  17.591  0.00  0.00    +0.037 C 
ATOM     68  H   UNL     1      -3.144  21.786  16.665  0.00  0.00    +0.052 HD
ATOM     69  H   UNL     1      -2.177  22.640  17.910  0.00  0.00    +0.052 HD
ATOM     70  H   UNL     1      -1.734  20.996  17.402  0.00  0.00    +0.052 HD
ENDBRANCH  66  67
ENDBRANCH  24  66
BRANCH   5  71
ATOM     71  O   UNL     1       2.718  18.579  30.491  0.00  0.00    -0.379 OA
BRANCH  71  72
ATOM     72  C   UNL     1       2.951  17.376  31.215  0.00  0.00    +0.037 C 
ATOM     73  H   UNL     1       3.915  17.398  31.730  0.00  0.00    +0.052 HD
ATOM     74  H   UNL     1       2.956  16.547  30.500  0.00  0.00    +0.052 HD
ATOM     75  H   UNL     1       2.144  17.206  31.935  0.00  0.00    +0.052 HD
ENDBRANCH  71  72
ENDBRANCH   5  71
ENDBRANCH   1  36
BRANCH   1  76
ATOM     76  C   UNL     1       4.201  18.190  25.380  0.00  0.00    +0.064 C 
ATOM     77  H   UNL     1       3.316  17.587  25.609  0.00  0.00    +0.060 HD
BRANCH  76  78
ATOM     78  C   UNL     1       4.209  18.525  23.863  0.00  0.00    -0.017 C 
ATOM     79  H   UNL     1       3.219  18.907  23.609  0.00  0.00    +0.032 HD
BRANCH  78  80
ATOM     80  C   UNL     1       5.212  19.678  23.616  0.00  0.00    -0.060 C 
ATOM     81  H   UNL     1       6.083  19.586  24.275  0.00  0.00    +0.023 HD
ATOM     82  H   UNL     1       5.591  19.666  22.590  0.00  0.00    +0.023 HD
ATOM     83  H   UNL     1       4.745  20.650  23.804  0.00  0.00    +0.023 HD
ENDBRANCH  78  80
BRANCH  78  84
ATOM     84  C   UNL     1       4.593  17.389  22.901  0.00  0.00    -0.045 C 
ATOM     85  H   UNL     1       5.663  17.487  22.659  0.00  0.00    +0.027 HD
ATOM     86  H   UNL     1       4.514  16.426  23.432  0.00  0.00    +0.027 HD
BRANCH  84  87
ATOM     87  C   UNL     1       3.886  17.250  21.542  0.00  0.00    -0.015 C 
ATOM     88  H   UNL     1       3.428  16.255  21.586  0.00  0.00    +0.030 HD
ATOM     89  H   UNL     1       3.044  17.948  21.484  0.00  0.00    +0.030 HD
BRANCH  87  90
ATOM     90  C   UNL     1       4.702  17.342  20.230  0.00  0.00    +0.109 C 
ATOM     91  H   UNL     1       5.720  17.003  20.460  0.00  0.00    +0.074 HD
BRANCH  90  92
ATOM     92  C   UNL     1       4.737  18.816  19.684  0.00  0.00    +0.031 C 
ATOM     93  H   UNL     1       4.853  18.758  18.595  0.00  0.00    +0.037 HD
BRANCH  92  94
ATOM     94  C   UNL     1       5.994  19.577  20.146  0.00  0.00    -0.056 C 
ATOM     95  H   UNL     1       5.823  20.092  21.093  0.00  0.00    +0.023 HD
ATOM     96  H   UNL     1       6.321  20.303  19.398  0.00  0.00    +0.023 HD
ATOM     97  H   UNL     1       6.825  18.883  20.326  0.00  0.00    +0.023 HD
ENDBRANCH  92  94
BRANCH  92  98
ATOM     98  C   UNL     1       3.498  19.706  20.027  0.00  0.00    +0.115 C 
ATOM     99  H   UNL     1       3.090  19.373  20.993  0.00  0.00    +0.074 HD
BRANCH  98 100
ATOM    100  C   UNL     1       3.788  21.224  20.230  0.00  0.00    +0.013 C 
ATOM    101  H   UNL     1       4.852  21.376  20.423  0.00  0.00    +0.038 HD
BRANCH 100 102
ATOM    102  C   UNL     1       2.993  21.809  21.406  0.00  0.00    -0.056 C 
ATOM    103  H   UNL     1       2.843  22.892  21.293  0.00  0.00    +0.024 HD
ATOM    104  H   UNL     1       2.000  21.343  21.489  0.00  0.00    +0.024 HD
ATOM    105  H   UNL     1       3.516  21.657  22.355  0.00  0.00    +0.024 HD
ENDBRANCH 100 102
BRANCH 100 106
ATOM    106  C   UNL     1       3.428  22.018  18.984  0.00  0.00    -0.064 C 
ATOM    107  C   UNL     1       4.291  22.254  17.985  0.00  0.00    -0.005 C 
ATOM    108  H   UNL     1       2.414  22.411  18.951  0.00  0.00    +0.059 HD
ATOM    109  H   UNL     1       5.305  21.870  18.080  0.00  0.00    +0.078 HD
BRANCH 107 110
ATOM    110  N   UNL     1       4.057  22.970  16.821  0.00  0.00    -0.284 N 
ATOM    111  C   UNL     1       4.690  22.750  15.597  0.00  0.00    +0.206 C 
ATOM    112  O   UNL     1       5.539  21.915  15.307  0.00  0.00    -0.279 OA
ATOM    113  H   UNL     1       4.344  23.456  14.823  0.00  0.00    +0.126 HD
BRANCH 110 114
ATOM    114  C   UNL     1       3.068  24.042  16.898  0.00  0.00    +0.007 C 
ATOM    115  H   UNL     1       2.106  23.617  17.209  0.00  0.00    +0.043 HD
ATOM    116  H   UNL     1       2.929  24.539  15.932  0.00  0.00    +0.043 HD
ATOM    117  H   UNL     1       3.396  24.785  17.630  0.00  0.00    +0.043 HD
ENDBRANCH 110 114
ENDBRANCH 107 110
ENDBRANCH 100 106
ENDBRANCH  98 100
BRANCH  98 118
ATOM    118  O   UNL     1       2.490  19.565  18.999  0.00  0.00    -0.461 OA
BRANCH 118 119
ATOM    119  C   UNL     1       1.303  19.013  19.388  0.00  0.00    +0.304 C 
ATOM    120  O   UNL     1       1.061  17.818  19.473  0.00  0.00    -0.251 OA
BRANCH 119 121
ATOM    121  C   UNL     1       0.297  20.087  19.673  0.00  0.00    +0.033 C 
ATOM    122  H   UNL     1       0.729  20.814  20.363  0.00  0.00    +0.034 HD
ATOM    123  H   UNL     1      -0.611  19.645  20.092  0.00  0.00    +0.034 HD
ATOM    124  H   UNL     1       0.025  20.585  18.739  0.00  0.00    +0.034 HD
ENDBRANCH 119 121
ENDBRANCH 118 119
ENDBRANCH  98 118
ENDBRANCH  92  98
ENDBRANCH  90  92
BRANCH  90 125
ATOM    125  O   UNL     1       4.118  16.451  19.245  0.00  0.00    -0.459 OA
BRANCH 125 126
ATOM    126  C   UNL     1       4.610  15.166  19.219  0.00  0.00    +0.339 C 
ATOM    127  O   UNL     1       5.802  14.891  19.166  0.00  0.00    -0.248 OA
BRANCH 126 128
ATOM    128  C   UNL     1       3.498  14.103  19.184  0.00  0.00    +0.178 C 
ATOM    129  H   UNL     1       3.695  13.478  18.298  0.00  0.00    +0.074 HD
BRANCH 128 130
ATOM    130  C   UNL     1       3.603  13.221  20.430  0.00  0.00    +0.084 C 
ATOM    131  H   UNL     1       3.450  12.174  20.161  0.00  0.00    +0.059 HD
ATOM    132  H   UNL     1       4.616  13.293  20.842  0.00  0.00    +0.059 HD
BRANCH 130 133
ATOM    133  O   UNL     1       2.663  13.617  21.426  0.00  0.00    -0.380 OA
BRANCH 133 134
ATOM    134  C   UNL     1       3.267  13.711  22.708  0.00  0.00    +0.037 C 
ATOM    135  H   UNL     1       2.702  13.117  23.433  0.00  0.00    +0.052 HD
ATOM    136  H   UNL     1       4.282  13.309  22.643  0.00  0.00    +0.052 HD
ATOM    137  H   UNL     1       3.322  14.752  23.042  0.00  0.00    +0.052 HD
ENDBRANCH 133 134
ENDBRANCH 130 133
ENDBRANCH 128 130
BRANCH 128 138
ATOM    138  O   UNL     1       2.162  14.607  19.120  0.00  0.00    -0.366 OA
BRANCH 138 139
ATOM    139  C   UNL     1       1.434  14.069  18.025  0.00  0.00    +0.038 C 
ATOM    140  H   UNL     1       1.938  13.156  17.695  0.00  0.00    +0.052 HD
ATOM    141  H   UNL     1       1.423  14.776  17.188  0.00  0.00    +0.052 HD
ATOM    142  H   UNL     1       0.411  13.817  18.317  0.00  0.00    +0.052 HD
ENDBRANCH 138 139
ENDBRANCH 128 138
ENDBRANCH 126 128
ENDBRANCH 125 126
ENDBRANCH  90 125
ENDBRANCH  87  90
ENDBRANCH  84  87
ENDBRANCH  78  84
ENDBRANCH  76  78
BRANCH  76 143
ATOM    143  O   UNL     1       5.415  17.458  25.632  0.00  0.00    -0.379 OA
BRANCH 143 144
ATOM    144  C   UNL     1       5.925  17.623  26.949  0.00  0.00    +0.037 C 
ATOM    145  H   UNL     1       6.291  16.651  27.299  0.00  0.00    +0.052 HD
ATOM    146  H   UNL     1       5.158  17.976  27.646  0.00  0.00    +0.052 HD
ATOM    147  H   UNL     1       6.772  18.312  26.945  0.00  0.00    +0.052 HD
ENDBRANCH 143 144
ENDBRANCH  76 143
ENDBRANCH   1  76
TORSDOF 35
ENDMDL
MODEL 3
REMARK VINA RESULT:      -5.2      2.951     10.490
REMARK  Name = Mycalolide B_conf3
REMARK  35 active torsions:
REMARK  status: ('A' for Active; 'I' for Inactive)
REMARK    1  A    between atoms: C_1  and  C_2
REMARK    2  A    between atoms: C_3  and  O_72
REMARK    3  A    between atoms: C_22  and  O_70
REMARK    4  A    between atoms: C_23  and  C_69
REMARK    5  A    between atoms: C_29  and  O_68
REMARK    6  A    between atoms: C_34  and  C_35
REMARK    7  A    between atoms: C_35  and  C_36
REMARK    8  A    between atoms: C_36  and  C_37
REMARK    9  A    between atoms: C_36  and  O_66
REMARK   10  A    between atoms: C_37  and  C_38
REMARK   11  A    between atoms: C_37  and  C_39
REMARK   12  A    between atoms: C_39  and  C_40
REMARK   13  A    between atoms: C_40  and  C_41
REMARK   14  A    between atoms: C_41  and  C_42
REMARK   15  A    between atoms: C_41  and  O_57
REMARK   16  A    between atoms: C_42  and  C_43
REMARK   17  A    between atoms: C_42  and  C_44
REMARK   18  A    between atoms: C_44  and  C_45
REMARK   19  A    between atoms: C_44  and  O_53
REMARK   20  A    between atoms: C_45  and  C_46
REMARK   21  A    between atoms: C_45  and  C_47
REMARK   22  A    between atoms: C_48  and  N_49
REMARK   23  A    between atoms: N_49  and  C_50
REMARK   24  A    between atoms: O_53  and  C_54
REMARK   25  A    between atoms: C_54  and  C_56
REMARK   26  A    between atoms: O_57  and  C_58
REMARK   27  A    between atoms: C_58  and  C_60
REMARK   28  A    between atoms: C_60  and  C_61
REMARK   29  A    between atoms: C_60  and  O_64
REMARK   30  A    between atoms: C_61  and  O_62
REMARK   31  A    between atoms: O_62  and  C_63
REMARK   32  A    between atoms: O_64  and  C_65
REMARK   33  A    between atoms: O_66  and  C_67
REMARK   34  A    between atoms: O_70  and  C_71
REMARK   35  A    between atoms: O_72  and  C_73
REMARK                            x       y       z     vdW  Elec       q    Type
REMARK                         _______ _______ _______ _____ _____    ______ ____
ROOT
ATOM      1  C   UNL     1      -8.792  12.318  20.121  0.00  0.00    +0.011 C 
ATOM      2  H   UNL     1      -7.930  11.642  20.137  0.00  0.00    +0.033 HD
ATOM      3  H   UNL     1      -8.438  13.311  19.825  0.00  0.00    +0.033 HD
ENDROOT
BRANCH   1  36
ATOM      4  C   UNL     1      -9.688  13.856  22.011  0.00  0.00    +0.020 C 
ATOM      5  C   UNL     1      -8.415  14.704  22.290  0.00  0.00    +0.068 C 
ATOM      6  C   UNL     1      -7.378  14.047  23.238  0.00  0.00    -0.008 C 
ATOM      7  C   UNL     1      -7.925  13.312  24.431  0.00  0.00    -0.077 C 
ATOM      8  C   UNL     1      -8.649  13.852  25.424  0.00  0.00    -0.003 C 
ATOM      9  C   UNL     1      -9.115  13.025  26.485  0.00  0.00    +0.220 A 
ATOM     10  N   UNL     1      -9.315  11.713  26.421  0.00  0.00    -0.205 NA
ATOM     11  C   UNL     1      -9.615  11.327  27.702  0.00  0.00    +0.164 A 
ATOM     12  C   UNL     1      -9.648  12.421  28.519  0.00  0.00    +0.125 A 
ATOM     13  O   UNL     1      -9.376  13.518  27.759  0.00  0.00    -0.443 OA
ATOM     14  C   UNL     1      -9.834   9.850  28.133  0.00  0.00    +0.250 A 
ATOM     15  N   UNL     1      -9.889   8.851  27.267  0.00  0.00    -0.203 NA
ATOM     16  C   UNL     1      -9.983   7.728  28.051  0.00  0.00    +0.164 A 
ATOM     17  C   UNL     1     -10.030   8.087  29.371  0.00  0.00    +0.125 A 
ATOM     18  O   UNL     1      -9.959   9.447  29.443  0.00  0.00    -0.442 OA
ATOM     19  C   UNL     1     -10.046   6.269  27.511  0.00  0.00    +0.249 A 
ATOM     20  N   UNL     1     -10.128   5.975  26.224  0.00  0.00    -0.210 NA
ATOM     21  C   UNL     1     -10.247   4.602  26.183  0.00  0.00    +0.109 A 
ATOM     22  C   UNL     1     -10.147   4.110  27.460  0.00  0.00    +0.118 A 
ATOM     23  O   UNL     1     -10.066   5.160  28.324  0.00  0.00    -0.442 OA
ATOM     24  C   UNL     1     -10.450   3.871  24.887  0.00  0.00    +0.113 C 
ATOM     25  C   UNL     1     -11.930   3.671  24.501  0.00  0.00    +0.051 C 
ATOM     26  C   UNL     1     -12.460   4.850  23.704  0.00  0.00    +0.161 C 
ATOM     27  O   UNL     1     -12.675   4.735  22.495  0.00  0.00    -0.292 OA
ATOM     28  C   UNL     1     -12.684   6.155  24.390  0.00  0.00    -0.023 C 
ATOM     29  C   UNL     1     -12.984   7.256  23.681  0.00  0.00    -0.078 C 
ATOM     30  C   UNL     1     -13.084   8.628  24.286  0.00  0.00    -0.008 C 
ATOM     31  C   UNL     1     -11.930   9.544  23.848  0.00  0.00    +0.069 C 
ATOM     32  C   UNL     1     -12.032   9.956  22.380  0.00  0.00    +0.071 C 
ATOM     33  C   UNL     1     -10.674  10.411  21.931  0.00  0.00    +0.310 C 
ATOM     34  O   UNL     1      -9.696   9.677  21.930  0.00  0.00    -0.251 OA
ATOM     35  O   UNL     1     -10.682  11.721  21.578  0.00  0.00    -0.461 OA
ATOM     36  C   UNL     1      -9.401  12.404  21.537  0.00  0.00    +0.110 C 
ATOM     37  H   UNL     1     -10.264  13.793  22.948  0.00  0.00    +0.036 HD
ATOM     38  H   UNL     1      -7.918  14.911  21.334  0.00  0.00    +0.060 HD
ATOM     39  H   UNL     1      -6.790  13.332  22.655  0.00  0.00    +0.033 HD
ATOM     40  H   UNL     1      -6.661  14.792  23.601  0.00  0.00    +0.033 HD
ATOM     41  H   UNL     1      -7.705  12.241  24.457  0.00  0.00    +0.057 HD
ATOM     42  H   UNL     1      -8.873  14.910  25.456  0.00  0.00    +0.067 HD
ATOM     43  H   UNL     1      -9.841  12.597  29.566  0.00  0.00    +0.105 HD
ATOM     44  H   UNL     1     -10.100   7.552  30.311  0.00  0.00    +0.105 HD
ATOM     45  H   UNL     1     -10.174   3.118  27.892  0.00  0.00    +0.105 HD
ATOM     46  H   UNL     1      -9.949   4.468  24.113  0.00  0.00    +0.067 HD
ATOM     47  H   UNL     1     -11.971   2.824  23.801  0.00  0.00    +0.041 HD
ATOM     48  H   UNL     1     -12.530   6.204  25.460  0.00  0.00    +0.065 HD
ATOM     49  H   UNL     1     -13.130   7.175  22.606  0.00  0.00    +0.057 HD
ATOM     50  H   UNL     1     -14.047   9.078  24.019  0.00  0.00    +0.033 HD
ATOM     51  H   UNL     1     -13.086   8.563  25.383  0.00  0.00    +0.033 HD
ATOM     52  H   UNL     1     -10.975   9.045  24.055  0.00  0.00    +0.060 HD
ATOM     53  H   UNL     1     -12.309   9.128  21.717  0.00  0.00    +0.040 HD
ATOM     54  H   UNL     1     -12.767  10.759  22.236  0.00  0.00    +0.040 HD
ATOM     55  H   UNL     1      -8.753  11.938  22.280  0.00  0.00    +0.074 HD
BRANCH   4  56
ATOM     56  C   UNL     1     -10.630  14.588  21.037  0.00  0.00    -0.057 C 
ATOM     57  H   UNL     1     -10.231  15.570  20.767  0.00  0.00    +0.023 HD
ATOM     58  H   UNL     1     -11.618  14.735  21.476  0.00  0.00    +0.023 HD
ATOM     59  H   UNL     1     -10.754  14.027  20.106  0.00  0.00    +0.023 HD
ENDBRANCH   4  56
BRANCH  25  60
ATOM     60  C   UNL     1     -12.867   3.273  25.642  0.00  0.00    -0.053 C 
ATOM     61  H   UNL     1     -12.571   3.704  26.604  0.00  0.00    +0.024 HD
ATOM     62  H   UNL     1     -12.909   2.183  25.746  0.00  0.00    +0.024 HD
ATOM     63  H   UNL     1     -13.884   3.631  25.432  0.00  0.00    +0.024 HD
ENDBRANCH  25  60
BRANCH  31  64
ATOM     64  O   UNL     1     -11.971  10.734  24.642  0.00  0.00    -0.391 OA
ATOM     65  H   UNL     1     -11.690  10.479  25.547  0.00  0.00    +0.210 HD
ENDBRANCH  31  64
BRANCH  24  66
ATOM     66  O   UNL     1      -9.813   2.579  24.959  0.00  0.00    -0.373 OA
BRANCH  66  67
ATOM     67  C   UNL     1     -10.032   1.809  23.782  0.00  0.00    +0.037 C 
ATOM     68  H   UNL     1     -10.777   2.283  23.135  0.00  0.00    +0.052 HD
ATOM     69  H   UNL     1      -9.093   1.673  23.234  0.00  0.00    +0.052 HD
ATOM     70  H   UNL     1     -10.406   0.826  24.080  0.00  0.00    +0.052 HD
ENDBRANCH  66  67
ENDBRANCH  24  66
BRANCH   5  71
ATOM     71  O   UNL     1      -8.836  15.963  22.857  0.00  0.00    -0.379 OA
BRANCH  71  72
ATOM     72  C   UNL     1      -7.745  16.828  23.150  0.00  0.00    +0.037 C 
ATOM     73  H   UNL     1      -7.060  16.912  22.301  0.00  0.00    +0.052 HD
ATOM     74  H   UNL     1      -7.198  16.406  23.999  0.00  0.00    +0.052 HD
ATOM     75  H   UNL     1      -8.113  17.819  23.434  0.00  0.00    +0.052 HD
ENDBRANCH  71  72
ENDBRANCH   5  71
ENDBRANCH   1  36
BRANCH   1  76
ATOM     76  C   UNL     1      -9.762  11.776  19.058  0.00  0.00    +0.064 C 
ATOM     77  H   UNL     1     -10.749  11.614  19.502  0.00  0.00    +0.060 HD
BRANCH  76  78
ATOM     78  C   UNL     1      -9.906  12.714  17.827  0.00  0.00    -0.017 C 
ATOM     79  H   UNL     1      -9.527  12.172  16.960  0.00  0.00    +0.032 HD
BRANCH  78  80
ATOM     80  C   UNL     1     -11.412  12.971  17.574  0.00  0.00    -0.060 C 
ATOM     81  H   UNL     1     -11.761  12.416  16.695  0.00  0.00    +0.023 HD
ATOM     82  H   UNL     1     -12.022  12.639  18.419  0.00  0.00    +0.023 HD
ATOM     83  H   UNL     1     -11.603  14.034  17.401  0.00  0.00    +0.023 HD
ENDBRANCH  78  80
BRANCH  78  84
ATOM     84  C   UNL     1      -9.231  14.092  17.919  0.00  0.00    -0.045 C 
ATOM     85  H   UNL     1     -10.015  14.864  17.892  0.00  0.00    +0.027 HD
ATOM     86  H   UNL     1      -8.767  14.199  18.913  0.00  0.00    +0.027 HD
BRANCH  84  87
ATOM     87  C   UNL     1      -8.205  14.526  16.858  0.00  0.00    -0.015 C 
ATOM     88  H   UNL     1      -7.870  13.581  16.416  0.00  0.00    +0.030 HD
ATOM     89  H   UNL     1      -8.710  15.057  16.043  0.00  0.00    +0.030 HD
BRANCH  87  90
ATOM     90  C   UNL     1      -6.949  15.329  17.275  0.00  0.00    +0.109 C 
ATOM     91  H   UNL     1      -6.097  14.896  16.737  0.00  0.00    +0.074 HD
BRANCH  90  92
ATOM     92  C   UNL     1      -6.708  15.242  18.826  0.00  0.00    +0.031 C 
ATOM     93  H   UNL     1      -7.523  14.642  19.250  0.00  0.00    +0.037 HD
BRANCH  92  94
ATOM     94  C   UNL     1      -6.862  16.610  19.516  0.00  0.00    -0.056 C 
ATOM     95  H   UNL     1      -6.961  16.503  20.597  0.00  0.00    +0.023 HD
ATOM     96  H   UNL     1      -7.725  17.159  19.130  0.00  0.00    +0.023 HD
ATOM     97  H   UNL     1      -5.970  17.230  19.354  0.00  0.00    +0.023 HD
ENDBRANCH  92  94
BRANCH  92  98
ATOM     98  C   UNL     1      -5.334  14.643  19.275  0.00  0.00    +0.115 C 
ATOM     99  H   UNL     1      -4.928  15.276  20.079  0.00  0.00    +0.074 HD
BRANCH  98 100
ATOM    100  C   UNL     1      -5.387  13.214  19.893  0.00  0.00    +0.013 C 
ATOM    101  H   UNL     1      -6.373  13.032  20.326  0.00  0.00    +0.038 HD
BRANCH 100 102
ATOM    102  C   UNL     1      -4.333  13.024  20.993  0.00  0.00    -0.056 C 
ATOM    103  H   UNL     1      -4.783  13.059  21.995  0.00  0.00    +0.024 HD
ATOM    104  H   UNL     1      -3.820  12.055  20.894  0.00  0.00    +0.024 HD
ATOM    105  H   UNL     1      -3.573  13.811  20.958  0.00  0.00    +0.024 HD
ENDBRANCH 100 102
BRANCH 100 106
ATOM    106  C   UNL     1      -5.147  12.152  18.831  0.00  0.00    -0.064 C 
ATOM    107  C   UNL     1      -5.775  10.967  18.817  0.00  0.00    -0.005 C 
ATOM    108  H   UNL     1      -4.409  12.401  18.072  0.00  0.00    +0.059 HD
ATOM    109  H   UNL     1      -6.480  10.750  19.618  0.00  0.00    +0.078 HD
BRANCH 107 110
ATOM    110  N   UNL     1      -5.616   9.940  17.901  0.00  0.00    -0.284 N 
ATOM    111  C   UNL     1      -6.075   8.632  18.066  0.00  0.00    +0.206 C 
ATOM    112  O   UNL     1      -6.688   8.143  19.008  0.00  0.00    -0.279 OA
ATOM    113  H   UNL     1      -5.817   7.994  17.204  0.00  0.00    +0.126 HD
BRANCH 110 114
ATOM    114  C   UNL     1      -4.906  10.266  16.666  0.00  0.00    +0.007 C 
ATOM    115  H   UNL     1      -5.610  10.212  15.827  0.00  0.00    +0.043 HD
ATOM    116  H   UNL     1      -4.085   9.569  16.472  0.00  0.00    +0.043 HD
ATOM    117  H   UNL     1      -4.498  11.278  16.740  0.00  0.00    +0.043 HD
ENDBRANCH 110 114
ENDBRANCH 107 110
ENDBRANCH 100 106
ENDBRANCH  98 100
BRANCH  98 118
ATOM    118  O   UNL     1      -4.415  14.627  18.158  0.00  0.00    -0.461 OA
BRANCH 118 119
ATOM    119  C   UNL     1      -3.286  15.381  18.294  0.00  0.00    +0.304 C 
ATOM    120  O   UNL     1      -3.239  16.602  18.341  0.00  0.00    -0.251 OA
BRANCH 119 121
ATOM    121  C   UNL     1      -2.073  14.502  18.346  0.00  0.00    +0.033 C 
ATOM    122  H   UNL     1      -1.195  15.110  18.570  0.00  0.00    +0.034 HD
ATOM    123  H   UNL     1      -1.951  13.980  17.393  0.00  0.00    +0.034 HD
ATOM    124  H   UNL     1      -2.205  13.747  19.125  0.00  0.00    +0.034 HD
ENDBRANCH 119 121
ENDBRANCH 118 119
ENDBRANCH  98 118
ENDBRANCH  92  98
ENDBRANCH  90  92
BRANCH  90 125
ATOM    125  O   UNL     1      -7.114  16.712  16.866  0.00  0.00    -0.459 OA
BRANCH 125 126
ATOM    126  C   UNL     1      -6.042  17.288  16.225  0.00  0.00    +0.339 C 
ATOM    127  O   UNL     1      -5.241  16.667  15.539  0.00  0.00    -0.248 OA
BRANCH 126 128
ATOM    128  C   UNL     1      -5.906  18.791  16.526  0.00  0.00    +0.178 C 
ATOM    129  H   UNL     1      -5.477  19.251  15.621  0.00  0.00    +0.074 HD
BRANCH 128 130
ATOM    130  C   UNL     1      -7.295  19.388  16.759  0.00  0.00    +0.084 C 
ATOM    131  H   UNL     1      -8.045  18.595  16.780  0.00  0.00    +0.059 HD
ATOM    132  H   UNL     1      -7.324  19.871  17.743  0.00  0.00    +0.059 HD
BRANCH 130 133
ATOM    133  O   UNL     1      -7.622  20.349  15.758  0.00  0.00    -0.380 OA
BRANCH 133 134
ATOM    134  C   UNL     1      -8.790  21.083  16.097  0.00  0.00    +0.037 C 
ATOM    135  H   UNL     1      -9.682  20.548  15.754  0.00  0.00    +0.052 HD
ATOM    136  H   UNL     1      -8.836  21.176  17.185  0.00  0.00    +0.052 HD
ATOM    137  H   UNL     1      -8.766  22.085  15.657  0.00  0.00    +0.052 HD
ENDBRANCH 133 134
ENDBRANCH 130 133
ENDBRANCH 128 130
BRANCH 128 138
ATOM    138  O   UNL     1      -5.095  19.125  17.656  0.00  0.00    -0.366 OA
BRANCH 138 139
ATOM    139  C   UNL     1      -5.750  20.020  18.544  0.00  0.00    +0.038 C 
ATOM    140  H   UNL     1      -5.438  21.038  18.294  0.00  0.00    +0.052 HD
ATOM    141  H   UNL     1      -5.456  19.815  19.578  0.00  0.00    +0.052 HD
ATOM    142  H   UNL     1      -6.836  19.953  18.441  0.00  0.00    +0.052 HD
ENDBRANCH 138 139
ENDBRANCH 128 138
ENDBRANCH 126 128
ENDBRANCH 125 126
ENDBRANCH  90 125
ENDBRANCH  87  90
ENDBRANCH  84  87
ENDBRANCH  78  84
ENDBRANCH  76  78
BRANCH  76 143
ATOM    143  O   UNL     1      -9.202  10.547  18.558  0.00  0.00    -0.379 OA
BRANCH 143 144
ATOM    144  C   UNL     1     -10.157   9.508  18.382  0.00  0.00    +0.037 C 
ATOM    145  H   UNL     1     -10.847   9.808  17.586  0.00  0.00    +0.052 HD
ATOM    146  H   UNL     1     -10.738   9.324  19.293  0.00  0.00    +0.052 HD
ATOM    147  H   UNL     1      -9.663   8.588  18.062  0.00  0.00    +0.052 HD
ENDBRANCH 143 144
ENDBRANCH  76 143
ENDBRANCH   1  76
TORSDOF 35
ENDMDL
MODEL 4
REMARK VINA RESULT:      -5.1      9.087     14.102
REMARK  Name = Mycalolide B_conf3
REMARK  35 active torsions:
REMARK  status: ('A' for Active; 'I' for Inactive)
REMARK    1  A    between atoms: C_1  and  C_2
REMARK    2  A    between atoms: C_3  and  O_72
REMARK    3  A    between atoms: C_22  and  O_70
REMARK    4  A    between atoms: C_23  and  C_69
REMARK    5  A    between atoms: C_29  and  O_68
REMARK    6  A    between atoms: C_34  and  C_35
REMARK    7  A    between atoms: C_35  and  C_36
REMARK    8  A    between atoms: C_36  and  C_37
REMARK    9  A    between atoms: C_36  and  O_66
REMARK   10  A    between atoms: C_37  and  C_38
REMARK   11  A    between atoms: C_37  and  C_39
REMARK   12  A    between atoms: C_39  and  C_40
REMARK   13  A    between atoms: C_40  and  C_41
REMARK   14  A    between atoms: C_41  and  C_42
REMARK   15  A    between atoms: C_41  and  O_57
REMARK   16  A    between atoms: C_42  and  C_43
REMARK   17  A    between atoms: C_42  and  C_44
REMARK   18  A    between atoms: C_44  and  C_45
REMARK   19  A    between atoms: C_44  and  O_53
REMARK   20  A    between atoms: C_45  and  C_46
REMARK   21  A    between atoms: C_45  and  C_47
REMARK   22  A    between atoms: C_48  and  N_49
REMARK   23  A    between atoms: N_49  and  C_50
REMARK   24  A    between atoms: O_53  and  C_54
REMARK   25  A    between atoms: C_54  and  C_56
REMARK   26  A    between atoms: O_57  and  C_58
REMARK   27  A    between atoms: C_58  and  C_60
REMARK   28  A    between atoms: C_60  and  C_61
REMARK   29  A    between atoms: C_60  and  O_64
REMARK   30  A    between atoms: C_61  and  O_62
REMARK   31  A    between atoms: O_62  and  C_63
REMARK   32  A    between atoms: O_64  and  C_65
REMARK   33  A    between atoms: O_66  and  C_67
REMARK   34  A    between atoms: O_70  and  C_71
REMARK   35  A    between atoms: O_72  and  C_73
REMARK                            x       y       z     vdW  Elec       q    Type
REMARK                         _______ _______ _______ _____ _____    ______ ____
ROOT
ATOM      1  C   UNL     1       1.658  19.266  28.163  0.00  0.00    +0.011 C 
ATOM      2  H   UNL     1       1.823  19.021  29.217  0.00  0.00    +0.033 HD
ATOM      3  H   UNL     1       2.216  20.182  27.936  0.00  0.00    +0.033 HD
ENDROOT
BRANCH   1  36
ATOM      4  C   UNL     1      -0.721  19.352  29.200  0.00  0.00    +0.020 C 
ATOM      5  C   UNL     1      -0.847  17.884  29.698  0.00  0.00    +0.068 C 
ATOM      6  C   UNL     1      -1.291  16.858  28.623  0.00  0.00    -0.008 C 
ATOM      7  C   UNL     1      -2.369  17.300  27.671  0.00  0.00    -0.077 C 
ATOM      8  C   UNL     1      -3.620  17.649  28.007  0.00  0.00    -0.003 C 
ATOM      9  C   UNL     1      -4.531  18.065  26.995  0.00  0.00    +0.220 A 
ATOM     10  N   UNL     1      -4.202  18.581  25.815  0.00  0.00    -0.205 NA
ATOM     11  C   UNL     1      -5.382  18.687  25.123  0.00  0.00    +0.164 A 
ATOM     12  C   UNL     1      -6.421  18.286  25.915  0.00  0.00    +0.125 A 
ATOM     13  O   UNL     1      -5.908  17.928  27.125  0.00  0.00    -0.443 OA
ATOM     14  C   UNL     1      -5.480  19.155  23.645  0.00  0.00    +0.250 A 
ATOM     15  N   UNL     1      -4.442  19.627  22.972  0.00  0.00    -0.203 NA
ATOM     16  C   UNL     1      -4.923  19.818  21.700  0.00  0.00    +0.164 A 
ATOM     17  C   UNL     1      -6.252  19.500  21.654  0.00  0.00    +0.125 A 
ATOM     18  O   UNL     1      -6.634  19.095  22.899  0.00  0.00    -0.442 OA
ATOM     19  C   UNL     1      -4.078  20.339  20.500  0.00  0.00    +0.249 A 
ATOM     20  N   UNL     1      -2.829  20.757  20.619  0.00  0.00    -0.210 NA
ATOM     21  C   UNL     1      -2.485  21.205  19.361  0.00  0.00    +0.109 A 
ATOM     22  C   UNL     1      -3.527  20.958  18.503  0.00  0.00    +0.118 A 
ATOM     23  O   UNL     1      -4.569  20.451  19.220  0.00  0.00    -0.442 OA
ATOM     24  C   UNL     1      -1.153  21.844  19.093  0.00  0.00    +0.113 C 
ATOM     25  C   UNL     1      -1.142  23.376  19.271  0.00  0.00    +0.051 C 
ATOM     26  C   UNL     1      -0.831  23.766  20.706  0.00  0.00    +0.161 C 
ATOM     27  O   UNL     1       0.266  24.252  20.992  0.00  0.00    -0.292 OA
ATOM     28  C   UNL     1      -1.850  23.524  21.767  0.00  0.00    -0.023 C 
ATOM     29  C   UNL     1      -1.540  23.695  23.062  0.00  0.00    -0.078 C 
ATOM     30  C   UNL     1      -2.467  23.337  24.190  0.00  0.00    -0.008 C 
ATOM     31  C   UNL     1      -1.975  22.117  24.984  0.00  0.00    +0.069 C 
ATOM     32  C   UNL     1      -0.736  22.424  25.824  0.00  0.00    +0.071 C 
ATOM     33  C   UNL     1      -0.065  21.123  26.154  0.00  0.00    +0.310 C 
ATOM     34  O   UNL     1       0.378  20.370  25.298  0.00  0.00    -0.251 OA
ATOM     35  O   UNL     1      -0.060  20.893  27.491  0.00  0.00    -0.461 OA
ATOM     36  C   UNL     1       0.155  19.525  27.928  0.00  0.00    +0.110 C 
ATOM     37  H   UNL     1      -1.733  19.716  28.961  0.00  0.00    +0.036 HD
ATOM     38  H   UNL     1       0.126  17.565  30.091  0.00  0.00    +0.060 HD
ATOM     39  H   UNL     1      -0.415  16.593  28.024  0.00  0.00    +0.033 HD
ATOM     40  H   UNL     1      -1.619  15.924  29.094  0.00  0.00    +0.033 HD
ATOM     41  H   UNL     1      -2.071  17.341  26.620  0.00  0.00    +0.057 HD
ATOM     42  H   UNL     1      -3.970  17.603  29.030  0.00  0.00    +0.067 HD
ATOM     43  H   UNL     1      -7.491  18.208  25.803  0.00  0.00    +0.105 HD
ATOM     44  H   UNL     1      -7.015  19.496  20.884  0.00  0.00    +0.105 HD
ATOM     45  H   UNL     1      -3.694  21.129  17.448  0.00  0.00    +0.105 HD
ATOM     46  H   UNL     1      -0.444  21.390  19.799  0.00  0.00    +0.067 HD
ATOM     47  H   UNL     1      -0.292  23.764  18.689  0.00  0.00    +0.041 HD
ATOM     48  H   UNL     1      -2.817  23.141  21.469  0.00  0.00    +0.065 HD
ATOM     49  H   UNL     1      -0.558  24.080  23.330  0.00  0.00    +0.057 HD
ATOM     50  H   UNL     1      -2.588  24.200  24.855  0.00  0.00    +0.033 HD
ATOM     51  H   UNL     1      -3.474  23.124  23.803  0.00  0.00    +0.033 HD
ATOM     52  H   UNL     1      -1.789  21.286  24.292  0.00  0.00    +0.060 HD
ATOM     53  H   UNL     1       0.011  23.024  25.289  0.00  0.00    +0.040 HD
ATOM     54  H   UNL     1      -0.996  22.961  26.746  0.00  0.00    +0.040 HD
ATOM     55  H   UNL     1      -0.249  18.865  27.159  0.00  0.00    +0.074 HD
BRANCH   4  56
ATOM     56  C   UNL     1      -0.246  20.276  30.337  0.00  0.00    -0.057 C 
ATOM     57  H   UNL     1      -1.046  20.949  30.657  0.00  0.00    +0.023 HD
ATOM     58  H   UNL     1       0.603  20.886  30.024  0.00  0.00    +0.023 HD
ATOM     59  H   UNL     1       0.059  19.700  31.216  0.00  0.00    +0.023 HD
ENDBRANCH   4  56
BRANCH  25  60
ATOM     60  C   UNL     1      -2.358  24.119  18.718  0.00  0.00    -0.053 C 
ATOM     61  H   UNL     1      -2.824  24.779  19.457  0.00  0.00    +0.024 HD
ATOM     62  H   UNL     1      -3.113  23.412  18.356  0.00  0.00    +0.024 HD
ATOM     63  H   UNL     1      -2.056  24.751  17.872  0.00  0.00    +0.024 HD
ENDBRANCH  25  60
BRANCH  31  64
ATOM     64  O   UNL     1      -3.018  21.706  25.874  0.00  0.00    -0.391 OA
ATOM     65  H   UNL     1      -3.164  20.749  25.714  0.00  0.00    +0.210 HD
ENDBRANCH  31  64
BRANCH  24  66
ATOM     66  O   UNL     1      -0.732  21.532  17.750  0.00  0.00    -0.373 OA
BRANCH  66  67
ATOM     67  C   UNL     1       0.584  22.002  17.479  0.00  0.00    +0.037 C 
ATOM     68  H   UNL     1       1.100  22.278  18.403  0.00  0.00    +0.052 HD
ATOM     69  H   UNL     1       1.159  21.240  16.942  0.00  0.00    +0.052 HD
ATOM     70  H   UNL     1       0.508  22.890  16.845  0.00  0.00    +0.052 HD
ENDBRANCH  66  67
ENDBRANCH  24  66
BRANCH   5  71
ATOM     71  O   UNL     1      -1.798  17.865  30.785  0.00  0.00    -0.379 OA
BRANCH  71  72
ATOM     72  C   UNL     1      -1.433  16.958  31.818  0.00  0.00    +0.037 C 
ATOM     73  H   UNL     1      -0.650  17.372  32.459  0.00  0.00    +0.052 HD
ATOM     74  H   UNL     1      -1.054  16.045  31.348  0.00  0.00    +0.052 HD
ATOM     75  H   UNL     1      -2.311  16.698  32.420  0.00  0.00    +0.052 HD
ENDBRANCH  71  72
ENDBRANCH   5  71
ENDBRANCH   1  36
BRANCH   1  76
ATOM     76  C   UNL     1       2.225  18.098  27.340  0.00  0.00    +0.064 C 
ATOM     77  H   UNL     1       1.406  17.480  26.957  0.00  0.00    +0.060 HD
BRANCH  76  78
ATOM     78  C   UNL     1       3.112  18.560  26.151  0.00  0.00    -0.017 C 
ATOM     79  H   UNL     1       2.448  18.766  25.311  0.00  0.00    +0.032 HD
BRANCH  78  80
ATOM     80  C   UNL     1       3.789  19.900  26.529  0.00  0.00    -0.060 C 
ATOM     81  H   UNL     1       3.537  20.683  25.804  0.00  0.00    +0.023 HD
ATOM     82  H   UNL     1       3.453  20.256  27.507  0.00  0.00    +0.023 HD
ATOM     83  H   UNL     1       4.878  19.795  26.551  0.00  0.00    +0.023 HD
ENDBRANCH  78  80
BRANCH  78  84
ATOM     84  C   UNL     1       4.235  17.606  25.708  0.00  0.00    -0.045 C 
ATOM     85  H   UNL     1       4.951  17.506  26.538  0.00  0.00    +0.027 HD
ATOM     86  H   UNL     1       3.815  16.595  25.576  0.00  0.00    +0.027 HD
BRANCH  84  87
ATOM     87  C   UNL     1       5.093  17.938  24.476  0.00  0.00    -0.015 C 
ATOM     88  H   UNL     1       4.490  18.669  23.926  0.00  0.00    +0.030 HD
ATOM     89  H   UNL     1       5.993  18.484  24.781  0.00  0.00    +0.030 HD
BRANCH  87  90
ATOM     90  C   UNL     1       5.500  16.817  23.489  0.00  0.00    +0.109 C 
ATOM     91  H   UNL     1       5.855  17.307  22.574  0.00  0.00    +0.074 HD
BRANCH  90  92
ATOM     92  C   UNL     1       4.282  15.880  23.159  0.00  0.00    +0.031 C 
ATOM     93  H   UNL     1       3.375  16.388  23.509  0.00  0.00    +0.037 HD
BRANCH  92  94
ATOM     94  C   UNL     1       4.312  14.577  23.981  0.00  0.00    -0.056 C 
ATOM     95  H   UNL     1       5.260  14.459  24.507  0.00  0.00    +0.023 HD
ATOM     96  H   UNL     1       4.142  13.701  23.350  0.00  0.00    +0.023 HD
ATOM     97  H   UNL     1       3.536  14.588  24.757  0.00  0.00    +0.023 HD
ENDBRANCH  92  94
BRANCH  92  98
ATOM     98  C   UNL     1       4.107  15.481  21.657  0.00  0.00    +0.115 C 
ATOM     99  H   UNL     1       5.091  15.192  21.259  0.00  0.00    +0.074 HD
BRANCH  98 100
ATOM    100  C   UNL     1       3.199  14.244  21.385  0.00  0.00    +0.013 C 
ATOM    101  H   UNL     1       3.122  13.633  22.287  0.00  0.00    +0.038 HD
BRANCH 100 102
ATOM    102  C   UNL     1       3.748  13.367  20.251  0.00  0.00    -0.056 C 
ATOM    103  H   UNL     1       3.162  12.444  20.135  0.00  0.00    +0.024 HD
ATOM    104  H   UNL     1       3.725  13.897  19.287  0.00  0.00    +0.024 HD
ATOM    105  H   UNL     1       4.781  13.066  20.444  0.00  0.00    +0.024 HD
ENDBRANCH 100 102
BRANCH 100 106
ATOM    106  C   UNL     1       1.792  14.675  21.000  0.00  0.00    -0.064 C 
ATOM    107  C   UNL     1       1.329  14.647  19.742  0.00  0.00    -0.005 C 
ATOM    108  H   UNL     1       1.168  15.035  21.816  0.00  0.00    +0.059 HD
ATOM    109  H   UNL     1       2.003  14.312  18.955  0.00  0.00    +0.078 HD
BRANCH 107 110
ATOM    110  N   UNL     1       0.073  15.025  19.297  0.00  0.00    -0.284 N 
ATOM    111  C   UNL     1      -0.292  15.202  17.962  0.00  0.00    +0.206 C 
ATOM    112  O   UNL     1       0.389  15.061  16.952  0.00  0.00    -0.279 OA
ATOM    113  H   UNL     1      -1.344  15.517  17.861  0.00  0.00    +0.126 HD
BRANCH 110 114
ATOM    114  C   UNL     1      -0.943  15.259  20.321  0.00  0.00    +0.007 C 
ATOM    115  H   UNL     1      -0.493  15.109  21.309  0.00  0.00    +0.043 HD
ATOM    116  H   UNL     1      -1.789  14.571  20.220  0.00  0.00    +0.043 HD
ATOM    117  H   UNL     1      -1.312  16.285  20.236  0.00  0.00    +0.043 HD
ENDBRANCH 110 114
ENDBRANCH 107 110
ENDBRANCH 100 106
ENDBRANCH  98 100
BRANCH  98 118
ATOM    118  O   UNL     1       3.590  16.604  20.906  0.00  0.00    -0.461 OA
BRANCH 118 119
ATOM    119  C   UNL     1       4.407  17.111  19.938  0.00  0.00    +0.304 C 
ATOM    120  O   UNL     1       4.795  16.516  18.943  0.00  0.00    -0.251 OA
BRANCH 119 121
ATOM    121  C   UNL     1       4.809  18.514  20.274  0.00  0.00    +0.033 C 
ATOM    122  H   UNL     1       5.857  18.664  20.007  0.00  0.00    +0.034 HD
ATOM    123  H   UNL     1       4.649  18.703  21.339  0.00  0.00    +0.034 HD
ATOM    124  H   UNL     1       4.185  19.215  19.714  0.00  0.00    +0.034 HD
ENDBRANCH 119 121
ENDBRANCH 118 119
ENDBRANCH  98 118
ENDBRANCH  92  98
ENDBRANCH  90  92
BRANCH  90 125
ATOM    125  O   UNL     1       6.587  16.049  24.066  0.00  0.00    -0.459 OA
BRANCH 125 126
ATOM    126  C   UNL     1       7.753  16.003  23.338  0.00  0.00    +0.339 C 
ATOM    127  O   UNL     1       7.815  16.203  22.132  0.00  0.00    -0.248 OA
BRANCH 126 128
ATOM    128  C   UNL     1       8.970  15.593  24.186  0.00  0.00    +0.178 C 
ATOM    129  H   UNL     1       9.194  14.546  23.923  0.00  0.00    +0.074 HD
BRANCH 128 130
ATOM    130  C   UNL     1      10.172  16.455  23.796  0.00  0.00    +0.084 C 
ATOM    131  H   UNL     1       9.839  17.327  23.228  0.00  0.00    +0.059 HD
ATOM    132  H   UNL     1      10.654  16.839  24.703  0.00  0.00    +0.059 HD
BRANCH 130 133
ATOM    133  O   UNL     1      11.123  15.709  23.040  0.00  0.00    -0.380 OA
BRANCH 133 134
ATOM    134  C   UNL     1      11.379  16.310  21.779  0.00  0.00    +0.037 C 
ATOM    135  H   UNL     1      11.093  17.367  21.803  0.00  0.00    +0.052 HD
ATOM    136  H   UNL     1      12.450  16.244  21.575  0.00  0.00    +0.052 HD
ATOM    137  H   UNL     1      10.834  15.796  20.980  0.00  0.00    +0.052 HD
ENDBRANCH 133 134
ENDBRANCH 130 133
ENDBRANCH 128 130
BRANCH 128 138
ATOM    138  O   UNL     1       8.802  15.699  25.602  0.00  0.00    -0.366 OA
BRANCH 138 139
ATOM    139  C   UNL     1       9.636  16.697  26.171  0.00  0.00    +0.038 C 
ATOM    140  H   UNL     1      10.231  17.144  25.369  0.00  0.00    +0.052 HD
ATOM    141  H   UNL     1      10.323  16.252  26.900  0.00  0.00    +0.052 HD
ATOM    142  H   UNL     1       9.043  17.484  26.645  0.00  0.00    +0.052 HD
ENDBRANCH 138 139
ENDBRANCH 128 138
ENDBRANCH 126 128
ENDBRANCH 125 126
ENDBRANCH  90 125
ENDBRANCH  87  90
ENDBRANCH  84  87
ENDBRANCH  78  84
ENDBRANCH  76  78
BRANCH  76 143
ATOM    143  O   UNL     1       3.089  17.343  28.211  0.00  0.00    -0.379 OA
BRANCH 143 144
ATOM    144  C   UNL     1       2.896  17.616  29.594  0.00  0.00    +0.037 C 
ATOM    145  H   UNL     1       3.878  17.634  30.079  0.00  0.00    +0.052 HD
ATOM    146  H   UNL     1       2.281  16.852  30.081  0.00  0.00    +0.052 HD
ATOM    147  H   UNL     1       2.444  18.601  29.726  0.00  0.00    +0.052 HD
ENDBRANCH 143 144
ENDBRANCH  76 143
ENDBRANCH   1  76
TORSDOF 35
ENDMDL
MODEL 5
REMARK VINA RESULT:      -5.1      3.897     10.177
REMARK  Name = Mycalolide B_conf3
REMARK  35 active torsions:
REMARK  status: ('A' for Active; 'I' for Inactive)
REMARK    1  A    between atoms: C_1  and  C_2
REMARK    2  A    between atoms: C_3  and  O_72
REMARK    3  A    between atoms: C_22  and  O_70
REMARK    4  A    between atoms: C_23  and  C_69
REMARK    5  A    between atoms: C_29  and  O_68
REMARK    6  A    between atoms: C_34  and  C_35
REMARK    7  A    between atoms: C_35  and  C_36
REMARK    8  A    between atoms: C_36  and  C_37
REMARK    9  A    between atoms: C_36  and  O_66
REMARK   10  A    between atoms: C_37  and  C_38
REMARK   11  A    between atoms: C_37  and  C_39
REMARK   12  A    between atoms: C_39  and  C_40
REMARK   13  A    between atoms: C_40  and  C_41
REMARK   14  A    between atoms: C_41  and  C_42
REMARK   15  A    between atoms: C_41  and  O_57
REMARK   16  A    between atoms: C_42  and  C_43
REMARK   17  A    between atoms: C_42  and  C_44
REMARK   18  A    between atoms: C_44  and  C_45
REMARK   19  A    between atoms: C_44  and  O_53
REMARK   20  A    between atoms: C_45  and  C_46
REMARK   21  A    between atoms: C_45  and  C_47
REMARK   22  A    between atoms: C_48  and  N_49
REMARK   23  A    between atoms: N_49  and  C_50
REMARK   24  A    between atoms: O_53  and  C_54
REMARK   25  A    between atoms: C_54  and  C_56
REMARK   26  A    between atoms: O_57  and  C_58
REMARK   27  A    between atoms: C_58  and  C_60
REMARK   28  A    between atoms: C_60  and  C_61
REMARK   29  A    between atoms: C_60  and  O_64
REMARK   30  A    between atoms: C_61  and  O_62
REMARK   31  A    between atoms: O_62  and  C_63
REMARK   32  A    between atoms: O_64  and  C_65
REMARK   33  A    between atoms: O_66  and  C_67
REMARK   34  A    between atoms: O_70  and  C_71
REMARK   35  A    between atoms: O_72  and  C_73
REMARK                            x       y       z     vdW  Elec       q    Type
REMARK                         _______ _______ _______ _____ _____    ______ ____
ROOT
ATOM      1  C   UNL     1      -7.358  11.103  19.474  0.00  0.00    +0.011 C 
ATOM      2  H   UNL     1      -7.086  10.782  20.485  0.00  0.00    +0.033 HD
ATOM      3  H   UNL     1      -7.048  12.148  19.356  0.00  0.00    +0.033 HD
ENDROOT
BRANCH   1  36
ATOM      4  C   UNL     1      -9.663  10.835  20.637  0.00  0.00    +0.020 C 
ATOM      5  C   UNL     1      -9.458   9.452  21.319  0.00  0.00    +0.068 C 
ATOM      6  C   UNL     1      -9.710   8.222  20.408  0.00  0.00    -0.008 C 
ATOM      7  C   UNL     1     -10.890   8.302  19.478  0.00  0.00    -0.077 C 
ATOM      8  C   UNL     1     -12.175   8.428  19.845  0.00  0.00    -0.003 C 
ATOM      9  C   UNL     1     -13.187   8.508  18.848  0.00  0.00    +0.220 A 
ATOM     10  N   UNL     1     -13.017   8.919  17.595  0.00  0.00    -0.205 NA
ATOM     11  C   UNL     1     -14.215   8.687  16.970  0.00  0.00    +0.164 A 
ATOM     12  C   UNL     1     -15.117   8.190  17.868  0.00  0.00    +0.125 A 
ATOM     13  O   UNL     1     -14.498   8.108  19.079  0.00  0.00    -0.443 OA
ATOM     14  C   UNL     1     -14.462   8.923  15.454  0.00  0.00    +0.250 A 
ATOM     15  N   UNL     1     -13.572   9.505  14.665  0.00  0.00    -0.203 NA
ATOM     16  C   UNL     1     -14.126   9.422  13.412  0.00  0.00    +0.164 A 
ATOM     17  C   UNL     1     -15.359   8.833  13.488  0.00  0.00    +0.125 A 
ATOM     18  O   UNL     1     -15.602   8.528  14.794  0.00  0.00    -0.442 OA
ATOM     19  C   UNL     1     -13.453   9.941  12.108  0.00  0.00    +0.249 A 
ATOM     20  N   UNL     1     -12.318  10.620  12.096  0.00  0.00    -0.210 NA
ATOM     21  C   UNL     1     -12.121  10.957  10.774  0.00  0.00    +0.109 A 
ATOM     22  C   UNL     1     -13.116  10.389  10.019  0.00  0.00    +0.118 A 
ATOM     23  O   UNL     1     -14.001   9.778  10.856  0.00  0.00    -0.442 OA
ATOM     24  C   UNL     1     -10.965  11.815  10.348  0.00  0.00    +0.113 C 
ATOM     25  C   UNL     1     -11.274  13.327  10.335  0.00  0.00    +0.051 C 
ATOM     26  C   UNL     1     -11.003  13.960  11.689  0.00  0.00    +0.161 C 
ATOM     27  O   UNL     1     -10.025  14.695  11.845  0.00  0.00    -0.292 OA
ATOM     28  C   UNL     1     -11.910  13.657  12.833  0.00  0.00    -0.023 C 
ATOM     29  C   UNL     1     -11.599  14.059  14.075  0.00  0.00    -0.078 C 
ATOM     30  C   UNL     1     -12.389  13.670  15.294  0.00  0.00    -0.008 C 
ATOM     31  C   UNL     1     -11.621  12.695  16.200  0.00  0.00    +0.069 C 
ATOM     32  C   UNL     1     -10.448  13.360  16.917  0.00  0.00    +0.071 C 
ATOM     33  C   UNL     1      -9.505  12.281  17.363  0.00  0.00    +0.310 C 
ATOM     34  O   UNL     1      -8.941  11.528  16.580  0.00  0.00    -0.251 OA
ATOM     35  O   UNL     1      -9.404  12.237  18.714  0.00  0.00    -0.461 OA
ATOM     36  C   UNL     1      -8.889  11.013  19.302  0.00  0.00    +0.110 C 
ATOM     37  H   UNL     1     -10.737  10.947  20.419  0.00  0.00    +0.036 HD
ATOM     38  H   UNL     1      -8.426   9.395  21.688  0.00  0.00    +0.060 HD
ATOM     39  H   UNL     1      -8.819   8.066  19.793  0.00  0.00    +0.033 HD
ATOM     40  H   UNL     1      -9.816   7.312  21.010  0.00  0.00    +0.033 HD
ATOM     41  H   UNL     1     -10.645   8.263  18.413  0.00  0.00    +0.057 HD
ATOM     42  H   UNL     1     -12.470   8.448  20.886  0.00  0.00    +0.067 HD
ATOM     43  H   UNL     1     -16.149   7.878  17.833  0.00  0.00    +0.105 HD
ATOM     44  H   UNL     1     -16.130   8.570  12.774  0.00  0.00    +0.105 HD
ATOM     45  H   UNL     1     -13.352  10.380   8.963  0.00  0.00    +0.105 HD
ATOM     46  H   UNL     1     -10.152  11.615  11.058  0.00  0.00    +0.067 HD
ATOM     47  H   UNL     1     -10.547  13.801   9.658  0.00  0.00    +0.041 HD
ATOM     48  H   UNL     1     -12.783  13.046  12.645  0.00  0.00    +0.065 HD
ATOM     49  H   UNL     1     -10.712  14.670  14.233  0.00  0.00    +0.057 HD
ATOM     50  H   UNL     1     -12.666  14.571  15.854  0.00  0.00    +0.033 HD
ATOM     51  H   UNL     1     -13.340  13.205  15.000  0.00  0.00    +0.033 HD
ATOM     52  H   UNL     1     -11.288  11.836  15.605  0.00  0.00    +0.060 HD
ATOM     53  H   UNL     1      -9.864  14.024  16.268  0.00  0.00    +0.040 HD
ATOM     54  H   UNL     1     -10.783  13.950  17.781  0.00  0.00    +0.040 HD
ATOM     55  H   UNL     1      -9.170  10.188  18.646  0.00  0.00    +0.074 HD
BRANCH   4  56
ATOM     56  C   UNL     1      -9.356  11.980  21.621  0.00  0.00    -0.057 C 
ATOM     57  H   UNL     1      -9.267  12.936  21.097  0.00  0.00    +0.023 HD
ATOM     58  H   UNL     1      -8.423  11.801  22.158  0.00  0.00    +0.023 HD
ATOM     59  H   UNL     1     -10.154  12.094  22.361  0.00  0.00    +0.023 HD
ENDBRANCH   4  56
BRANCH  25  60
ATOM     60  C   UNL     1     -12.638  13.723   9.771  0.00  0.00    -0.053 C 
ATOM     61  H   UNL     1     -13.018  14.658  10.196  0.00  0.00    +0.024 HD
ATOM     62  H   UNL     1     -13.376  12.933   9.951  0.00  0.00    +0.024 HD
ATOM     63  H   UNL     1     -12.564  13.873   8.686  0.00  0.00    +0.024 HD
ENDBRANCH  25  60
BRANCH  31  64
ATOM     64  O   UNL     1     -12.522  12.200  17.196  0.00  0.00    -0.391 OA
ATOM     65  H   UNL     1     -12.275  12.634  18.041  0.00  0.00    +0.210 HD
ENDBRANCH  31  64
BRANCH  24  66
ATOM     66  O   UNL     1     -10.535  11.421   9.029  0.00  0.00    -0.373 OA
BRANCH  66  67
ATOM     67  C   UNL     1      -9.690  10.276   9.062  0.00  0.00    +0.037 C 
ATOM     68  H   UNL     1      -9.470   9.922   8.050  0.00  0.00    +0.052 HD
ATOM     69  H   UNL     1      -8.757  10.504   9.589  0.00  0.00    +0.052 HD
ATOM     70  H   UNL     1     -10.210   9.482   9.604  0.00  0.00    +0.052 HD
ENDBRANCH  66  67
ENDBRANCH  24  66
BRANCH   5  71
ATOM     71  O   UNL     1     -10.344   9.382  22.457  0.00  0.00    -0.379 OA
BRANCH  71  72
ATOM     72  C   UNL     1     -10.098   8.247  23.278  0.00  0.00    +0.037 C 
ATOM     73  H   UNL     1      -9.178   7.732  22.986  0.00  0.00    +0.052 HD
ATOM     74  H   UNL     1     -10.938   7.555  23.158  0.00  0.00    +0.052 HD
ATOM     75  H   UNL     1     -10.043   8.545  24.330  0.00  0.00    +0.052 HD
ENDBRANCH  71  72
ENDBRANCH   5  71
ENDBRANCH   1  36
BRANCH   1  76
ATOM     76  C   UNL     1      -6.568  10.216  18.498  0.00  0.00    +0.064 C 
ATOM     77  H   UNL     1      -7.219   9.891  17.680  0.00  0.00    +0.060 HD
BRANCH  76  78
ATOM     78  C   UNL     1      -5.319  10.922  17.902  0.00  0.00    -0.017 C 
ATOM     79  H   UNL     1      -4.488  10.745  18.586  0.00  0.00    +0.032 HD
BRANCH  78  80
ATOM     80  C   UNL     1      -4.953  10.236  16.564  0.00  0.00    -0.060 C 
ATOM     81  H   UNL     1      -4.986   9.145  16.662  0.00  0.00    +0.023 HD
ATOM     82  H   UNL     1      -5.657  10.503  15.771  0.00  0.00    +0.023 HD
ATOM     83  H   UNL     1      -3.945  10.517  16.243  0.00  0.00    +0.023 HD
ENDBRANCH  78  80
BRANCH  78  84
ATOM     84  C   UNL     1      -5.443  12.427  17.610  0.00  0.00    -0.045 C 
ATOM     85  H   UNL     1      -5.586  12.558  16.526  0.00  0.00    +0.027 HD
ATOM     86  H   UNL     1      -6.374  12.805  18.063  0.00  0.00    +0.027 HD
BRANCH  84  87
ATOM     87  C   UNL     1      -4.300  13.387  17.983  0.00  0.00    -0.015 C 
ATOM     88  H   UNL     1      -4.156  13.218  19.056  0.00  0.00    +0.030 HD
ATOM     89  H   UNL     1      -3.365  13.056  17.516  0.00  0.00    +0.030 HD
BRANCH  87  90
ATOM     90  C   UNL     1      -4.461  14.909  17.756  0.00  0.00    +0.109 C 
ATOM     91  H   UNL     1      -4.727  15.352  18.723  0.00  0.00    +0.074 HD
BRANCH  90  92
ATOM     92  C   UNL     1      -5.584  15.212  16.698  0.00  0.00    +0.031 C 
ATOM     93  H   UNL     1      -6.133  14.277  16.530  0.00  0.00    +0.037 HD
BRANCH  92  94
ATOM     94  C   UNL     1      -5.001  15.548  15.313  0.00  0.00    -0.056 C 
ATOM     95  H   UNL     1      -5.402  14.891  14.540  0.00  0.00    +0.023 HD
ATOM     96  H   UNL     1      -3.910  15.480  15.309  0.00  0.00    +0.023 HD
ATOM     97  H   UNL     1      -5.274  16.569  15.013  0.00  0.00    +0.023 HD
ENDBRANCH  92  94
BRANCH  92  98
ATOM     98  C   UNL     1      -6.592  16.348  17.071  0.00  0.00    +0.115 C 
ATOM     99  H   UNL     1      -6.963  16.800  16.139  0.00  0.00    +0.074 HD
BRANCH  98 100
ATOM    100  C   UNL     1      -7.878  15.894  17.823  0.00  0.00    +0.013 C 
ATOM    101  H   UNL     1      -8.129  14.868  17.545  0.00  0.00    +0.038 HD
BRANCH 100 102
ATOM    102  C   UNL     1      -9.081  16.791  17.498  0.00  0.00    -0.056 C 
ATOM    103  H   UNL     1      -8.836  17.528  16.720  0.00  0.00    +0.024 HD
ATOM    104  H   UNL     1      -9.937  16.200  17.138  0.00  0.00    +0.024 HD
ATOM    105  H   UNL     1      -9.408  17.354  18.378  0.00  0.00    +0.024 HD
ENDBRANCH 100 102
BRANCH 100 106
ATOM    106  C   UNL     1      -7.668  15.924  19.329  0.00  0.00    -0.064 C 
ATOM    107  C   UNL     1      -7.304  14.851  20.045  0.00  0.00    -0.005 C 
ATOM    108  H   UNL     1      -7.850  16.882  19.812  0.00  0.00    +0.059 HD
ATOM    109  H   UNL     1      -7.167  13.906  19.521  0.00  0.00    +0.078 HD
BRANCH 107 110
ATOM    110  N   UNL     1      -7.098  14.781  21.413  0.00  0.00    -0.284 N 
ATOM    111  C   UNL     1      -6.045  14.111  22.039  0.00  0.00    +0.206 C 
ATOM    112  O   UNL     1      -5.124  13.480  21.532  0.00  0.00    -0.279 OA
ATOM    113  H   UNL     1      -6.103  14.189  23.137  0.00  0.00    +0.126 HD
BRANCH 110 114
ATOM    114  C   UNL     1      -8.072  15.466  22.260  0.00  0.00    +0.007 C 
ATOM    115  H   UNL     1      -9.079  15.263  21.878  0.00  0.00    +0.043 HD
ATOM    116  H   UNL     1      -7.917  16.550  22.265  0.00  0.00    +0.043 HD
ATOM    117  H   UNL     1      -7.985  15.094  23.285  0.00  0.00    +0.043 HD
ENDBRANCH 110 114
ENDBRANCH 107 110
ENDBRANCH 100 106
ENDBRANCH  98 100
BRANCH  98 118
ATOM    118  O   UNL     1      -5.925  17.355  17.867  0.00  0.00    -0.461 OA
BRANCH 118 119
ATOM    119  C   UNL     1      -5.787  18.585  17.293  0.00  0.00    +0.304 C 
ATOM    120  O   UNL     1      -6.173  18.904  16.177  0.00  0.00    -0.251 OA
BRANCH 119 121
ATOM    121  C   UNL     1      -5.051  19.512  18.212  0.00  0.00    +0.033 C 
ATOM    122  H   UNL     1      -4.109  19.049  18.514  0.00  0.00    +0.034 HD
ATOM    123  H   UNL     1      -5.669  19.740  19.085  0.00  0.00    +0.034 HD
ATOM    124  H   UNL     1      -4.847  20.452  17.693  0.00  0.00    +0.034 HD
ENDBRANCH 119 121
ENDBRANCH 118 119
ENDBRANCH  98 118
ENDBRANCH  92  98
ENDBRANCH  90  92
BRANCH  90 125
ATOM    125  O   UNL     1      -3.191  15.460  17.318  0.00  0.00    -0.459 OA
BRANCH 125 126
ATOM    126  C   UNL     1      -2.087  15.109  18.059  0.00  0.00    +0.339 C 
ATOM    127  O   UNL     1      -1.208  14.355  17.662  0.00  0.00    -0.248 OA
BRANCH 126 128
ATOM    128  C   UNL     1      -2.110  15.700  19.479  0.00  0.00    +0.178 C 
ATOM    129  H   UNL     1      -2.572  14.937  20.126  0.00  0.00    +0.074 HD
BRANCH 128 130
ATOM    130  C   UNL     1      -0.674  15.929  19.955  0.00  0.00    +0.084 C 
ATOM    131  H   UNL     1      -0.025  16.137  19.101  0.00  0.00    +0.059 HD
ATOM    132  H   UNL     1      -0.640  16.818  20.596  0.00  0.00    +0.059 HD
BRANCH 130 133
ATOM    133  O   UNL     1      -0.184  14.807  20.685  0.00  0.00    -0.380 OA
BRANCH 133 134
ATOM    134  C   UNL     1       1.235  14.743  20.658  0.00  0.00    +0.037 C 
ATOM    135  H   UNL     1       1.659  15.635  21.131  0.00  0.00    +0.052 HD
ATOM    136  H   UNL     1       1.553  13.864  21.225  0.00  0.00    +0.052 HD
ATOM    137  H   UNL     1       1.606  14.654  19.632  0.00  0.00    +0.052 HD
ENDBRANCH 133 134
ENDBRANCH 130 133
ENDBRANCH 128 130
BRANCH 128 138
ATOM    138  O   UNL     1      -2.817  16.934  19.625  0.00  0.00    -0.366 OA
BRANCH 138 139
ATOM    139  C   UNL     1      -3.845  16.856  20.602  0.00  0.00    +0.038 C 
ATOM    140  H   UNL     1      -4.062  17.869  20.952  0.00  0.00    +0.052 HD
ATOM    141  H   UNL     1      -3.513  16.261  21.459  0.00  0.00    +0.052 HD
ATOM    142  H   UNL     1      -4.759  16.430  20.180  0.00  0.00    +0.052 HD
ENDBRANCH 138 139
ENDBRANCH 128 138
ENDBRANCH 126 128
ENDBRANCH 125 126
ENDBRANCH  90 125
ENDBRANCH  87  90
ENDBRANCH  84  87
ENDBRANCH  78  84
ENDBRANCH  76  78
BRANCH  76 143
ATOM    143  O   UNL     1      -6.070   9.094  19.250  0.00  0.00    -0.379 OA
BRANCH 143 144
ATOM    144  C   UNL     1      -6.658   7.850  18.890  0.00  0.00    +0.037 C 
ATOM    145  H   UNL     1      -5.852   7.132  18.701  0.00  0.00    +0.052 HD
ATOM    146  H   UNL     1      -7.270   7.932  17.985  0.00  0.00    +0.052 HD
ATOM    147  H   UNL     1      -7.259   7.462  19.714  0.00  0.00    +0.052 HD
ENDBRANCH 143 144
ENDBRANCH  76 143
ENDBRANCH   1  76
TORSDOF 35
ENDMDL
MODEL 6
REMARK VINA RESULT:      -5.1      4.943     10.808
REMARK  Name = Mycalolide B_conf3
REMARK  35 active torsions:
REMARK  status: ('A' for Active; 'I' for Inactive)
REMARK    1  A    between atoms: C_1  and  C_2
REMARK    2  A    between atoms: C_3  and  O_72
REMARK    3  A    between atoms: C_22  and  O_70
REMARK    4  A    between atoms: C_23  and  C_69
REMARK    5  A    between atoms: C_29  and  O_68
REMARK    6  A    between atoms: C_34  and  C_35
REMARK    7  A    between atoms: C_35  and  C_36
REMARK    8  A    between atoms: C_36  and  C_37
REMARK    9  A    between atoms: C_36  and  O_66
REMARK   10  A    between atoms: C_37  and  C_38
REMARK   11  A    between atoms: C_37  and  C_39
REMARK   12  A    between atoms: C_39  and  C_40
REMARK   13  A    between atoms: C_40  and  C_41
REMARK   14  A    between atoms: C_41  and  C_42
REMARK   15  A    between atoms: C_41  and  O_57
REMARK   16  A    between atoms: C_42  and  C_43
REMARK   17  A    between atoms: C_42  and  C_44
REMARK   18  A    between atoms: C_44  and  C_45
REMARK   19  A    between atoms: C_44  and  O_53
REMARK   20  A    between atoms: C_45  and  C_46
REMARK   21  A    between atoms: C_45  and  C_47
REMARK   22  A    between atoms: C_48  and  N_49
REMARK   23  A    between atoms: N_49  and  C_50
REMARK   24  A    between atoms: O_53  and  C_54
REMARK   25  A    between atoms: C_54  and  C_56
REMARK   26  A    between atoms: O_57  and  C_58
REMARK   27  A    between atoms: C_58  and  C_60
REMARK   28  A    between atoms: C_60  and  C_61
REMARK   29  A    between atoms: C_60  and  O_64
REMARK   30  A    between atoms: C_61  and  O_62
REMARK   31  A    between atoms: O_62  and  C_63
REMARK   32  A    between atoms: O_64  and  C_65
REMARK   33  A    between atoms: O_66  and  C_67
REMARK   34  A    between atoms: O_70  and  C_71
REMARK   35  A    between atoms: O_72  and  C_73
REMARK                            x       y       z     vdW  Elec       q    Type
REMARK                         _______ _______ _______ _____ _____    ______ ____
ROOT
ATOM      1  C   UNL     1      -7.672   8.866  16.299  0.00  0.00    +0.011 C 
ATOM      2  H   UNL     1      -7.715   9.946  16.122  0.00  0.00    +0.033 HD
ATOM      3  H   UNL     1      -7.381   8.380  15.361  0.00  0.00    +0.033 HD
ENDROOT
BRANCH   1  36
ATOM      4  C   UNL     1     -10.174   9.451  16.671  0.00  0.00    +0.020 C 
ATOM      5  C   UNL     1     -10.031  10.551  17.762  0.00  0.00    +0.068 C 
ATOM      6  C   UNL     1      -9.879  10.026  19.214  0.00  0.00    -0.008 C 
ATOM      7  C   UNL     1     -10.741   8.855  19.601  0.00  0.00    -0.077 C 
ATOM      8  C   UNL     1     -12.082   8.839  19.623  0.00  0.00    -0.003 C 
ATOM      9  C   UNL     1     -12.766   7.648  19.998  0.00  0.00    +0.220 A 
ATOM     10  N   UNL     1     -12.284   6.412  19.909  0.00  0.00    -0.205 NA
ATOM     11  C   UNL     1     -13.219   5.612  20.515  0.00  0.00    +0.164 A 
ATOM     12  C   UNL     1     -14.285   6.368  20.914  0.00  0.00    +0.125 A 
ATOM     13  O   UNL     1     -14.038   7.659  20.557  0.00  0.00    -0.443 OA
ATOM     14  C   UNL     1     -13.040   4.085  20.737  0.00  0.00    +0.250 A 
ATOM     15  N   UNL     1     -12.027   3.401  20.231  0.00  0.00    -0.203 NA
ATOM     16  C   UNL     1     -12.183   2.137  20.743  0.00  0.00    +0.164 A 
ATOM     17  C   UNL     1     -13.316   2.083  21.508  0.00  0.00    +0.125 A 
ATOM     18  O   UNL     1     -13.893   3.318  21.497  0.00  0.00    -0.442 OA
ATOM     19  C   UNL     1     -11.219   0.944  20.473  0.00  0.00    +0.249 A 
ATOM     20  N   UNL     1     -10.208   1.006  19.624  0.00  0.00    -0.210 NA
ATOM     21  C   UNL     1      -9.673  -0.265  19.618  0.00  0.00    +0.109 A 
ATOM     22  C   UNL     1     -10.342  -1.031  20.539  0.00  0.00    +0.118 A 
ATOM     23  O   UNL     1     -11.362  -0.293  21.060  0.00  0.00    -0.442 OA
ATOM     24  C   UNL     1      -8.540  -0.635  18.705  0.00  0.00    +0.113 C 
ATOM     25  C   UNL     1      -8.988  -1.183  17.334  0.00  0.00    +0.051 C 
ATOM     26  C   UNL     1      -9.188  -0.065  16.327  0.00  0.00    +0.161 C 
ATOM     27  O   UNL     1      -8.380   0.095  15.409  0.00  0.00    -0.292 OA
ATOM     28  C   UNL     1     -10.350   0.857  16.479  0.00  0.00    -0.023 C 
ATOM     29  C   UNL     1     -10.456   1.954  15.712  0.00  0.00    -0.078 C 
ATOM     30  C   UNL     1     -11.519   2.999  15.904  0.00  0.00    -0.008 C 
ATOM     31  C   UNL     1     -10.949   4.320  16.445  0.00  0.00    +0.069 C 
ATOM     32  C   UNL     1     -10.109   5.065  15.409  0.00  0.00    +0.071 C 
ATOM     33  C   UNL     1      -9.228   6.036  16.140  0.00  0.00    +0.310 C 
ATOM     34  O   UNL     1      -8.386   5.684  16.955  0.00  0.00    -0.251 OA
ATOM     35  O   UNL     1      -9.518   7.318  15.805  0.00  0.00    -0.461 OA
ATOM     36  C   UNL     1      -9.070   8.359  16.713  0.00  0.00    +0.110 C 
ATOM     37  H   UNL     1     -11.145   8.952  16.821  0.00  0.00    +0.036 HD
ATOM     38  H   UNL     1      -9.149  11.161  17.528  0.00  0.00    +0.060 HD
ATOM     39  H   UNL     1      -8.837   9.727  19.359  0.00  0.00    +0.033 HD
ATOM     40  H   UNL     1     -10.058  10.831  19.935  0.00  0.00    +0.033 HD
ATOM     41  H   UNL     1     -10.195   7.948  19.875  0.00  0.00    +0.057 HD
ATOM     42  H   UNL     1     -12.667   9.717  19.383  0.00  0.00    +0.067 HD
ATOM     43  H   UNL     1     -15.225   6.177  21.409  0.00  0.00    +0.105 HD
ATOM     44  H   UNL     1     -13.815   1.316  22.089  0.00  0.00    +0.105 HD
ATOM     45  H   UNL     1     -10.260  -2.058  20.871  0.00  0.00    +0.105 HD
ATOM     46  H   UNL     1      -7.950   0.280  18.556  0.00  0.00    +0.067 HD
ATOM     47  H   UNL     1      -8.150  -1.772  16.931  0.00  0.00    +0.041 HD
ATOM     48  H   UNL     1     -11.063   0.656  17.268  0.00  0.00    +0.065 HD
ATOM     49  H   UNL     1      -9.721   2.131  14.929  0.00  0.00    +0.057 HD
ATOM     50  H   UNL     1     -12.040   3.172  14.954  0.00  0.00    +0.033 HD
ATOM     51  H   UNL     1     -12.290   2.637  16.597  0.00  0.00    +0.033 HD
ATOM     52  H   UNL     1     -10.369   4.116  17.355  0.00  0.00    +0.060 HD
ATOM     53  H   UNL     1      -9.435   4.409  14.845  0.00  0.00    +0.040 HD
ATOM     54  H   UNL     1     -10.740   5.598  14.685  0.00  0.00    +0.040 HD
ATOM     55  H   UNL     1      -9.061   7.938  17.719  0.00  0.00    +0.074 HD
BRANCH   4  56
ATOM     56  C   UNL     1     -10.286  10.083  15.271  0.00  0.00    -0.057 C 
ATOM     57  H   UNL     1      -9.649  10.968  15.186  0.00  0.00    +0.023 HD
ATOM     58  H   UNL     1     -11.312  10.383  15.052  0.00  0.00    +0.023 HD
ATOM     59  H   UNL     1      -9.966   9.383  14.492  0.00  0.00    +0.023 HD
ENDBRANCH   4  56
BRANCH  25  60
ATOM     60  C   UNL     1     -10.164  -2.159  17.361  0.00  0.00    -0.053 C 
ATOM     61  H   UNL     1      -9.888  -3.166  17.031  0.00  0.00    +0.024 HD
ATOM     62  H   UNL     1     -10.982  -1.797  16.727  0.00  0.00    +0.024 HD
ATOM     63  H   UNL     1     -10.548  -2.253  18.385  0.00  0.00    +0.024 HD
ENDBRANCH  25  60
BRANCH  31  64
ATOM     64  O   UNL     1     -12.042   5.165  16.817  0.00  0.00    -0.391 OA
ATOM     65  H   UNL     1     -12.547   5.350  15.997  0.00  0.00    +0.210 HD
ENDBRANCH  31  64
BRANCH  24  66
ATOM     66  O   UNL     1      -7.707  -1.622  19.347  0.00  0.00    -0.373 OA
BRANCH  66  67
ATOM     67  C   UNL     1      -6.573  -1.961  18.557  0.00  0.00    +0.037 C 
ATOM     68  H   UNL     1      -6.419  -3.044  18.537  0.00  0.00    +0.052 HD
ATOM     69  H   UNL     1      -6.691  -1.582  17.536  0.00  0.00    +0.052 HD
ATOM     70  H   UNL     1      -5.692  -1.492  19.002  0.00  0.00    +0.052 HD
ENDBRANCH  66  67
ENDBRANCH  24  66
BRANCH   5  71
ATOM     71  O   UNL     1     -11.196  11.401  17.691  0.00  0.00    -0.379 OA
BRANCH  71  72
ATOM     72  C   UNL     1     -11.103  12.535  18.544  0.00  0.00    +0.037 C 
ATOM     73  H   UNL     1     -12.082  12.989  18.718  0.00  0.00    +0.052 HD
ATOM     74  H   UNL     1     -10.458  13.274  18.055  0.00  0.00    +0.052 HD
ATOM     75  H   UNL     1     -10.645  12.254  19.498  0.00  0.00    +0.052 HD
ENDBRANCH  71  72
ENDBRANCH   5  71
ENDBRANCH   1  36
BRANCH   1  76
ATOM     76  C   UNL     1      -6.585   8.633  17.362  0.00  0.00    +0.064 C 
ATOM     77  H   UNL     1      -6.051   7.702  17.149  0.00  0.00    +0.060 HD
BRANCH  76  78
ATOM     78  C   UNL     1      -5.560   9.797  17.454  0.00  0.00    -0.017 C 
ATOM     79  H   UNL     1      -4.863   9.554  18.257  0.00  0.00    +0.032 HD
BRANCH  78  80
ATOM     80  C   UNL     1      -4.738   9.839  16.143  0.00  0.00    -0.060 C 
ATOM     81  H   UNL     1      -4.168   8.912  16.010  0.00  0.00    +0.023 HD
ATOM     82  H   UNL     1      -5.386   9.939  15.267  0.00  0.00    +0.023 HD
ATOM     83  H   UNL     1      -4.031  10.674  16.151  0.00  0.00    +0.023 HD
ENDBRANCH  78  80
BRANCH  78  84
ATOM     84  C   UNL     1      -6.129  11.211  17.666  0.00  0.00    -0.045 C 
ATOM     85  H   UNL     1      -5.338  11.940  17.430  0.00  0.00    +0.027 HD
ATOM     86  H   UNL     1      -6.915  11.398  16.915  0.00  0.00    +0.027 HD
BRANCH  84  87
ATOM     87  C   UNL     1      -6.665  11.633  19.044  0.00  0.00    -0.015 C 
ATOM     88  H   UNL     1      -7.735  11.403  18.989  0.00  0.00    +0.030 HD
ATOM     89  H   UNL     1      -6.271  10.967  19.820  0.00  0.00    +0.030 HD
BRANCH  87  90
ATOM     90  C   UNL     1      -6.515  13.098  19.519  0.00  0.00    +0.109 C 
ATOM     91  H   UNL     1      -7.176  13.709  18.891  0.00  0.00    +0.074 HD
BRANCH  90  92
ATOM     92  C   UNL     1      -5.030  13.593  19.378  0.00  0.00    +0.031 C 
ATOM     93  H   UNL     1      -4.467  12.797  18.875  0.00  0.00    +0.037 HD
BRANCH  92  94
ATOM     94  C   UNL     1      -4.331  13.729  20.744  0.00  0.00    -0.056 C 
ATOM     95  H   UNL     1      -3.458  13.077  20.812  0.00  0.00    +0.023 HD
ATOM     96  H   UNL     1      -5.012  13.501  21.567  0.00  0.00    +0.023 HD
ATOM     97  H   UNL     1      -3.957  14.750  20.889  0.00  0.00    +0.023 HD
ENDBRANCH  92  94
BRANCH  92  98
ATOM     98  C   UNL     1      -4.823  14.940  18.610  0.00  0.00    +0.115 C 
ATOM     99  H   UNL     1      -5.722  15.558  18.749  0.00  0.00    +0.074 HD
BRANCH  98 100
ATOM    100  C   UNL     1      -3.652  15.835  19.115  0.00  0.00    +0.013 C 
ATOM    101  H   UNL     1      -3.426  15.599  20.157  0.00  0.00    +0.038 HD
BRANCH 100 102
ATOM    102  C   UNL     1      -3.989  17.330  19.019  0.00  0.00    -0.056 C 
ATOM    103  H   UNL     1      -5.070  17.494  18.907  0.00  0.00    +0.024 HD
ATOM    104  H   UNL     1      -3.663  17.873  19.919  0.00  0.00    +0.024 HD
ATOM    105  H   UNL     1      -3.505  17.793  18.154  0.00  0.00    +0.024 HD
ENDBRANCH 100 102
BRANCH 100 106
ATOM    106  C   UNL     1      -2.390  15.590  18.303  0.00  0.00    -0.064 C 
ATOM    107  C   UNL     1      -1.327  14.922  18.775  0.00  0.00    -0.005 C 
ATOM    108  H   UNL     1      -2.384  16.009  17.300  0.00  0.00    +0.059 HD
ATOM    109  H   UNL     1      -1.366  14.551  19.799  0.00  0.00    +0.078 HD
BRANCH 107 110
ATOM    110  N   UNL     1      -0.137  14.658  18.116  0.00  0.00    -0.284 N 
ATOM    111  C   UNL     1       0.972  14.021  18.676  0.00  0.00    +0.206 C 
ATOM    112  O   UNL     1       1.116  13.578  19.810  0.00  0.00    -0.279 OA
ATOM    113  H   UNL     1       1.804  13.936  17.957  0.00  0.00    +0.126 HD
BRANCH 110 114
ATOM    114  C   UNL     1      -0.048  15.090  16.724  0.00  0.00    +0.007 C 
ATOM    115  H   UNL     1      -1.037  14.997  16.259  0.00  0.00    +0.043 HD
ATOM    116  H   UNL     1       0.660  14.480  16.152  0.00  0.00    +0.043 HD
ATOM    117  H   UNL     1       0.279  16.133  16.689  0.00  0.00    +0.043 HD
ENDBRANCH 110 114
ENDBRANCH 107 110
ENDBRANCH 100 106
ENDBRANCH  98 100
BRANCH  98 118
ATOM    118  O   UNL     1      -4.627  14.678  17.201  0.00  0.00    -0.461 OA
BRANCH 118 119
ATOM    119  C   UNL     1      -5.597  15.141  16.360  0.00  0.00    +0.304 C 
ATOM    120  O   UNL     1      -6.789  15.225  16.617  0.00  0.00    -0.251 OA
BRANCH 119 121
ATOM    121  C   UNL     1      -5.005  15.510  15.033  0.00  0.00    +0.033 C 
ATOM    122  H   UNL     1      -4.674  14.605  14.521  0.00  0.00    +0.034 HD
ATOM    123  H   UNL     1      -4.172  16.203  15.177  0.00  0.00    +0.034 HD
ATOM    124  H   UNL     1      -5.761  16.018  14.428  0.00  0.00    +0.034 HD
ENDBRANCH 119 121
ENDBRANCH 118 119
ENDBRANCH  98 118
ENDBRANCH  92  98
ENDBRANCH  90  92
BRANCH  90 125
ATOM    125  O   UNL     1      -6.952  13.195  20.899  0.00  0.00    -0.459 OA
BRANCH 125 126
ATOM    126  C   UNL     1      -8.132  13.867  21.119  0.00  0.00    +0.339 C 
ATOM    127  O   UNL     1      -8.595  14.703  20.353  0.00  0.00    -0.248 OA
BRANCH 126 128
ATOM    128  C   UNL     1      -8.774  13.518  22.472  0.00  0.00    +0.178 C 
ATOM    129  H   UNL     1      -9.329  14.415  22.793  0.00  0.00    +0.074 HD
BRANCH 128 130
ATOM    130  C   UNL     1      -9.774  12.377  22.278  0.00  0.00    +0.084 C 
ATOM    131  H   UNL     1     -10.794  12.746  22.408  0.00  0.00    +0.059 HD
ATOM    132  H   UNL     1      -9.706  12.005  21.248  0.00  0.00    +0.059 HD
BRANCH 130 133
ATOM    133  O   UNL     1      -9.519  11.304  23.180  0.00  0.00    -0.380 OA
BRANCH 133 134
ATOM    134  C   UNL     1     -10.487  10.271  23.055  0.00  0.00    +0.037 C 
ATOM    135  H   UNL     1     -10.825   9.952  24.046  0.00  0.00    +0.052 HD
ATOM    136  H   UNL     1     -11.345  10.667  22.505  0.00  0.00    +0.052 HD
ATOM    137  H   UNL     1     -10.081   9.415  22.507  0.00  0.00    +0.052 HD
ENDBRANCH 133 134
ENDBRANCH 130 133
ENDBRANCH 128 130
BRANCH 128 138
ATOM    138  O   UNL     1      -7.866  13.128  23.506  0.00  0.00    -0.366 OA
BRANCH 138 139
ATOM    139  C   UNL     1      -7.511  14.214  24.350  0.00  0.00    +0.038 C 
ATOM    140  H   UNL     1      -7.878  13.998  25.358  0.00  0.00    +0.052 HD
ATOM    141  H   UNL     1      -7.984  15.139  24.003  0.00  0.00    +0.052 HD
ATOM    142  H   UNL     1      -6.426  14.340  24.394  0.00  0.00    +0.052 HD
ENDBRANCH 138 139
ENDBRANCH 128 138
ENDBRANCH 126 128
ENDBRANCH 125 126
ENDBRANCH  90 125
ENDBRANCH  87  90
ENDBRANCH  84  87
ENDBRANCH  78  84
ENDBRANCH  76  78
BRANCH  76 143
ATOM    143  O   UNL     1      -7.244   8.582  18.641  0.00  0.00    -0.379 OA
BRANCH 143 144
ATOM    144  C   UNL     1      -6.739   7.576  19.511  0.00  0.00    +0.037 C 
ATOM    145  H   UNL     1      -5.650   7.535  19.390  0.00  0.00    +0.052 HD
ATOM    146  H   UNL     1      -7.151   6.587  19.280  0.00  0.00    +0.052 HD
ATOM    147  H   UNL     1      -6.946   7.834  20.551  0.00  0.00    +0.052 HD
ENDBRANCH 143 144
ENDBRANCH  76 143
ENDBRANCH   1  76
TORSDOF 35
ENDMDL
MODEL 7
REMARK VINA RESULT:      -5.1      9.909     14.805
REMARK  Name = Mycalolide B_conf3
REMARK  35 active torsions:
REMARK  status: ('A' for Active; 'I' for Inactive)
REMARK    1  A    between atoms: C_1  and  C_2
REMARK    2  A    between atoms: C_3  and  O_72
REMARK    3  A    between atoms: C_22  and  O_70
REMARK    4  A    between atoms: C_23  and  C_69
REMARK    5  A    between atoms: C_29  and  O_68
REMARK    6  A    between atoms: C_34  and  C_35
REMARK    7  A    between atoms: C_35  and  C_36
REMARK    8  A    between atoms: C_36  and  C_37
REMARK    9  A    between atoms: C_36  and  O_66
REMARK   10  A    between atoms: C_37  and  C_38
REMARK   11  A    between atoms: C_37  and  C_39
REMARK   12  A    between atoms: C_39  and  C_40
REMARK   13  A    between atoms: C_40  and  C_41
REMARK   14  A    between atoms: C_41  and  C_42
REMARK   15  A    between atoms: C_41  and  O_57
REMARK   16  A    between atoms: C_42  and  C_43
REMARK   17  A    between atoms: C_42  and  C_44
REMARK   18  A    between atoms: C_44  and  C_45
REMARK   19  A    between atoms: C_44  and  O_53
REMARK   20  A    between atoms: C_45  and  C_46
REMARK   21  A    between atoms: C_45  and  C_47
REMARK   22  A    between atoms: C_48  and  N_49
REMARK   23  A    between atoms: N_49  and  C_50
REMARK   24  A    between atoms: O_53  and  C_54
REMARK   25  A    between atoms: C_54  and  C_56
REMARK   26  A    between atoms: O_57  and  C_58
REMARK   27  A    between atoms: C_58  and  C_60
REMARK   28  A    between atoms: C_60  and  C_61
REMARK   29  A    between atoms: C_60  and  O_64
REMARK   30  A    between atoms: C_61  and  O_62
REMARK   31  A    between atoms: O_62  and  C_63
REMARK   32  A    between atoms: O_64  and  C_65
REMARK   33  A    between atoms: O_66  and  C_67
REMARK   34  A    between atoms: O_70  and  C_71
REMARK   35  A    between atoms: O_72  and  C_73
REMARK                            x       y       z     vdW  Elec       q    Type
REMARK                         _______ _______ _______ _____ _____    ______ ____
ROOT
ATOM      1  C   UNL     1       3.274  19.201  27.529  0.00  0.00    +0.011 C 
ATOM      2  H   UNL     1       3.334  19.068  28.615  0.00  0.00    +0.033 HD
ATOM      3  H   UNL     1       4.160  19.760  27.208  0.00  0.00    +0.033 HD
ENDROOT
BRANCH   1  36
ATOM      4  C   UNL     1       1.120  20.351  28.411  0.00  0.00    +0.020 C 
ATOM      5  C   UNL     1       0.394  19.120  29.026  0.00  0.00    +0.068 C 
ATOM      6  C   UNL     1      -0.410  18.256  28.021  0.00  0.00    -0.008 C 
ATOM      7  C   UNL     1      -1.194  18.996  26.971  0.00  0.00    -0.077 C 
ATOM      8  C   UNL     1      -2.200  19.855  27.200  0.00  0.00    -0.003 C 
ATOM      9  C   UNL     1      -2.841  20.496  26.103  0.00  0.00    +0.220 A 
ATOM     10  N   UNL     1      -2.308  20.709  24.904  0.00  0.00    -0.205 NA
ATOM     11  C   UNL     1      -3.327  21.211  24.136  0.00  0.00    +0.164 A 
ATOM     12  C   UNL     1      -4.454  21.350  24.897  0.00  0.00    +0.125 A 
ATOM     13  O   UNL     1      -4.156  20.943  26.162  0.00  0.00    -0.443 OA
ATOM     14  C   UNL     1      -3.197  21.523  22.620  0.00  0.00    +0.250 A 
ATOM     15  N   UNL     1      -2.045  21.461  21.971  0.00  0.00    -0.203 NA
ATOM     16  C   UNL     1      -2.381  21.697  20.662  0.00  0.00    +0.164 A 
ATOM     17  C   UNL     1      -3.723  21.942  20.564  0.00  0.00    +0.125 A 
ATOM     18  O   UNL     1      -4.261  21.858  21.814  0.00  0.00    -0.442 OA
ATOM     19  C   UNL     1      -1.374  21.703  19.474  0.00  0.00    +0.249 A 
ATOM     20  N   UNL     1      -0.066  21.590  19.630  0.00  0.00    -0.210 NA
ATOM     21  C   UNL     1       0.455  21.727  18.361  0.00  0.00    +0.109 A 
ATOM     22  C   UNL     1      -0.581  21.836  17.467  0.00  0.00    +0.118 A 
ATOM     23  O   UNL     1      -1.752  21.871  18.161  0.00  0.00    -0.442 OA
ATOM     24  C   UNL     1       1.936  21.740  18.118  0.00  0.00    +0.113 C 
ATOM     25  C   UNL     1       2.570  23.146  18.163  0.00  0.00    +0.051 C 
ATOM     26  C   UNL     1       2.986  23.523  19.574  0.00  0.00    +0.161 C 
ATOM     27  O   UNL     1       4.180  23.550  19.882  0.00  0.00    -0.292 OA
ATOM     28  C   UNL     1       1.937  23.826  20.589  0.00  0.00    -0.023 C 
ATOM     29  C   UNL     1       2.265  23.991  21.880  0.00  0.00    -0.078 C 
ATOM     30  C   UNL     1       1.251  24.157  22.978  0.00  0.00    -0.008 C 
ATOM     31  C   UNL     1       1.187  22.932  23.904  0.00  0.00    +0.069 C 
ATOM     32  C   UNL     1       2.426  22.797  24.786  0.00  0.00    +0.071 C 
ATOM     33  C   UNL     1       2.499  21.377  25.267  0.00  0.00    +0.310 C 
ATOM     34  O   UNL     1       2.613  20.425  24.508  0.00  0.00    -0.251 OA
ATOM     35  O   UNL     1       2.385  21.305  26.617  0.00  0.00    -0.461 OA
ATOM     36  C   UNL     1       2.013  20.021  27.183  0.00  0.00    +0.110 C 
ATOM     37  H   UNL     1       0.349  21.067  28.081  0.00  0.00    +0.036 HD
ATOM     38  H   UNL     1       1.144  18.477  29.504  0.00  0.00    +0.060 HD
ATOM     39  H   UNL     1       0.292  17.598  27.500  0.00  0.00    +0.033 HD
ATOM     40  H   UNL     1      -1.100  17.590  28.551  0.00  0.00    +0.033 HD
ATOM     41  H   UNL     1      -0.886  18.803  25.940  0.00  0.00    +0.057 HD
ATOM     42  H   UNL     1      -2.557  20.061  28.201  0.00  0.00    +0.067 HD
ATOM     43  H   UNL     1      -5.461  21.701  24.728  0.00  0.00    +0.105 HD
ATOM     44  H   UNL     1      -4.406  22.168  19.754  0.00  0.00    +0.105 HD
ATOM     45  H   UNL     1      -0.643  21.949  16.392  0.00  0.00    +0.105 HD
ATOM     46  H   UNL     1       2.384  21.113  18.902  0.00  0.00    +0.067 HD
ATOM     47  H   UNL     1       3.515  23.094  17.601  0.00  0.00    +0.041 HD
ATOM     48  H   UNL     1       0.904  23.839  20.268  0.00  0.00    +0.065 HD
ATOM     49  H   UNL     1       3.313  23.970  22.172  0.00  0.00    +0.057 HD
ATOM     50  H   UNL     1       1.482  25.059  23.557  0.00  0.00    +0.033 HD
ATOM     51  H   UNL     1       0.253  24.331  22.552  0.00  0.00    +0.033 HD
ATOM     52  H   UNL     1       1.029  22.031  23.298  0.00  0.00    +0.060 HD
ATOM     53  H   UNL     1       3.363  22.983  24.246  0.00  0.00    +0.040 HD
ATOM     54  H   UNL     1       2.391  23.485  25.641  0.00  0.00    +0.040 HD
ATOM     55  H   UNL     1       1.389  19.505  26.452  0.00  0.00    +0.074 HD
BRANCH   4  56
ATOM     56  C   UNL     1       1.909  21.116  29.490  0.00  0.00    -0.057 C 
ATOM     57  H   UNL     1       2.631  20.461  29.987  0.00  0.00    +0.023 HD
ATOM     58  H   UNL     1       1.244  21.526  30.252  0.00  0.00    +0.023 HD
ATOM     59  H   UNL     1       2.477  21.944  29.055  0.00  0.00    +0.023 HD
ENDBRANCH   4  56
BRANCH  25  60
ATOM     60  C   UNL     1       1.775  24.255  17.475  0.00  0.00    -0.053 C 
ATOM     61  H   UNL     1       2.415  25.042  17.062  0.00  0.00    +0.024 HD
ATOM     62  H   UNL     1       1.066  24.714  18.173  0.00  0.00    +0.024 HD
ATOM     63  H   UNL     1       1.201  23.839  16.637  0.00  0.00    +0.024 HD
ENDBRANCH  25  60
BRANCH  31  64
ATOM     64  O   UNL     1       0.050  23.074  24.761  0.00  0.00    -0.391 OA
ATOM     65  H   UNL     1      -0.435  23.872  24.459  0.00  0.00    +0.210 HD
ENDBRANCH  31  64
BRANCH  24  66
ATOM     66  O   UNL     1       2.218  21.147  16.834  0.00  0.00    -0.373 OA
BRANCH  66  67
ATOM     67  C   UNL     1       3.616  21.087  16.568  0.00  0.00    +0.037 C 
ATOM     68  H   UNL     1       4.121  21.991  16.921  0.00  0.00    +0.052 HD
ATOM     69  H   UNL     1       4.057  20.202  17.040  0.00  0.00    +0.052 HD
ATOM     70  H   UNL     1       3.756  21.010  15.487  0.00  0.00    +0.052 HD
ENDBRANCH  66  67
ENDBRANCH  24  66
BRANCH   5  71
ATOM     71  O   UNL     1      -0.501  19.601  30.052  0.00  0.00    -0.379 OA
BRANCH  71  72
ATOM     72  C   UNL     1      -1.177  18.548  30.731  0.00  0.00    +0.037 C 
ATOM     73  H   UNL     1      -2.258  18.709  30.747  0.00  0.00    +0.052 HD
ATOM     74  H   UNL     1      -0.812  18.523  31.763  0.00  0.00    +0.052 HD
ATOM     75  H   UNL     1      -0.948  17.587  30.259  0.00  0.00    +0.052 HD
ENDBRANCH  71  72
ENDBRANCH   5  71
ENDBRANCH   1  36
BRANCH   1  76
ATOM     76  C   UNL     1       3.294  17.796  26.906  0.00  0.00    +0.064 C 
ATOM     77  H   UNL     1       2.315  17.566  26.475  0.00  0.00    +0.060 HD
BRANCH  76  78
ATOM     78  C   UNL     1       4.385  17.627  25.812  0.00  0.00    -0.017 C 
ATOM     79  H   UNL     1       3.891  17.722  24.844  0.00  0.00    +0.032 HD
BRANCH  78  80
ATOM     80  C   UNL     1       5.385  18.802  25.925  0.00  0.00    -0.060 C 
ATOM     81  H   UNL     1       6.282  18.501  26.479  0.00  0.00    +0.023 HD
ATOM     82  H   UNL     1       5.722  19.138  24.940  0.00  0.00    +0.023 HD
ATOM     83  H   UNL     1       4.934  19.651  26.447  0.00  0.00    +0.023 HD
ENDBRANCH  78  80
BRANCH  78  84
ATOM     84  C   UNL     1       5.214  16.333  25.850  0.00  0.00    -0.045 C 
ATOM     85  H   UNL     1       6.134  16.528  26.424  0.00  0.00    +0.027 HD
ATOM     86  H   UNL     1       4.672  15.575  26.441  0.00  0.00    +0.027 HD
BRANCH  84  87
ATOM     87  C   UNL     1       5.689  15.676  24.543  0.00  0.00    -0.015 C 
ATOM     88  H   UNL     1       6.781  15.744  24.598  0.00  0.00    +0.030 HD
ATOM     89  H   UNL     1       5.470  14.602  24.561  0.00  0.00    +0.030 HD
BRANCH  87  90
ATOM     90  C   UNL     1       5.243  16.253  23.178  0.00  0.00    +0.109 C 
ATOM     91  H   UNL     1       5.054  17.324  23.328  0.00  0.00    +0.074 HD
BRANCH  90  92
ATOM     92  C   UNL     1       3.939  15.544  22.660  0.00  0.00    +0.031 C 
ATOM     93  H   UNL     1       3.084  16.071  23.100  0.00  0.00    +0.037 HD
BRANCH  92  94
ATOM     94  C   UNL     1       3.804  14.109  23.202  0.00  0.00    -0.056 C 
ATOM     95  H   UNL     1       4.487  13.931  24.034  0.00  0.00    +0.023 HD
ATOM     96  H   UNL     1       3.991  13.366  22.422  0.00  0.00    +0.023 HD
ATOM     97  H   UNL     1       2.795  13.935  23.597  0.00  0.00    +0.023 HD
ENDBRANCH  92  94
BRANCH  92  98
ATOM     98  C   UNL     1       3.764  15.476  21.107  0.00  0.00    +0.115 C 
ATOM     99  H   UNL     1       4.754  15.323  20.654  0.00  0.00    +0.074 HD
BRANCH  98 100
ATOM    100  C   UNL     1       2.903  14.292  20.573  0.00  0.00    +0.013 C 
ATOM    101  H   UNL     1       2.736  13.564  21.370  0.00  0.00    +0.038 HD
BRANCH 100 102
ATOM    102  C   UNL     1       3.580  13.575  19.396  0.00  0.00    -0.056 C 
ATOM    103  H   UNL     1       3.890  12.556  19.668  0.00  0.00    +0.024 HD
ATOM    104  H   UNL     1       2.902  13.496  18.532  0.00  0.00    +0.024 HD
ATOM    105  H   UNL     1       4.479  14.105  19.070  0.00  0.00    +0.024 HD
ENDBRANCH 100 102
BRANCH 100 106
ATOM    106  C   UNL     1       1.541  14.778  20.101  0.00  0.00    -0.064 C 
ATOM    107  C   UNL     1       1.024  14.472  18.902  0.00  0.00    -0.005 C 
ATOM    108  H   UNL     1       1.001  15.417  20.796  0.00  0.00    +0.059 HD
ATOM    109  H   UNL     1       1.618  13.858  18.227  0.00  0.00    +0.078 HD
BRANCH 107 110
ATOM    110  N   UNL     1      -0.198  14.873  18.385  0.00  0.00    -0.284 N 
ATOM    111  C   UNL     1      -1.360  15.082  19.129  0.00  0.00    +0.206 C 
ATOM    112  O   UNL     1      -1.534  14.967  20.337  0.00  0.00    -0.279 OA
ATOM    113  H   UNL     1      -2.207  15.386  18.491  0.00  0.00    +0.126 HD
BRANCH 110 114
ATOM    114  C   UNL     1      -0.261  15.087  16.941  0.00  0.00    +0.007 C 
ATOM    115  H   UNL     1       0.485  15.839  16.660  0.00  0.00    +0.043 HD
ATOM    116  H   UNL     1      -1.247  15.443  16.625  0.00  0.00    +0.043 HD
ATOM    117  H   UNL     1      -0.047  14.145  16.427  0.00  0.00    +0.043 HD
ENDBRANCH 110 114
ENDBRANCH 107 110
ENDBRANCH 100 106
ENDBRANCH  98 100
BRANCH  98 118
ATOM    118  O   UNL     1       3.194  16.714  20.621  0.00  0.00    -0.461 OA
BRANCH 118 119
ATOM    119  C   UNL     1       4.008  17.492  19.850  0.00  0.00    +0.304 C 
ATOM    120  O   UNL     1       4.858  17.088  19.070  0.00  0.00    -0.251 OA
BRANCH 119 121
ATOM    121  C   UNL     1       3.745  18.944  20.113  0.00  0.00    +0.033 C 
ATOM    122  H   UNL     1       4.628  19.394  20.571  0.00  0.00    +0.034 HD
ATOM    123  H   UNL     1       2.872  19.053  20.761  0.00  0.00    +0.034 HD
ATOM    124  H   UNL     1       3.525  19.449  19.169  0.00  0.00    +0.034 HD
ENDBRANCH 119 121
ENDBRANCH 118 119
ENDBRANCH  98 118
ENDBRANCH  92  98
ENDBRANCH  90  92
BRANCH  90 125
ATOM    125  O   UNL     1       6.321  16.094  22.221  0.00  0.00    -0.459 OA
BRANCH 125 126
ATOM    126  C   UNL     1       7.171  17.165  22.077  0.00  0.00    +0.339 C 
ATOM    127  O   UNL     1       6.831  18.252  21.627  0.00  0.00    -0.248 OA
BRANCH 126 128
ATOM    128  C   UNL     1       8.621  16.832  22.467  0.00  0.00    +0.178 C 
ATOM    129  H   UNL     1       9.267  17.375  21.757  0.00  0.00    +0.074 HD
BRANCH 128 130
ATOM    130  C   UNL     1       8.901  17.363  23.875  0.00  0.00    +0.084 C 
ATOM    131  H   UNL     1       7.970  17.428  24.443  0.00  0.00    +0.059 HD
ATOM    132  H   UNL     1       9.544  16.655  24.410  0.00  0.00    +0.059 HD
BRANCH 130 133
ATOM    133  O   UNL     1       9.541  18.636  23.832  0.00  0.00    -0.380 OA
BRANCH 133 134
ATOM    134  C   UNL     1       8.857  19.594  24.627  0.00  0.00    +0.037 C 
ATOM    135  H   UNL     1       9.565  20.336  25.012  0.00  0.00    +0.052 HD
ATOM    136  H   UNL     1       8.124  20.106  23.998  0.00  0.00    +0.052 HD
ATOM    137  H   UNL     1       8.333  19.113  25.459  0.00  0.00    +0.052 HD
ENDBRANCH 133 134
ENDBRANCH 130 133
ENDBRANCH 128 130
BRANCH 128 138
ATOM    138  O   UNL     1       8.964  15.444  22.451  0.00  0.00    -0.366 OA
BRANCH 138 139
ATOM    139  C   UNL     1      10.315  15.217  22.827  0.00  0.00    +0.038 C 
ATOM    140  H   UNL     1      10.380  14.226  23.286  0.00  0.00    +0.052 HD
ATOM    141  H   UNL     1      10.636  15.959  23.566  0.00  0.00    +0.052 HD
ATOM    142  H   UNL     1      10.976  15.243  21.957  0.00  0.00    +0.052 HD
ENDBRANCH 138 139
ENDBRANCH 128 138
ENDBRANCH 126 128
ENDBRANCH 125 126
ENDBRANCH  90 125
ENDBRANCH  87  90
ENDBRANCH  84  87
ENDBRANCH  78  84
ENDBRANCH  76  78
BRANCH  76 143
ATOM    143  O   UNL     1       3.636  16.870  27.955  0.00  0.00    -0.379 OA
BRANCH 143 144
ATOM    144  C   UNL     1       3.808  17.479  29.229  0.00  0.00    +0.037 C 
ATOM    145  H   UNL     1       3.410  18.498  29.177  0.00  0.00    +0.052 HD
ATOM    146  H   UNL     1       4.863  17.532  29.520  0.00  0.00    +0.052 HD
ATOM    147  H   UNL     1       3.238  16.939  29.987  0.00  0.00    +0.052 HD
ENDBRANCH 143 144
ENDBRANCH  76 143
ENDBRANCH   1  76
TORSDOF 35
ENDMDL
MODEL 8
REMARK VINA RESULT:      -5.1      9.108     13.927
REMARK  Name = Mycalolide B_conf3
REMARK  35 active torsions:
REMARK  status: ('A' for Active; 'I' for Inactive)
REMARK    1  A    between atoms: C_1  and  C_2
REMARK    2  A    between atoms: C_3  and  O_72
REMARK    3  A    between atoms: C_22  and  O_70
REMARK    4  A    between atoms: C_23  and  C_69
REMARK    5  A    between atoms: C_29  and  O_68
REMARK    6  A    between atoms: C_34  and  C_35
REMARK    7  A    between atoms: C_35  and  C_36
REMARK    8  A    between atoms: C_36  and  C_37
REMARK    9  A    between atoms: C_36  and  O_66
REMARK   10  A    between atoms: C_37  and  C_38
REMARK   11  A    between atoms: C_37  and  C_39
REMARK   12  A    between atoms: C_39  and  C_40
REMARK   13  A    between atoms: C_40  and  C_41
REMARK   14  A    between atoms: C_41  and  C_42
REMARK   15  A    between atoms: C_41  and  O_57
REMARK   16  A    between atoms: C_42  and  C_43
REMARK   17  A    between atoms: C_42  and  C_44
REMARK   18  A    between atoms: C_44  and  C_45
REMARK   19  A    between atoms: C_44  and  O_53
REMARK   20  A    between atoms: C_45  and  C_46
REMARK   21  A    between atoms: C_45  and  C_47
REMARK   22  A    between atoms: C_48  and  N_49
REMARK   23  A    between atoms: N_49  and  C_50
REMARK   24  A    between atoms: O_53  and  C_54
REMARK   25  A    between atoms: C_54  and  C_56
REMARK   26  A    between atoms: O_57  and  C_58
REMARK   27  A    between atoms: C_58  and  C_60
REMARK   28  A    between atoms: C_60  and  C_61
REMARK   29  A    between atoms: C_60  and  O_64
REMARK   30  A    between atoms: C_61  and  O_62
REMARK   31  A    between atoms: O_62  and  C_63
REMARK   32  A    between atoms: O_64  and  C_65
REMARK   33  A    between atoms: O_66  and  C_67
REMARK   34  A    between atoms: O_70  and  C_71
REMARK   35  A    between atoms: O_72  and  C_73
REMARK                            x       y       z     vdW  Elec       q    Type
REMARK                         _______ _______ _______ _____ _____    ______ ____
ROOT
ATOM      1  C   UNL     1       0.935  21.893  20.013  0.00  0.00    +0.011 C 
ATOM      2  H   UNL     1       1.369  22.899  20.007  0.00  0.00    +0.033 HD
ATOM      3  H   UNL     1       0.734  21.606  18.975  0.00  0.00    +0.033 HD
ENDROOT
BRANCH   1  36
ATOM      4  C   UNL     1      -0.536  23.119  21.767  0.00  0.00    +0.020 C 
ATOM      5  C   UNL     1       0.414  23.061  22.998  0.00  0.00    +0.068 C 
ATOM      6  C   UNL     1       0.372  21.736  23.803  0.00  0.00    -0.008 C 
ATOM      7  C   UNL     1      -0.983  21.120  24.018  0.00  0.00    -0.077 C 
ATOM      8  C   UNL     1      -2.006  21.680  24.682  0.00  0.00    -0.003 C 
ATOM      9  C   UNL     1      -3.242  20.981  24.791  0.00  0.00    +0.220 A 
ATOM     10  N   UNL     1      -3.682  20.042  23.960  0.00  0.00    -0.205 NA
ATOM     11  C   UNL     1      -4.828  19.555  24.536  0.00  0.00    +0.164 A 
ATOM     12  C   UNL     1      -5.099  20.245  25.683  0.00  0.00    +0.125 A 
ATOM     13  O   UNL     1      -4.128  21.187  25.842  0.00  0.00    -0.443 OA
ATOM     14  C   UNL     1      -5.645  18.363  23.964  0.00  0.00    +0.250 A 
ATOM     15  N   UNL     1      -5.381  17.809  22.791  0.00  0.00    -0.203 NA
ATOM     16  C   UNL     1      -6.246  16.747  22.717  0.00  0.00    +0.164 A 
ATOM     17  C   UNL     1      -7.044  16.718  23.829  0.00  0.00    +0.125 A 
ATOM     18  O   UNL     1      -6.689  17.763  24.630  0.00  0.00    -0.442 OA
ATOM     19  C   UNL     1      -6.317  15.740  21.531  0.00  0.00    +0.249 A 
ATOM     20  N   UNL     1      -5.618  15.880  20.417  0.00  0.00    -0.210 NA
ATOM     21  C   UNL     1      -6.030  14.843  19.609  0.00  0.00    +0.109 A 
ATOM     22  C   UNL     1      -6.914  14.060  20.308  0.00  0.00    +0.118 A 
ATOM     23  O   UNL     1      -7.146  14.642  21.518  0.00  0.00    -0.442 OA
ATOM     24  C   UNL     1      -5.524  14.695  18.203  0.00  0.00    +0.113 C 
ATOM     25  C   UNL     1      -6.385  15.414  17.144  0.00  0.00    +0.051 C 
ATOM     26  C   UNL     1      -5.943  16.855  16.954  0.00  0.00    +0.161 C 
ATOM     27  O   UNL     1      -5.343  17.189  15.930  0.00  0.00    -0.292 OA
ATOM     28  C   UNL     1      -6.211  17.850  18.031  0.00  0.00    -0.023 C 
ATOM     29  C   UNL     1      -5.682  19.083  17.968  0.00  0.00    -0.078 C 
ATOM     30  C   UNL     1      -5.792  20.089  19.080  0.00  0.00    -0.008 C 
ATOM     31  C   UNL     1      -4.445  20.335  19.778  0.00  0.00    +0.069 C 
ATOM     32  C   UNL     1      -3.460  21.104  18.899  0.00  0.00    +0.071 C 
ATOM     33  C   UNL     1      -2.079  20.873  19.440  0.00  0.00    +0.310 C 
ATOM     34  O   UNL     1      -1.567  19.763  19.499  0.00  0.00    -0.251 OA
ATOM     35  O   UNL     1      -1.517  22.028  19.875  0.00  0.00    -0.461 OA
ATOM     36  C   UNL     1      -0.397  21.917  20.793  0.00  0.00    +0.110 C 
ATOM     37  H   UNL     1      -1.572  23.128  22.141  0.00  0.00    +0.036 HD
ATOM     38  H   UNL     1       1.443  23.215  22.650  0.00  0.00    +0.060 HD
ATOM     39  H   UNL     1       0.986  21.000  23.278  0.00  0.00    +0.033 HD
ATOM     40  H   UNL     1       0.843  21.867  24.784  0.00  0.00    +0.033 HD
ATOM     41  H   UNL     1      -1.120  20.131  23.572  0.00  0.00    +0.057 HD
ATOM     42  H   UNL     1      -1.914  22.646  25.161  0.00  0.00    +0.067 HD
ATOM     43  H   UNL     1      -5.871  20.218  26.436  0.00  0.00    +0.105 HD
ATOM     44  H   UNL     1      -7.841  16.079  24.186  0.00  0.00    +0.105 HD
ATOM     45  H   UNL     1      -7.470  13.160  20.081  0.00  0.00    +0.105 HD
ATOM     46  H   UNL     1      -4.509  15.115  18.194  0.00  0.00    +0.067 HD
ATOM     47  H   UNL     1      -6.179  14.932  16.176  0.00  0.00    +0.041 HD
ATOM     48  H   UNL     1      -6.782  17.530  18.893  0.00  0.00    +0.065 HD
ATOM     49  H   UNL     1      -5.110  19.374  17.089  0.00  0.00    +0.057 HD
ATOM     50  H   UNL     1      -6.192  21.030  18.685  0.00  0.00    +0.033 HD
ATOM     51  H   UNL     1      -6.521  19.752  19.829  0.00  0.00    +0.033 HD
ATOM     52  H   UNL     1      -4.025  19.374  20.100  0.00  0.00    +0.060 HD
ATOM     53  H   UNL     1      -3.442  20.752  17.860  0.00  0.00    +0.040 HD
ATOM     54  H   UNL     1      -3.685  22.178  18.883  0.00  0.00    +0.040 HD
ATOM     55  H   UNL     1      -0.535  21.004  21.374  0.00  0.00    +0.074 HD
BRANCH   4  56
ATOM     56  C   UNL     1      -0.389  24.461  21.026  0.00  0.00    -0.057 C 
ATOM     57  H   UNL     1       0.375  25.088  21.495  0.00  0.00    +0.023 HD
ATOM     58  H   UNL     1      -1.328  25.017  21.024  0.00  0.00    +0.023 HD
ATOM     59  H   UNL     1      -0.084  24.310  19.986  0.00  0.00    +0.023 HD
ENDBRANCH   4  56
BRANCH  25  60
ATOM     60  C   UNL     1      -7.898  15.289  17.321  0.00  0.00    -0.053 C 
ATOM     61  H   UNL     1      -8.212  15.380  18.366  0.00  0.00    +0.024 HD
ATOM     62  H   UNL     1      -8.256  14.330  16.932  0.00  0.00    +0.024 HD
ATOM     63  H   UNL     1      -8.406  16.088  16.765  0.00  0.00    +0.024 HD
ENDBRANCH  25  60
BRANCH  31  64
ATOM     64  O   UNL     1      -4.683  21.113  20.956  0.00  0.00    -0.391 OA
ATOM     65  H   UNL     1      -5.237  21.875  20.684  0.00  0.00    +0.210 HD
ENDBRANCH  31  64
BRANCH  24  66
ATOM     66  O   UNL     1      -5.448  13.296  17.863  0.00  0.00    -0.373 OA
BRANCH  66  67
ATOM     67  C   UNL     1      -4.296  12.671  18.420  0.00  0.00    +0.037 C 
ATOM     68  H   UNL     1      -3.405  13.291  18.274  0.00  0.00    +0.052 HD
ATOM     69  H   UNL     1      -4.445  12.476  19.487  0.00  0.00    +0.052 HD
ATOM     70  H   UNL     1      -4.143  11.717  17.910  0.00  0.00    +0.052 HD
ENDBRANCH  66  67
ENDBRANCH  24  66
BRANCH   5  71
ATOM     71  O   UNL     1       0.069  24.155  23.875  0.00  0.00    -0.379 OA
BRANCH  71  72
ATOM     72  C   UNL     1       0.929  24.246  25.005  0.00  0.00    +0.037 C 
ATOM     73  H   UNL     1       0.675  25.102  25.636  0.00  0.00    +0.052 HD
ATOM     74  H   UNL     1       1.954  24.373  24.640  0.00  0.00    +0.052 HD
ATOM     75  H   UNL     1       0.883  23.322  25.591  0.00  0.00    +0.052 HD
ENDBRANCH  71  72
ENDBRANCH   5  71
ENDBRANCH   1  36
BRANCH   1  76
ATOM     76  C   UNL     1       1.993  20.954  20.614  0.00  0.00    +0.064 C 
ATOM     77  H   UNL     1       1.719  20.695  21.642  0.00  0.00    +0.060 HD
BRANCH  76  78
ATOM     78  C   UNL     1       2.189  19.649  19.795  0.00  0.00    -0.017 C 
ATOM     79  H   UNL     1       1.426  18.942  20.123  0.00  0.00    +0.032 HD
BRANCH  78  80
ATOM     80  C   UNL     1       1.909  19.953  18.303  0.00  0.00    -0.060 C 
ATOM     81  H   UNL     1       1.527  19.064  17.788  0.00  0.00    +0.023 HD
ATOM     82  H   UNL     1       1.152  20.734  18.189  0.00  0.00    +0.023 HD
ATOM     83  H   UNL     1       2.822  20.275  17.792  0.00  0.00    +0.023 HD
ENDBRANCH  78  80
BRANCH  78  84
ATOM     84  C   UNL     1       3.576  18.987  19.860  0.00  0.00    -0.045 C 
ATOM     85  H   UNL     1       3.607  18.174  19.118  0.00  0.00    +0.027 HD
ATOM     86  H   UNL     1       4.335  19.710  19.515  0.00  0.00    +0.027 HD
BRANCH  84  87
ATOM     87  C   UNL     1       4.073  18.354  21.170  0.00  0.00    -0.015 C 
ATOM     88  H   UNL     1       4.951  18.954  21.434  0.00  0.00    +0.030 HD
ATOM     89  H   UNL     1       3.351  18.538  21.974  0.00  0.00    +0.030 HD
BRANCH  87  90
ATOM     90  C   UNL     1       4.487  16.862  21.203  0.00  0.00    +0.109 C 
ATOM     91  H   UNL     1       3.580  16.282  21.409  0.00  0.00    +0.074 HD
BRANCH  90  92
ATOM     92  C   UNL     1       5.562  16.595  22.318  0.00  0.00    +0.031 C 
ATOM     93  H   UNL     1       6.047  15.640  22.081  0.00  0.00    +0.037 HD
BRANCH  92  94
ATOM     94  C   UNL     1       4.920  16.349  23.696  0.00  0.00    -0.056 C 
ATOM     95  H   UNL     1       4.672  15.296  23.839  0.00  0.00    +0.023 HD
ATOM     96  H   UNL     1       4.018  16.951  23.831  0.00  0.00    +0.023 HD
ATOM     97  H   UNL     1       5.619  16.606  24.502  0.00  0.00    +0.023 HD
ENDBRANCH  92  94
BRANCH  92  98
ATOM     98  C   UNL     1       6.654  17.700  22.500  0.00  0.00    +0.115 C 
ATOM     99  H   UNL     1       6.148  18.657  22.693  0.00  0.00    +0.074 HD
BRANCH  98 100
ATOM    100  C   UNL     1       7.611  17.513  23.716  0.00  0.00    +0.013 C 
ATOM    101  H   UNL     1       7.195  16.776  24.407  0.00  0.00    +0.038 HD
BRANCH 100 102
ATOM    102  C   UNL     1       7.829  18.826  24.482  0.00  0.00    -0.056 C 
ATOM    103  H   UNL     1       7.184  19.629  24.099  0.00  0.00    +0.024 HD
ATOM    104  H   UNL     1       7.608  18.706  25.554  0.00  0.00    +0.024 HD
ATOM    105  H   UNL     1       8.861  19.175  24.390  0.00  0.00    +0.024 HD
ENDBRANCH 100 102
BRANCH 100 106
ATOM    106  C   UNL     1       8.972  17.006  23.266  0.00  0.00    -0.064 C 
ATOM    107  C   UNL     1       9.299  15.707  23.226  0.00  0.00    -0.005 C 
ATOM    108  H   UNL     1       9.692  17.772  22.986  0.00  0.00    +0.059 HD
ATOM    109  H   UNL     1       8.555  14.979  23.550  0.00  0.00    +0.078 HD
BRANCH 107 110
ATOM    110  N   UNL     1      10.509  15.154  22.840  0.00  0.00    -0.284 N 
ATOM    111  C   UNL     1      10.954  13.872  23.170  0.00  0.00    +0.206 C 
ATOM    112  O   UNL     1      10.392  13.008  23.834  0.00  0.00    -0.279 OA
ATOM    113  H   UNL     1      11.955  13.665  22.757  0.00  0.00    +0.126 HD
BRANCH 110 114
ATOM    114  C   UNL     1      11.384  15.992  22.024  0.00  0.00    +0.007 C 
ATOM    115  H   UNL     1      10.916  16.976  21.898  0.00  0.00    +0.043 HD
ATOM    116  H   UNL     1      11.553  15.561  21.032  0.00  0.00    +0.043 HD
ATOM    117  H   UNL     1      12.349  16.105  22.527  0.00  0.00    +0.043 HD
ENDBRANCH 110 114
ENDBRANCH 107 110
ENDBRANCH 100 106
ENDBRANCH  98 100
BRANCH  98 118
ATOM    118  O   UNL     1       7.453  17.806  21.299  0.00  0.00    -0.461 OA
BRANCH 118 119
ATOM    119  C   UNL     1       7.903  19.054  20.981  0.00  0.00    +0.304 C 
ATOM    120  O   UNL     1       9.006  19.327  20.530  0.00  0.00    -0.251 OA
BRANCH 119 121
ATOM    121  C   UNL     1       6.858  20.081  21.295  0.00  0.00    +0.033 C 
ATOM    122  H   UNL     1       7.302  20.877  21.896  0.00  0.00    +0.034 HD
ATOM    123  H   UNL     1       6.024  19.614  21.825  0.00  0.00    +0.034 HD
ATOM    124  H   UNL     1       6.469  20.500  20.363  0.00  0.00    +0.034 HD
ENDBRANCH 119 121
ENDBRANCH 118 119
ENDBRANCH  98 118
ENDBRANCH  92  98
ENDBRANCH  90  92
BRANCH  90 125
ATOM    125  O   UNL     1       5.004  16.486  19.900  0.00  0.00    -0.459 OA
BRANCH 125 126
ATOM    126  C   UNL     1       5.003  15.141  19.611  0.00  0.00    +0.339 C 
ATOM    127  O   UNL     1       5.934  14.558  19.070  0.00  0.00    -0.248 OA
BRANCH 126 128
ATOM    128  C   UNL     1       3.673  14.455  19.966  0.00  0.00    +0.178 C 
ATOM    129  H   UNL     1       3.022  15.238  20.387  0.00  0.00    +0.074 HD
BRANCH 128 130
ATOM    130  C   UNL     1       3.022  13.921  18.688  0.00  0.00    +0.084 C 
ATOM    131  H   UNL     1       3.752  13.903  17.876  0.00  0.00    +0.059 HD
ATOM    132  H   UNL     1       2.706  12.883  18.847  0.00  0.00    +0.059 HD
BRANCH 130 133
ATOM    133  O   UNL     1       1.890  14.704  18.317  0.00  0.00    -0.380 OA
BRANCH 133 134
ATOM    134  C   UNL     1       0.697  13.931  18.317  0.00  0.00    +0.037 C 
ATOM    135  H   UNL     1       0.117  14.138  19.222  0.00  0.00    +0.052 HD
ATOM    136  H   UNL     1       0.100  14.218  17.447  0.00  0.00    +0.052 HD
ATOM    137  H   UNL     1       0.921  12.862  18.255  0.00  0.00    +0.052 HD
ENDBRANCH 133 134
ENDBRANCH 130 133
ENDBRANCH 128 130
BRANCH 128 138
ATOM    138  O   UNL     1       3.765  13.369  20.892  0.00  0.00    -0.366 OA
BRANCH 138 139
ATOM    139  C   UNL     1       2.949  13.566  22.038  0.00  0.00    +0.038 C 
ATOM    140  H   UNL     1       1.937  13.225  21.800  0.00  0.00    +0.052 HD
ATOM    141  H   UNL     1       2.901  14.630  22.295  0.00  0.00    +0.052 HD
ATOM    142  H   UNL     1       3.319  12.990  22.890  0.00  0.00    +0.052 HD
ENDBRANCH 138 139
ENDBRANCH 128 138
ENDBRANCH 126 128
ENDBRANCH 125 126
ENDBRANCH  90 125
ENDBRANCH  87  90
ENDBRANCH  84  87
ENDBRANCH  78  84
ENDBRANCH  76  78
BRANCH  76 143
ATOM    143  O   UNL     1       3.255  21.648  20.566  0.00  0.00    -0.379 OA
BRANCH 143 144
ATOM    144  C   UNL     1       3.703  22.120  21.830  0.00  0.00    +0.037 C 
ATOM    145  H   UNL     1       4.774  21.907  21.915  0.00  0.00    +0.052 HD
ATOM    146  H   UNL     1       3.184  21.627  22.660  0.00  0.00    +0.052 HD
ATOM    147  H   UNL     1       3.574  23.201  21.899  0.00  0.00    +0.052 HD
ENDBRANCH 143 144
ENDBRANCH  76 143
ENDBRANCH   1  76
TORSDOF 35
ENDMDL
MODEL 9
REMARK VINA RESULT:      -5.0      2.527      8.873
REMARK  Name = Mycalolide B_conf3
REMARK  35 active torsions:
REMARK  status: ('A' for Active; 'I' for Inactive)
REMARK    1  A    between atoms: C_1  and  C_2
REMARK    2  A    between atoms: C_3  and  O_72
REMARK    3  A    between atoms: C_22  and  O_70
REMARK    4  A    between atoms: C_23  and  C_69
REMARK    5  A    between atoms: C_29  and  O_68
REMARK    6  A    between atoms: C_34  and  C_35
REMARK    7  A    between atoms: C_35  and  C_36
REMARK    8  A    between atoms: C_36  and  C_37
REMARK    9  A    between atoms: C_36  and  O_66
REMARK   10  A    between atoms: C_37  and  C_38
REMARK   11  A    between atoms: C_37  and  C_39
REMARK   12  A    between atoms: C_39  and  C_40
REMARK   13  A    between atoms: C_40  and  C_41
REMARK   14  A    between atoms: C_41  and  C_42
REMARK   15  A    between atoms: C_41  and  O_57
REMARK   16  A    between atoms: C_42  and  C_43
REMARK   17  A    between atoms: C_42  and  C_44
REMARK   18  A    between atoms: C_44  and  C_45
REMARK   19  A    between atoms: C_44  and  O_53
REMARK   20  A    between atoms: C_45  and  C_46
REMARK   21  A    between atoms: C_45  and  C_47
REMARK   22  A    between atoms: C_48  and  N_49
REMARK   23  A    between atoms: N_49  and  C_50
REMARK   24  A    between atoms: O_53  and  C_54
REMARK   25  A    between atoms: C_54  and  C_56
REMARK   26  A    between atoms: O_57  and  C_58
REMARK   27  A    between atoms: C_58  and  C_60
REMARK   28  A    between atoms: C_60  and  C_61
REMARK   29  A    between atoms: C_60  and  O_64
REMARK   30  A    between atoms: C_61  and  O_62
REMARK   31  A    between atoms: O_62  and  C_63
REMARK   32  A    between atoms: O_64  and  C_65
REMARK   33  A    between atoms: O_66  and  C_67
REMARK   34  A    between atoms: O_70  and  C_71
REMARK   35  A    between atoms: O_72  and  C_73
REMARK                            x       y       z     vdW  Elec       q    Type
REMARK                         _______ _______ _______ _____ _____    ______ ____
ROOT
ATOM      1  C   UNL     1      -6.686  15.865  21.015  0.00  0.00    +0.011 C 
ATOM      2  H   UNL     1      -6.693  16.782  20.416  0.00  0.00    +0.033 HD
ATOM      3  H   UNL     1      -6.921  15.026  20.351  0.00  0.00    +0.033 HD
ENDROOT
BRANCH   1  36
ATOM      4  C   UNL     1      -8.448  17.356  22.205  0.00  0.00    +0.020 C 
ATOM      5  C   UNL     1      -7.521  18.480  22.750  0.00  0.00    +0.068 C 
ATOM      6  C   UNL     1      -6.807  18.157  24.088  0.00  0.00    -0.008 C 
ATOM      7  C   UNL     1      -7.622  17.444  25.132  0.00  0.00    -0.077 C 
ATOM      8  C   UNL     1      -8.735  17.913  25.717  0.00  0.00    -0.003 C 
ATOM      9  C   UNL     1      -9.413  17.115  26.682  0.00  0.00    +0.220 A 
ATOM     10  N   UNL     1      -9.357  15.791  26.776  0.00  0.00    -0.205 NA
ATOM     11  C   UNL     1     -10.035  15.479  27.927  0.00  0.00    +0.164 A 
ATOM     12  C   UNL     1     -10.542  16.617  28.488  0.00  0.00    +0.125 A 
ATOM     13  O   UNL     1     -10.196  17.665  27.690  0.00  0.00    -0.443 OA
ATOM     14  C   UNL     1     -10.150  14.040  28.501  0.00  0.00    +0.250 A 
ATOM     15  N   UNL     1      -9.721  12.971  27.849  0.00  0.00    -0.203 NA
ATOM     16  C   UNL     1      -9.908  11.938  28.733  0.00  0.00    +0.164 A 
ATOM     17  C   UNL     1     -10.490  12.407  29.879  0.00  0.00    +0.125 A 
ATOM     18  O   UNL     1     -10.675  13.751  29.740  0.00  0.00    -0.442 OA
ATOM     19  C   UNL     1      -9.530  10.453  28.457  0.00  0.00    +0.249 A 
ATOM     20  N   UNL     1      -9.089  10.021  27.287  0.00  0.00    -0.210 NA
ATOM     21  C   UNL     1      -8.957   8.657  27.440  0.00  0.00    +0.109 A 
ATOM     22  C   UNL     1      -9.249   8.328  28.740  0.00  0.00    +0.118 A 
ATOM     23  O   UNL     1      -9.662   9.451  29.391  0.00  0.00    -0.442 OA
ATOM     24  C   UNL     1      -8.552   7.775  26.295  0.00  0.00    +0.113 C 
ATOM     25  C   UNL     1      -9.736   7.227  25.473  0.00  0.00    +0.051 C 
ATOM     26  C   UNL     1     -10.126   8.180  24.356  0.00  0.00    +0.161 C 
ATOM     27  O   UNL     1      -9.865   7.902  23.184  0.00  0.00    -0.292 OA
ATOM     28  C   UNL     1     -10.795   9.469  24.696  0.00  0.00    -0.023 C 
ATOM     29  C   UNL     1     -10.993  10.404  23.753  0.00  0.00    -0.078 C 
ATOM     30  C   UNL     1     -11.530  11.777  24.048  0.00  0.00    -0.008 C 
ATOM     31  C   UNL     1     -10.463  12.870  23.877  0.00  0.00    +0.069 C 
ATOM     32  C   UNL     1     -10.091  13.103  22.414  0.00  0.00    +0.071 C 
ATOM     33  C   UNL     1      -8.757  13.791  22.379  0.00  0.00    +0.310 C 
ATOM     34  O   UNL     1      -7.739  13.285  22.832  0.00  0.00    -0.251 OA
ATOM     35  O   UNL     1      -8.851  15.026  21.828  0.00  0.00    -0.461 OA
ATOM     36  C   UNL     1      -7.774  15.960  22.107  0.00  0.00    +0.110 C 
ATOM     37  H   UNL     1      -9.307  17.266  22.889  0.00  0.00    +0.036 HD
ATOM     38  H   UNL     1      -6.752  18.692  21.997  0.00  0.00    +0.060 HD
ATOM     39  H   UNL     1      -5.939  17.530  23.867  0.00  0.00    +0.033 HD
ATOM     40  H   UNL     1      -6.404  19.071  24.539  0.00  0.00    +0.033 HD
ATOM     41  H   UNL     1      -7.254  16.453  25.411  0.00  0.00    +0.057 HD
ATOM     42  H   UNL     1      -9.126  18.897  25.492  0.00  0.00    +0.067 HD
ATOM     43  H   UNL     1     -11.129  16.850  29.363  0.00  0.00    +0.105 HD
ATOM     44  H   UNL     1     -10.809  11.965  30.816  0.00  0.00    +0.105 HD
ATOM     45  H   UNL     1      -9.268   7.401  29.299  0.00  0.00    +0.105 HD
ATOM     46  H   UNL     1      -7.909   8.386  25.646  0.00  0.00    +0.067 HD
ATOM     47  H   UNL     1      -9.380   6.324  24.953  0.00  0.00    +0.041 HD
ATOM     48  H   UNL     1     -11.050   9.655  25.731  0.00  0.00    +0.065 HD
ATOM     49  H   UNL     1     -10.723  10.188  22.721  0.00  0.00    +0.057 HD
ATOM     50  H   UNL     1     -12.390  11.982  23.400  0.00  0.00    +0.033 HD
ATOM     51  H   UNL     1     -11.920  11.822  25.074  0.00  0.00    +0.033 HD
ATOM     52  H   UNL     1      -9.581  12.609  24.475  0.00  0.00    +0.060 HD
ATOM     53  H   UNL     1      -9.967  12.173  21.846  0.00  0.00    +0.040 HD
ATOM     54  H   UNL     1     -10.844  13.712  21.897  0.00  0.00    +0.040 HD
ATOM     55  H   UNL     1      -7.373  15.718  23.092  0.00  0.00    +0.074 HD
BRANCH   4  56
ATOM     56  C   UNL     1      -9.078  17.770  20.861  0.00  0.00    -0.057 C 
ATOM     57  H   UNL     1      -8.313  18.111  20.157  0.00  0.00    +0.023 HD
ATOM     58  H   UNL     1      -9.799  18.579  20.994  0.00  0.00    +0.023 HD
ATOM     59  H   UNL     1      -9.596  16.930  20.389  0.00  0.00    +0.023 HD
ENDBRANCH   4  56
BRANCH  25  60
ATOM     60  C   UNL     1     -10.944   6.753  26.280  0.00  0.00    -0.053 C 
ATOM     61  H   UNL     1     -10.882   5.695  26.555  0.00  0.00    +0.024 HD
ATOM     62  H   UNL     1     -11.872   6.914  25.721  0.00  0.00    +0.024 HD
ATOM     63  H   UNL     1     -11.013   7.321  27.217  0.00  0.00    +0.024 HD
ENDBRANCH  25  60
BRANCH  31  64
ATOM     64  O   UNL     1     -10.985  14.096  24.398  0.00  0.00    -0.391 OA
ATOM     65  H   UNL     1     -10.572  14.228  25.278  0.00  0.00    +0.210 HD
ENDBRANCH  31  64
BRANCH  24  66
ATOM     66  O   UNL     1      -7.782   6.663  26.794  0.00  0.00    -0.373 OA
BRANCH  66  67
ATOM     67  C   UNL     1      -8.503   5.437  26.721  0.00  0.00    +0.037 C 
ATOM     68  H   UNL     1      -7.996   4.722  26.066  0.00  0.00    +0.052 HD
ATOM     69  H   UNL     1      -8.626   5.007  27.721  0.00  0.00    +0.052 HD
ATOM     70  H   UNL     1      -9.494   5.646  26.309  0.00  0.00    +0.052 HD
ENDBRANCH  66  67
ENDBRANCH  24  66
BRANCH   5  71
ATOM     71  O   UNL     1      -8.321  19.670  22.920  0.00  0.00    -0.379 OA
BRANCH  71  72
ATOM     72  C   UNL     1      -7.545  20.808  23.280  0.00  0.00    +0.037 C 
ATOM     73  H   UNL     1      -7.155  21.323  22.399  0.00  0.00    +0.052 HD
ATOM     74  H   UNL     1      -6.700  20.462  23.885  0.00  0.00    +0.052 HD
ATOM     75  H   UNL     1      -8.143  21.498  23.884  0.00  0.00    +0.052 HD
ENDBRANCH  71  72
ENDBRANCH   5  71
ENDBRANCH   1  36
BRANCH   1  76
ATOM     76  C   UNL     1      -5.261  15.705  21.568  0.00  0.00    +0.064 C 
ATOM     77  H   UNL     1      -5.299  15.302  22.585  0.00  0.00    +0.060 HD
BRANCH  76  78
ATOM     78  C   UNL     1      -4.364  14.787  20.691  0.00  0.00    -0.017 C 
ATOM     79  H   UNL     1      -4.378  15.191  19.678  0.00  0.00    +0.032 HD
BRANCH  78  80
ATOM     80  C   UNL     1      -2.905  14.890  21.197  0.00  0.00    -0.060 C 
ATOM     81  H   UNL     1      -2.877  15.033  22.284  0.00  0.00    +0.023 HD
ATOM     82  H   UNL     1      -2.341  13.978  20.985  0.00  0.00    +0.023 HD
ATOM     83  H   UNL     1      -2.389  15.735  20.731  0.00  0.00    +0.023 HD
ENDBRANCH  78  80
BRANCH  78  84
ATOM     84  C   UNL     1      -4.718  13.290  20.661  0.00  0.00    -0.045 C 
ATOM     85  H   UNL     1      -4.036  12.760  21.345  0.00  0.00    +0.027 HD
ATOM     86  H   UNL     1      -5.720  13.149  21.101  0.00  0.00    +0.027 HD
BRANCH  84  87
ATOM     87  C   UNL     1      -4.654  12.504  19.341  0.00  0.00    -0.015 C 
ATOM     88  H   UNL     1      -4.381  13.262  18.598  0.00  0.00    +0.030 HD
ATOM     89  H   UNL     1      -3.809  11.807  19.360  0.00  0.00    +0.030 HD
BRANCH  87  90
ATOM     90  C   UNL     1      -5.906  11.756  18.822  0.00  0.00    +0.109 C 
ATOM     91  H   UNL     1      -6.582  11.629  19.677  0.00  0.00    +0.074 HD
BRANCH  90  92
ATOM     92  C   UNL     1      -5.524  10.353  18.225  0.00  0.00    +0.031 C 
ATOM     93  H   UNL     1      -4.676   9.971  18.807  0.00  0.00    +0.037 HD
BRANCH  92  94
ATOM     94  C   UNL     1      -4.965  10.464  16.794  0.00  0.00    -0.056 C 
ATOM     95  H   UNL     1      -5.752  10.700  16.076  0.00  0.00    +0.023 HD
ATOM     96  H   UNL     1      -4.465   9.542  16.486  0.00  0.00    +0.023 HD
ATOM     97  H   UNL     1      -4.236  11.282  16.723  0.00  0.00    +0.023 HD
ENDBRANCH  92  94
BRANCH  92  98
ATOM     98  C   UNL     1      -6.662   9.281  18.201  0.00  0.00    +0.115 C 
ATOM     99  H   UNL     1      -6.199   8.286  18.133  0.00  0.00    +0.074 HD
BRANCH  98 100
ATOM    100  C   UNL     1      -7.554   9.210  19.478  0.00  0.00    +0.013 C 
ATOM    101  H   UNL     1      -7.171   9.895  20.237  0.00  0.00    +0.038 HD
BRANCH 100 102
ATOM    102  C   UNL     1      -7.589   7.796  20.075  0.00  0.00    -0.056 C 
ATOM    103  H   UNL     1      -7.676   7.822  21.170  0.00  0.00    +0.024 HD
ATOM    104  H   UNL     1      -8.443   7.219  19.688  0.00  0.00    +0.024 HD
ATOM    105  H   UNL     1      -6.676   7.241  19.840  0.00  0.00    +0.024 HD
ENDBRANCH 100 102
BRANCH 100 106
ATOM    106  C   UNL     1      -8.984   9.620  19.167  0.00  0.00    -0.064 C 
ATOM    107  C   UNL     1      -9.876   9.959  20.109  0.00  0.00    -0.005 C 
ATOM    108  H   UNL     1      -9.262   9.608  18.115  0.00  0.00    +0.059 HD
ATOM    109  H   UNL     1      -9.562   9.922  21.151  0.00  0.00    +0.078 HD
BRANCH 107 110
ATOM    110  N   UNL     1     -11.197  10.336  19.923  0.00  0.00    -0.284 N 
ATOM    111  C   UNL     1     -12.311   9.626  20.373  0.00  0.00    +0.206 C 
ATOM    112  O   UNL     1     -12.352   8.574  21.001  0.00  0.00    -0.279 OA
ATOM    113  H   UNL     1     -13.255  10.121  20.093  0.00  0.00    +0.126 HD
BRANCH 110 114
ATOM    114  C   UNL     1     -11.427  11.579  19.191  0.00  0.00    +0.007 C 
ATOM    115  H   UNL     1     -10.859  11.551  18.254  0.00  0.00    +0.043 HD
ATOM    116  H   UNL     1     -11.105  12.455  19.764  0.00  0.00    +0.043 HD
ATOM    117  H   UNL     1     -12.495  11.677  18.972  0.00  0.00    +0.043 HD
ENDBRANCH 110 114
ENDBRANCH 107 110
ENDBRANCH 100 106
ENDBRANCH  98 100
BRANCH  98 118
ATOM    118  O   UNL     1      -7.518   9.499  17.055  0.00  0.00    -0.461 OA
BRANCH 118 119
ATOM    119  C   UNL     1      -7.835   8.394  16.320  0.00  0.00    +0.304 C 
ATOM    120  O   UNL     1      -7.408   7.263  16.503  0.00  0.00    -0.251 OA
BRANCH 119 121
ATOM    121  C   UNL     1      -8.770   8.757  15.207  0.00  0.00    +0.033 C 
ATOM    122  H   UNL     1      -8.513   9.748  14.827  0.00  0.00    +0.034 HD
ATOM    123  H   UNL     1      -9.803   8.735  15.566  0.00  0.00    +0.034 HD
ATOM    124  H   UNL     1      -8.680   8.022  14.403  0.00  0.00    +0.034 HD
ENDBRANCH 119 121
ENDBRANCH 118 119
ENDBRANCH  98 118
ENDBRANCH  92  98
ENDBRANCH  90  92
BRANCH  90 125
ATOM    125  O   UNL     1      -6.563  12.572  17.818  0.00  0.00    -0.459 OA
BRANCH 125 126
ATOM    126  C   UNL     1      -7.549  13.417  18.270  0.00  0.00    +0.339 C 
ATOM    127  O   UNL     1      -8.366  13.116  19.130  0.00  0.00    -0.248 OA
BRANCH 126 128
ATOM    128  C   UNL     1      -7.571  14.761  17.523  0.00  0.00    +0.178 C 
ATOM    129  H   UNL     1      -7.916  15.515  18.249  0.00  0.00    +0.074 HD
BRANCH 128 130
ATOM    130  C   UNL     1      -6.147  15.124  17.093  0.00  0.00    +0.084 C 
ATOM    131  H   UNL     1      -5.647  15.683  17.886  0.00  0.00    +0.059 HD
ATOM    132  H   UNL     1      -5.567  14.205  16.945  0.00  0.00    +0.059 HD
BRANCH 130 133
ATOM    133  O   UNL     1      -6.147  15.877  15.882  0.00  0.00    -0.380 OA
BRANCH 133 134
ATOM    134  C   UNL     1      -4.965  15.654  15.127  0.00  0.00    +0.037 C 
ATOM    135  H   UNL     1      -4.927  16.345  14.278  0.00  0.00    +0.052 HD
ATOM    136  H   UNL     1      -4.102  15.844  15.771  0.00  0.00    +0.052 HD
ATOM    137  H   UNL     1      -4.916  14.621  14.767  0.00  0.00    +0.052 HD
ENDBRANCH 133 134
ENDBRANCH 130 133
ENDBRANCH 128 130
BRANCH 128 138
ATOM    138  O   UNL     1      -8.401  14.810  16.360  0.00  0.00    -0.366 OA
BRANCH 138 139
ATOM    139  C   UNL     1      -9.724  15.232  16.658  0.00  0.00    +0.038 C 
ATOM    140  H   UNL     1     -10.334  15.107  15.759  0.00  0.00    +0.052 HD
ATOM    141  H   UNL     1      -9.734  16.292  16.935  0.00  0.00    +0.052 HD
ATOM    142  H   UNL     1     -10.158  14.630  17.461  0.00  0.00    +0.052 HD
ENDBRANCH 138 139
ENDBRANCH 128 138
ENDBRANCH 126 128
ENDBRANCH 125 126
ENDBRANCH  90 125
ENDBRANCH  87  90
ENDBRANCH  84  87
ENDBRANCH  78  84
ENDBRANCH  76  78
BRANCH  76 143
ATOM    143  O   UNL     1      -4.644  17.006  21.541  0.00  0.00    -0.379 OA
BRANCH 143 144
ATOM    144  C   UNL     1      -4.911  17.746  20.356  0.00  0.00    +0.037 C 
ATOM    145  H   UNL     1      -5.892  18.222  20.464  0.00  0.00    +0.052 HD
ATOM    146  H   UNL     1      -4.931  17.106  19.467  0.00  0.00    +0.052 HD
ATOM    147  H   UNL     1      -4.172  18.539  20.230  0.00  0.00    +0.052 HD
ENDBRANCH 143 144
ENDBRANCH  76 143
ENDBRANCH   1  76
TORSDOF 35
ENDMDL
MODEL 10
REMARK VINA RESULT:      -5.0      3.136      8.990
REMARK  Name = Mycalolide B_conf3
REMARK  35 active torsions:
REMARK  status: ('A' for Active; 'I' for Inactive)
REMARK    1  A    between atoms: C_1  and  C_2
REMARK    2  A    between atoms: C_3  and  O_72
REMARK    3  A    between atoms: C_22  and  O_70
REMARK    4  A    between atoms: C_23  and  C_69
REMARK    5  A    between atoms: C_29  and  O_68
REMARK    6  A    between atoms: C_34  and  C_35
REMARK    7  A    between atoms: C_35  and  C_36
REMARK    8  A    between atoms: C_36  and  C_37
REMARK    9  A    between atoms: C_36  and  O_66
REMARK   10  A    between atoms: C_37  and  C_38
REMARK   11  A    between atoms: C_37  and  C_39
REMARK   12  A    between atoms: C_39  and  C_40
REMARK   13  A    between atoms: C_40  and  C_41
REMARK   14  A    between atoms: C_41  and  C_42
REMARK   15  A    between atoms: C_41  and  O_57
REMARK   16  A    between atoms: C_42  and  C_43
REMARK   17  A    between atoms: C_42  and  C_44
REMARK   18  A    between atoms: C_44  and  C_45
REMARK   19  A    between atoms: C_44  and  O_53
REMARK   20  A    between atoms: C_45  and  C_46
REMARK   21  A    between atoms: C_45  and  C_47
REMARK   22  A    between atoms: C_48  and  N_49
REMARK   23  A    between atoms: N_49  and  C_50
REMARK   24  A    between atoms: O_53  and  C_54
REMARK   25  A    between atoms: C_54  and  C_56
REMARK   26  A    between atoms: O_57  and  C_58
REMARK   27  A    between atoms: C_58  and  C_60
REMARK   28  A    between atoms: C_60  and  C_61
REMARK   29  A    between atoms: C_60  and  O_64
REMARK   30  A    between atoms: C_61  and  O_62
REMARK   31  A    between atoms: O_62  and  C_63
REMARK   32  A    between atoms: O_64  and  C_65
REMARK   33  A    between atoms: O_66  and  C_67
REMARK   34  A    between atoms: O_70  and  C_71
REMARK   35  A    between atoms: O_72  and  C_73
REMARK                            x       y       z     vdW  Elec       q    Type
REMARK                         _______ _______ _______ _____ _____    ______ ____
ROOT
ATOM      1  C   UNL     1     -11.958   7.658  19.202  0.00  0.00    +0.011 C 
ATOM      2  H   UNL     1     -12.462   6.965  18.520  0.00  0.00    +0.033 HD
ATOM      3  H   UNL     1     -12.705   8.366  19.579  0.00  0.00    +0.033 HD
ENDROOT
BRANCH   1  36
ATOM      4  C   UNL     1     -10.553   7.850  17.027  0.00  0.00    +0.020 C 
ATOM      5  C   UNL     1      -9.825   6.476  17.058  0.00  0.00    +0.068 C 
ATOM      6  C   UNL     1      -8.553   6.421  17.943  0.00  0.00    -0.008 C 
ATOM      7  C   UNL     1      -7.644   7.620  17.894  0.00  0.00    -0.077 C 
ATOM      8  C   UNL     1      -6.999   8.073  16.808  0.00  0.00    -0.003 C 
ATOM      9  C   UNL     1      -6.182   9.234  16.909  0.00  0.00    +0.220 A 
ATOM     10  N   UNL     1      -6.305  10.198  17.815  0.00  0.00    -0.205 NA
ATOM     11  C   UNL     1      -5.226  11.021  17.621  0.00  0.00    +0.164 A 
ATOM     12  C   UNL     1      -4.489  10.576  16.560  0.00  0.00    +0.125 A 
ATOM     13  O   UNL     1      -5.103   9.466  16.063  0.00  0.00    -0.443 OA
ATOM     14  C   UNL     1      -4.895  12.243  18.522  0.00  0.00    +0.250 A 
ATOM     15  N   UNL     1      -5.711  12.677  19.471  0.00  0.00    -0.203 NA
ATOM     16  C   UNL     1      -5.008  13.682  20.086  0.00  0.00    +0.164 A 
ATOM     17  C   UNL     1      -3.805  13.860  19.460  0.00  0.00    +0.125 A 
ATOM     18  O   UNL     1      -3.724  12.961  18.437  0.00  0.00    -0.442 OA
ATOM     19  C   UNL     1      -5.521  14.507  21.304  0.00  0.00    +0.249 A 
ATOM     20  N   UNL     1      -6.742  14.391  21.797  0.00  0.00    -0.210 NA
ATOM     21  C   UNL     1      -6.813  15.341  22.793  0.00  0.00    +0.109 A 
ATOM     22  C   UNL     1      -5.587  15.945  22.917  0.00  0.00    +0.118 A 
ATOM     23  O   UNL     1      -4.764  15.461  21.945  0.00  0.00    -0.442 OA
ATOM     24  C   UNL     1      -8.085  15.587  23.553  0.00  0.00    +0.113 C 
ATOM     25  C   UNL     1      -8.994  16.665  22.927  0.00  0.00    +0.051 C 
ATOM     26  C   UNL     1      -9.942  16.066  21.902  0.00  0.00    +0.161 C 
ATOM     27  O   UNL     1     -11.142  15.952  22.160  0.00  0.00    -0.292 OA
ATOM     28  C   UNL     1      -9.401  15.586  20.599  0.00  0.00    -0.023 C 
ATOM     29  C   UNL     1     -10.179  14.897  19.749  0.00  0.00    -0.078 C 
ATOM     30  C   UNL     1      -9.667  14.262  18.486  0.00  0.00    -0.008 C 
ATOM     31  C   UNL     1      -9.651  12.728  18.570  0.00  0.00    +0.069 C 
ATOM     32  C   UNL     1     -11.053  12.123  18.553  0.00  0.00    +0.071 C 
ATOM     33  C   UNL     1     -10.966  10.734  19.114  0.00  0.00    +0.310 C 
ATOM     34  O   UNL     1     -10.595  10.503  20.257  0.00  0.00    -0.251 OA
ATOM     35  O   UNL     1     -11.308   9.803  18.189  0.00  0.00    -0.461 OA
ATOM     36  C   UNL     1     -10.873   8.438  18.429  0.00  0.00    +0.110 C 
ATOM     37  H   UNL     1      -9.898   8.567  16.506  0.00  0.00    +0.036 HD
ATOM     38  H   UNL     1     -10.528   5.718  17.427  0.00  0.00    +0.060 HD
ATOM     39  H   UNL     1      -8.867   6.293  18.983  0.00  0.00    +0.033 HD
ATOM     40  H   UNL     1      -7.955   5.534  17.705  0.00  0.00    +0.033 HD
ATOM     41  H   UNL     1      -7.529   8.154  18.840  0.00  0.00    +0.057 HD
ATOM     42  H   UNL     1      -7.062   7.566  15.854  0.00  0.00    +0.067 HD
ATOM     43  H   UNL     1      -3.592  10.898  16.054  0.00  0.00    +0.105 HD
ATOM     44  H   UNL     1      -2.955  14.517  19.599  0.00  0.00    +0.105 HD
ATOM     45  H   UNL     1      -5.188  16.720  23.558  0.00  0.00    +0.105 HD
ATOM     46  H   UNL     1      -8.621  14.629  23.579  0.00  0.00    +0.067 HD
ATOM     47  H   UNL     1      -9.652  17.039  23.726  0.00  0.00    +0.041 HD
ATOM     48  H   UNL     1      -8.351  15.747  20.390  0.00  0.00    +0.065 HD
ATOM     49  H   UNL     1     -11.231  14.749  19.988  0.00  0.00    +0.057 HD
ATOM     50  H   UNL     1     -10.279  14.589  17.637  0.00  0.00    +0.033 HD
ATOM     51  H   UNL     1      -8.651  14.615  18.267  0.00  0.00    +0.033 HD
ATOM     52  H   UNL     1      -9.097  12.422  19.467  0.00  0.00    +0.060 HD
ATOM     53  H   UNL     1     -11.765  12.663  19.189  0.00  0.00    +0.040 HD
ATOM     54  H   UNL     1     -11.469  12.095  17.537  0.00  0.00    +0.040 HD
ATOM     55  H   UNL     1      -9.938   8.482  18.989  0.00  0.00    +0.074 HD
BRANCH   4  56
ATOM     56  C   UNL     1     -11.815   7.781  16.147  0.00  0.00    -0.057 C 
ATOM     57  H   UNL     1     -12.454   6.944  16.442  0.00  0.00    +0.023 HD
ATOM     58  H   UNL     1     -11.557   7.654  15.094  0.00  0.00    +0.023 HD
ATOM     59  H   UNL     1     -12.415   8.691  16.240  0.00  0.00    +0.023 HD
ENDBRANCH   4  56
BRANCH  25  60
ATOM     60  C   UNL     1      -8.283  17.912  22.401  0.00  0.00    -0.053 C 
ATOM     61  H   UNL     1      -8.161  17.904  21.313  0.00  0.00    +0.024 HD
ATOM     62  H   UNL     1      -7.295  18.018  22.862  0.00  0.00    +0.024 HD
ATOM     63  H   UNL     1      -8.868  18.808  22.649  0.00  0.00    +0.024 HD
ENDBRANCH  25  60
BRANCH  31  64
ATOM     64  O   UNL     1      -8.939  12.222  17.436  0.00  0.00    -0.391 OA
ATOM     65  H   UNL     1      -9.582  12.174  16.697  0.00  0.00    +0.210 HD
ENDBRANCH  31  64
BRANCH  24  66
ATOM     66  O   UNL     1      -7.769  15.978  24.904  0.00  0.00    -0.373 OA
BRANCH  66  67
ATOM     67  C   UNL     1      -8.238  15.031  25.858  0.00  0.00    +0.037 C 
ATOM     68  H   UNL     1      -9.332  15.024  25.899  0.00  0.00    +0.052 HD
ATOM     69  H   UNL     1      -7.867  14.029  25.617  0.00  0.00    +0.052 HD
ATOM     70  H   UNL     1      -7.854  15.316  26.842  0.00  0.00    +0.052 HD
ENDBRANCH  66  67
ENDBRANCH  24  66
BRANCH   5  71
ATOM     71  O   UNL     1      -9.468   6.133  15.702  0.00  0.00    -0.379 OA
BRANCH  71  72
ATOM     72  C   UNL     1      -8.802   4.879  15.609  0.00  0.00    +0.037 C 
ATOM     73  H   UNL     1      -9.456   4.106  15.196  0.00  0.00    +0.052 HD
ATOM     74  H   UNL     1      -8.502   4.579  16.618  0.00  0.00    +0.052 HD
ATOM     75  H   UNL     1      -7.901   4.974  14.994  0.00  0.00    +0.052 HD
ENDBRANCH  71  72
ENDBRANCH   5  71
ENDBRANCH   1  36
BRANCH   1  76
ATOM     76  C   UNL     1     -11.410   6.816  20.366  0.00  0.00    +0.064 C 
ATOM     77  H   UNL     1     -10.321   6.911  20.413  0.00  0.00    +0.060 HD
BRANCH  76  78
ATOM     78  C   UNL     1     -12.015   7.208  21.743  0.00  0.00    -0.017 C 
ATOM     79  H   UNL     1     -11.195   7.563  22.369  0.00  0.00    +0.032 HD
BRANCH  78  80
ATOM     80  C   UNL     1     -12.975   8.405  21.539  0.00  0.00    -0.060 C 
ATOM     81  H   UNL     1     -12.628   9.050  20.724  0.00  0.00    +0.023 HD
ATOM     82  H   UNL     1     -13.981   8.070  21.270  0.00  0.00    +0.023 HD
ATOM     83  H   UNL     1     -13.041   9.012  22.448  0.00  0.00    +0.023 HD
ENDBRANCH  78  80
BRANCH  78  84
ATOM     84  C   UNL     1     -12.809   6.123  22.489  0.00  0.00    -0.045 C 
ATOM     85  H   UNL     1     -13.836   6.492  22.644  0.00  0.00    +0.027 HD
ATOM     86  H   UNL     1     -12.924   5.246  21.831  0.00  0.00    +0.027 HD
BRANCH  84  87
ATOM     87  C   UNL     1     -12.346   5.634  23.871  0.00  0.00    -0.015 C 
ATOM     88  H   UNL     1     -12.996   6.172  24.571  0.00  0.00    +0.030 HD
ATOM     89  H   UNL     1     -12.603   4.577  24.001  0.00  0.00    +0.030 HD
BRANCH  87  90
ATOM     90  C   UNL     1     -10.880   5.850  24.319  0.00  0.00    +0.109 C 
ATOM     91  H   UNL     1     -10.280   5.970  23.409  0.00  0.00    +0.074 HD
BRANCH  90  92
ATOM     92  C   UNL     1     -10.354   4.625  25.153  0.00  0.00    +0.031 C 
ATOM     93  H   UNL     1      -9.345   4.394  24.790  0.00  0.00    +0.037 HD
BRANCH  92  94
ATOM     94  C   UNL     1     -11.152   3.340  24.862  0.00  0.00    -0.056 C 
ATOM     95  H   UNL     1     -11.094   3.064  23.808  0.00  0.00    +0.023 HD
ATOM     96  H   UNL     1     -12.202   3.447  25.147  0.00  0.00    +0.023 HD
ATOM     97  H   UNL     1     -10.737   2.490  25.420  0.00  0.00    +0.023 HD
ENDBRANCH  92  94
BRANCH  92  98
ATOM     98  C   UNL     1     -10.319   4.813  26.705  0.00  0.00    +0.115 C 
ATOM     99  H   UNL     1     -10.666   5.831  26.938  0.00  0.00    +0.074 HD
BRANCH  98 100
ATOM    100  C   UNL     1     -11.263   3.882  27.522  0.00  0.00    +0.013 C 
ATOM    101  H   UNL     1     -11.904   3.314  26.844  0.00  0.00    +0.038 HD
BRANCH 100 102
ATOM    102  C   UNL     1     -12.159   4.674  28.485  0.00  0.00    -0.056 C 
ATOM    103  H   UNL     1     -12.671   4.012  29.197  0.00  0.00    +0.024 HD
ATOM    104  H   UNL     1     -11.575   5.401  29.069  0.00  0.00    +0.024 HD
ATOM    105  H   UNL     1     -12.936   5.224  27.946  0.00  0.00    +0.024 HD
ENDBRANCH 100 102
BRANCH 100 106
ATOM    106  C   UNL     1     -10.465   2.883  28.345  0.00  0.00    -0.064 C 
ATOM    107  C   UNL     1     -11.021   1.852  28.998  0.00  0.00    -0.005 C 
ATOM    108  H   UNL     1      -9.392   3.061  28.395  0.00  0.00    +0.059 HD
ATOM    109  H   UNL     1     -12.103   1.735  28.947  0.00  0.00    +0.078 HD
BRANCH 107 110
ATOM    110  N   UNL     1     -10.379   0.901  29.775  0.00  0.00    -0.284 N 
ATOM    111  C   UNL     1      -9.853  -0.304  29.306  0.00  0.00    +0.206 C 
ATOM    112  O   UNL     1      -9.844  -0.748  28.163  0.00  0.00    -0.279 OA
ATOM    113  H   UNL     1      -9.401  -0.899  30.117  0.00  0.00    +0.126 HD
BRANCH 110 114
ATOM    114  C   UNL     1     -10.252   1.194  31.200  0.00  0.00    +0.007 C 
ATOM    115  H   UNL     1     -11.253   1.224  31.647  0.00  0.00    +0.043 HD
ATOM    116  H   UNL     1      -9.768   2.160  31.376  0.00  0.00    +0.043 HD
ATOM    117  H   UNL     1      -9.658   0.411  31.679  0.00  0.00    +0.043 HD
ENDBRANCH 110 114
ENDBRANCH 107 110
ENDBRANCH 100 106
ENDBRANCH  98 100
BRANCH  98 118
ATOM    118  O   UNL     1      -8.967   4.638  27.191  0.00  0.00    -0.461 OA
BRANCH 118 119
ATOM    119  C   UNL     1      -8.267   5.780  27.453  0.00  0.00    +0.304 C 
ATOM    120  O   UNL     1      -7.755   6.514  26.622  0.00  0.00    -0.251 OA
BRANCH 119 121
ATOM    121  C   UNL     1      -8.173   6.007  28.932  0.00  0.00    +0.033 C 
ATOM    122  H   UNL     1      -7.342   5.425  29.335  0.00  0.00    +0.034 HD
ATOM    123  H   UNL     1      -9.114   5.726  29.413  0.00  0.00    +0.034 HD
ATOM    124  H   UNL     1      -8.003   7.069  29.125  0.00  0.00    +0.034 HD
ENDBRANCH 119 121
ENDBRANCH 118 119
ENDBRANCH  98 118
ENDBRANCH  92  98
ENDBRANCH  90  92
BRANCH  90 125
ATOM    125  O   UNL     1     -10.799   7.068  25.104  0.00  0.00    -0.459 OA
BRANCH 125 126
ATOM    126  C   UNL     1     -10.105   8.112  24.537  0.00  0.00    +0.339 C 
ATOM    127  O   UNL     1      -9.076   7.976  23.887  0.00  0.00    -0.248 OA
BRANCH 126 128
ATOM    128  C   UNL     1     -10.712   9.484  24.873  0.00  0.00    +0.178 C 
ATOM    129  H   UNL     1     -11.782   9.422  24.615  0.00  0.00    +0.074 HD
BRANCH 128 130
ATOM    130  C   UNL     1     -10.593   9.735  26.378  0.00  0.00    +0.084 C 
ATOM    131  H   UNL     1     -11.326  10.481  26.693  0.00  0.00    +0.059 HD
ATOM    132  H   UNL     1     -10.832   8.813  26.921  0.00  0.00    +0.059 HD
BRANCH 130 133
ATOM    133  O   UNL     1      -9.278  10.157  26.731  0.00  0.00    -0.380 OA
BRANCH 133 134
ATOM    134  C   UNL     1      -8.861   9.596  27.968  0.00  0.00    +0.037 C 
ATOM    135  H   UNL     1      -8.542   8.559  27.820  0.00  0.00    +0.052 HD
ATOM    136  H   UNL     1      -8.011  10.173  28.341  0.00  0.00    +0.052 HD
ATOM    137  H   UNL     1      -9.666   9.635  28.709  0.00  0.00    +0.052 HD
ENDBRANCH 133 134
ENDBRANCH 130 133
ENDBRANCH 128 130
BRANCH 128 138
ATOM    138  O   UNL     1     -10.127  10.602  24.200  0.00  0.00    -0.366 OA
BRANCH 138 139
ATOM    139  C   UNL     1     -11.104  11.508  23.708  0.00  0.00    +0.038 C 
ATOM    140  H   UNL     1     -11.841  10.938  23.134  0.00  0.00    +0.052 HD
ATOM    141  H   UNL     1     -10.643  12.243  23.040  0.00  0.00    +0.052 HD
ATOM    142  H   UNL     1     -11.619  12.016  24.528  0.00  0.00    +0.052 HD
ENDBRANCH 138 139
ENDBRANCH 128 138
ENDBRANCH 126 128
ENDBRANCH 125 126
ENDBRANCH  90 125
ENDBRANCH  87  90
ENDBRANCH  84  87
ENDBRANCH  78  84
ENDBRANCH  76  78
BRANCH  76 143
ATOM    143  O   UNL     1     -11.809   5.452  20.131  0.00  0.00    -0.379 OA
BRANCH 143 144
ATOM    144  C   UNL     1     -12.686   5.291  19.023  0.00  0.00    +0.037 C 
ATOM    145  H   UNL     1     -12.138   4.780  18.224  0.00  0.00    +0.052 HD
ATOM    146  H   UNL     1     -13.044   6.253  18.638  0.00  0.00    +0.052 HD
ATOM    147  H   UNL     1     -13.534   4.661  19.298  0.00  0.00    +0.052 HD
ENDBRANCH 143 144
ENDBRANCH  76 143
ENDBRANCH   1  76
TORSDOF 35
ENDMDL
