MODEL 1
REMARK VINA RESULT:      -5.6      0.000      0.000
REMARK  Name = Reidispongiolide A_conf3
REMARK  33 active torsions:
REMARK  status: ('A' for Active; 'I' for Inactive)
REMARK    1  A    between atoms: C_1  and  C_2
REMARK    2  A    between atoms: C_5  and  O_67
REMARK    3  A    between atoms: C_7  and  O_65
REMARK    4  A    between atoms: C_8  and  C_64
REMARK    5  A    between atoms: C_17  and  O_62
REMARK    6  A    between atoms: C_19  and  C_61
REMARK    7  A    between atoms: C_26  and  C_38
REMARK    8  A    between atoms: C_27  and  C_37
REMARK    9  A    between atoms: C_30  and  O_35
REMARK   10  A    between atoms: C_32  and  O_33
REMARK   11  A    between atoms: O_33  and  C_34
REMARK   12  A    between atoms: O_35  and  C_36
REMARK   13  A    between atoms: C_38  and  C_39
REMARK   14  A    between atoms: C_38  and  C_40
REMARK   15  A    between atoms: C_40  and  C_41
REMARK   16  A    between atoms: C_40  and  O_59
REMARK   17  A    between atoms: C_41  and  C_42
REMARK   18  A    between atoms: C_41  and  C_43
REMARK   19  A    between atoms: C_43  and  C_44
REMARK   20  A    between atoms: C_44  and  C_45
REMARK   21  A    between atoms: C_45  and  C_47
REMARK   22  A    between atoms: C_47  and  C_48
REMARK   23  A    between atoms: C_47  and  C_49
REMARK   24  A    between atoms: C_49  and  C_50
REMARK   25  A    between atoms: C_49  and  O_57
REMARK   26  A    between atoms: C_50  and  C_51
REMARK   27  A    between atoms: C_52  and  N_53
REMARK   28  A    between atoms: N_53  and  C_54
REMARK   29  A    between atoms: O_57  and  C_58
REMARK   30  A    between atoms: O_59  and  C_60
REMARK   31  A    between atoms: O_62  and  C_63
REMARK   32  A    between atoms: O_65  and  C_66
REMARK   33  A    between atoms: O_67  and  C_68
REMARK                            x       y       z     vdW  Elec       q    Type
REMARK                         _______ _______ _______ _____ _____    ______ ____
ROOT
ATOM      1  C   UNL     1      -8.871  19.938  20.290  0.00  0.00    +0.001 C 
ATOM      2  C   UNL     1      -9.887  18.807  20.408  0.00  0.00    -0.080 C 
ATOM      3  C   UNL     1     -11.097  18.769  19.821  0.00  0.00    -0.059 C 
ATOM      4  C   UNL     1     -12.198  17.744  19.919  0.00  0.00    +0.079 C 
ATOM      5  C   UNL     1     -12.043  16.579  20.915  0.00  0.00    +0.004 C 
ATOM      6  C   UNL     1     -11.045  15.461  20.537  0.00  0.00    +0.067 C 
ATOM      7  C   UNL     1     -10.602  14.600  21.759  0.00  0.00    +0.020 C 
ATOM      8  C   UNL     1     -11.785  13.904  22.509  0.00  0.00    +0.112 C 
ATOM      9  C   UNL     1     -12.222  12.533  21.949  0.00  0.00    +0.006 C 
ATOM     10  C   UNL     1     -11.478  11.373  22.557  0.00  0.00    -0.057 C 
ATOM     11  C   UNL     1     -10.791  11.547  23.699  0.00  0.00    +0.022 C 
ATOM     12  C   UNL     1     -10.780  12.817  24.444  0.00  0.00    +0.332 C 
ATOM     13  O   UNL     1     -10.188  12.918  25.512  0.00  0.00    -0.246 OA
ATOM     14  O   UNL     1     -11.521  13.827  23.934  0.00  0.00    -0.458 OA
ATOM     15  C   UNL     1     -11.709   9.985  21.974  0.00  0.00    -0.004 C 
ATOM     16  C   UNL     1     -10.534   9.061  21.532  0.00  0.00    +0.066 C 
ATOM     17  C   UNL     1     -10.088   9.240  20.057  0.00  0.00    -0.005 C 
ATOM     18  C   UNL     1      -8.940  10.180  19.730  0.00  0.00    -0.070 C 
ATOM     19  C   UNL     1      -7.925   9.768  18.938  0.00  0.00    -0.062 C 
ATOM     20  C   UNL     1      -6.797  10.579  18.528  0.00  0.00    -0.055 C 
ATOM     21  C   UNL     1      -6.921  11.705  17.809  0.00  0.00    +0.023 C 
ATOM     22  C   UNL     1      -5.736  12.547  17.580  0.00  0.00    +0.332 C 
ATOM     23  O   UNL     1      -4.578  12.157  17.604  0.00  0.00    -0.246 OA
ATOM     24  O   UNL     1      -6.157  13.826  17.435  0.00  0.00    -0.457 OA
ATOM     25  C   UNL     1      -5.174  14.853  17.698  0.00  0.00    +0.114 C 
ATOM     26  C   UNL     1      -5.185  15.937  16.573  0.00  0.00    +0.012 C 
ATOM     27  C   UNL     1      -6.328  16.926  16.604  0.00  0.00    -0.079 C 
ATOM     28  C   UNL     1      -6.146  18.255  16.746  0.00  0.00    -0.059 C 
ATOM     29  C   UNL     1      -7.242  19.282  16.725  0.00  0.00    +0.079 C 
ATOM     30  C   UNL     1      -8.261  19.206  17.879  0.00  0.00    +0.004 C 
ATOM     31  C   UNL     1      -7.737  19.674  19.251  0.00  0.00    +0.067 C 
ATOM     32  H   UNL     1      -8.397  19.998  21.283  0.00  0.00    +0.037 HD
ATOM     33  H   UNL     1      -9.562  17.988  21.043  0.00  0.00    +0.057 HD
ATOM     34  H   UNL     1     -11.376  19.597  19.172  0.00  0.00    +0.059 HD
ATOM     35  H   UNL     1     -13.073  18.321  20.257  0.00  0.00    +0.064 HD
ATOM     36  H   UNL     1     -13.033  16.122  21.015  0.00  0.00    +0.032 HD
ATOM     37  H   UNL     1     -11.796  17.008  21.890  0.00  0.00    +0.032 HD
ATOM     38  H   UNL     1     -10.149  15.914  20.098  0.00  0.00    +0.060 HD
ATOM     39  H   UNL     1      -9.958  13.807  21.373  0.00  0.00    +0.036 HD
ATOM     40  H   UNL     1     -12.664  14.554  22.443  0.00  0.00    +0.074 HD
ATOM     41  H   UNL     1     -12.136  12.513  20.859  0.00  0.00    +0.035 HD
ATOM     42  H   UNL     1     -13.286  12.388  22.183  0.00  0.00    +0.035 HD
ATOM     43  H   UNL     1     -10.292  10.727  24.207  0.00  0.00    +0.069 HD
ATOM     44  H   UNL     1     -12.440  10.049  21.153  0.00  0.00    +0.034 HD
ATOM     45  H   UNL     1     -12.245   9.434  22.767  0.00  0.00    +0.034 HD
ATOM     46  H   UNL     1     -10.968   8.051  21.586  0.00  0.00    +0.060 HD
ATOM     47  H   UNL     1     -10.956   9.532  19.447  0.00  0.00    +0.034 HD
ATOM     48  H   UNL     1      -9.814   8.240  19.698  0.00  0.00    +0.034 HD
ATOM     49  H   UNL     1      -7.894   8.739  18.579  0.00  0.00    +0.062 HD
ATOM     50  H   UNL     1      -5.817  10.231  18.851  0.00  0.00    +0.062 HD
ATOM     51  H   UNL     1      -7.874  12.085  17.470  0.00  0.00    +0.069 HD
ATOM     52  H   UNL     1      -4.172  14.415  17.622  0.00  0.00    +0.074 HD
ATOM     53  H   UNL     1      -4.249  16.499  16.705  0.00  0.00    +0.038 HD
ATOM     54  H   UNL     1      -7.335  16.527  16.479  0.00  0.00    +0.057 HD
ATOM     55  H   UNL     1      -5.129  18.639  16.845  0.00  0.00    +0.059 HD
ATOM     56  H   UNL     1      -7.793  19.162  15.780  0.00  0.00    +0.064 HD
ATOM     57  H   UNL     1      -8.648  18.181  17.943  0.00  0.00    +0.032 HD
ATOM     58  H   UNL     1      -9.097  19.857  17.594  0.00  0.00    +0.032 HD
ATOM     59  H   UNL     1      -7.188  20.617  19.120  0.00  0.00    +0.060 HD
ENDROOT
BRANCH   1  60
ATOM     60  C   UNL     1      -9.509  21.316  20.054  0.00  0.00    -0.057 C 
ATOM     61  H   UNL     1      -8.735  22.077  19.912  0.00  0.00    +0.024 HD
ATOM     62  H   UNL     1     -10.113  21.621  20.915  0.00  0.00    +0.024 HD
ATOM     63  H   UNL     1     -10.151  21.334  19.169  0.00  0.00    +0.024 HD
ENDBRANCH   1  60
BRANCH  26  64
ATOM     64  C   UNL     1      -5.128  15.274  15.190  0.00  0.00    -0.056 C 
ATOM     65  H   UNL     1      -4.418  14.436  15.179  0.00  0.00    +0.024 HD
ATOM     66  H   UNL     1      -4.818  15.989  14.424  0.00  0.00    +0.024 HD
ATOM     67  H   UNL     1      -6.113  14.896  14.904  0.00  0.00    +0.024 HD
ENDBRANCH  26  64
BRANCH  18  68
ATOM     68  C   UNL     1      -9.038  11.556  20.318  0.00  0.00    -0.043 C 
ATOM     69  H   UNL     1     -10.032  11.974  20.148  0.00  0.00    +0.027 HD
ATOM     70  H   UNL     1      -8.879  11.595  21.397  0.00  0.00    +0.027 HD
ATOM     71  H   UNL     1      -8.281  12.187  19.852  0.00  0.00    +0.027 HD
ENDBRANCH  18  68
BRANCH   7  72
ATOM     72  C   UNL     1      -9.711  15.437  22.687  0.00  0.00    -0.057 C 
ATOM     73  H   UNL     1     -10.248  15.709  23.597  0.00  0.00    +0.023 HD
ATOM     74  H   UNL     1      -8.800  14.906  22.976  0.00  0.00    +0.023 HD
ATOM     75  H   UNL     1      -9.422  16.373  22.204  0.00  0.00    +0.023 HD
ENDBRANCH   7  72
BRANCH  25  76
ATOM     76  C   UNL     1      -5.373  15.392  19.157  0.00  0.00    +0.020 C 
ATOM     77  H   UNL     1      -5.488  16.479  19.076  0.00  0.00    +0.036 HD
BRANCH  76  78
ATOM     78  C   UNL     1      -6.658  14.841  19.789  0.00  0.00    -0.057 C 
ATOM     79  H   UNL     1      -6.607  13.766  19.976  0.00  0.00    +0.023 HD
ATOM     80  H   UNL     1      -6.877  15.357  20.725  0.00  0.00    +0.023 HD
ATOM     81  H   UNL     1      -7.530  15.006  19.155  0.00  0.00    +0.023 HD
ENDBRANCH  76  78
BRANCH  76  82
ATOM     82  C   UNL     1      -4.074  15.136  20.001  0.00  0.00    +0.067 C 
ATOM     83  H   UNL     1      -4.230  15.542  21.006  0.00  0.00    +0.060 HD
BRANCH  82  84
ATOM     84  C   UNL     1      -2.712  15.745  19.549  0.00  0.00    -0.017 C 
ATOM     85  H   UNL     1      -2.496  15.363  18.544  0.00  0.00    +0.032 HD
BRANCH  84  86
ATOM     86  C   UNL     1      -2.873  17.267  19.379  0.00  0.00    -0.060 C 
ATOM     87  H   UNL     1      -1.894  17.756  19.397  0.00  0.00    +0.023 HD
ATOM     88  H   UNL     1      -3.464  17.697  20.197  0.00  0.00    +0.023 HD
ATOM     89  H   UNL     1      -3.367  17.527  18.434  0.00  0.00    +0.023 HD
ENDBRANCH  84  86
BRANCH  84  90
ATOM     90  C   UNL     1      -1.452  15.473  20.405  0.00  0.00    -0.041 C 
ATOM     91  H   UNL     1      -1.499  14.434  20.759  0.00  0.00    +0.027 HD
ATOM     92  H   UNL     1      -1.502  16.064  21.323  0.00  0.00    +0.027 HD
BRANCH  90  93
ATOM     93  C   UNL     1      -0.094  15.705  19.748  0.00  0.00    +0.007 C 
ATOM     94  H   UNL     1       0.705  15.797  20.488  0.00  0.00    +0.034 HD
ATOM     95  H   UNL     1      -0.109  16.630  19.159  0.00  0.00    +0.034 HD
BRANCH  93  96
ATOM     96  C   UNL     1       0.279  14.578  18.791  0.00  0.00    +0.139 C 
ATOM     97  O   UNL     1      -0.611  13.981  18.176  0.00  0.00    -0.297 OA
BRANCH  96  98
ATOM     98  C   UNL     1       1.759  14.199  18.649  0.00  0.00    +0.041 C 
ATOM     99  H   UNL     1       2.064  14.596  17.679  0.00  0.00    +0.040 HD
BRANCH  98 100
ATOM    100  C   UNL     1       1.963  12.684  18.584  0.00  0.00    -0.053 C 
ATOM    101  H   UNL     1       2.864  12.364  19.116  0.00  0.00    +0.024 HD
ATOM    102  H   UNL     1       1.117  12.163  19.047  0.00  0.00    +0.024 HD
ATOM    103  H   UNL     1       2.021  12.338  17.545  0.00  0.00    +0.024 HD
ENDBRANCH  98 100
BRANCH  98 104
ATOM    104  C   UNL     1       2.647  14.891  19.713  0.00  0.00    +0.071 C 
ATOM    105  H   UNL     1       2.060  15.612  20.295  0.00  0.00    +0.061 HD
BRANCH 104 106
ATOM    106  C   UNL     1       3.372  13.953  20.710  0.00  0.00    -0.006 C 
ATOM    107  H   UNL     1       2.893  12.965  20.701  0.00  0.00    +0.033 HD
ATOM    108  H   UNL     1       4.383  13.769  20.324  0.00  0.00    +0.033 HD
BRANCH 106 109
ATOM    109  C   UNL     1       3.513  14.484  22.112  0.00  0.00    -0.067 C 
ATOM    110  C   UNL     1       4.323  15.504  22.426  0.00  0.00    -0.005 C 
ATOM    111  H   UNL     1       2.893  13.984  22.852  0.00  0.00    +0.059 HD
ATOM    112  H   UNL     1       4.882  15.993  21.630  0.00  0.00    +0.078 HD
BRANCH 110 113
ATOM    113  N   UNL     1       4.547  16.035  23.686  0.00  0.00    -0.284 N 
ATOM    114  C   UNL     1       4.486  17.389  24.011  0.00  0.00    +0.206 C 
ATOM    115  O   UNL     1       4.686  17.866  25.125  0.00  0.00    -0.279 OA
ATOM    116  H   UNL     1       4.224  18.042  23.170  0.00  0.00    +0.126 HD
BRANCH 113 117
ATOM    117  C   UNL     1       4.829  15.095  24.767  0.00  0.00    +0.007 C 
ATOM    118  H   UNL     1       3.885  14.623  25.066  0.00  0.00    +0.043 HD
ATOM    119  H   UNL     1       5.267  15.586  25.640  0.00  0.00    +0.043 HD
ATOM    120  H   UNL     1       5.527  14.328  24.412  0.00  0.00    +0.043 HD
ENDBRANCH 113 117
ENDBRANCH 110 113
ENDBRANCH 106 109
ENDBRANCH 104 106
BRANCH 104 121
ATOM    121  O   UNL     1       3.705  15.605  19.033  0.00  0.00    -0.379 OA
BRANCH 121 122
ATOM    122  C   UNL     1       4.885  14.827  18.849  0.00  0.00    +0.037 C 
ATOM    123  H   UNL     1       4.705  14.110  18.042  0.00  0.00    +0.052 HD
ATOM    124  H   UNL     1       5.729  15.460  18.568  0.00  0.00    +0.052 HD
ATOM    125  H   UNL     1       5.123  14.274  19.762  0.00  0.00    +0.052 HD
ENDBRANCH 121 122
ENDBRANCH 104 121
ENDBRANCH  98 104
ENDBRANCH  96  98
ENDBRANCH  93  96
ENDBRANCH  90  93
ENDBRANCH  84  90
ENDBRANCH  82  84
BRANCH  82 126
ATOM    126  O   UNL     1      -3.905  13.711  20.143  0.00  0.00    -0.379 OA
BRANCH 126 127
ATOM    127  C   UNL     1      -4.440  13.197  21.360  0.00  0.00    +0.037 C 
ATOM    128  H   UNL     1      -3.889  13.599  22.217  0.00  0.00    +0.052 HD
ATOM    129  H   UNL     1      -5.505  13.436  21.447  0.00  0.00    +0.052 HD
ATOM    130  H   UNL     1      -4.326  12.107  21.355  0.00  0.00    +0.052 HD
ENDBRANCH 126 127
ENDBRANCH  82 126
ENDBRANCH  76  82
ENDBRANCH  25  76
BRANCH  31 131
ATOM    131  O   UNL     1      -6.851  18.674  19.782  0.00  0.00    -0.379 OA
BRANCH 131 132
ATOM    132  C   UNL     1      -5.725  19.249  20.440  0.00  0.00    +0.037 C 
ATOM    133  H   UNL     1      -5.735  18.997  21.505  0.00  0.00    +0.052 HD
ATOM    134  H   UNL     1      -4.815  18.844  19.988  0.00  0.00    +0.052 HD
ATOM    135  H   UNL     1      -5.725  20.338  20.310  0.00  0.00    +0.052 HD
ENDBRANCH 131 132
ENDBRANCH  31 131
BRANCH  29 136
ATOM    136  O   UNL     1      -6.607  20.573  16.758  0.00  0.00    -0.376 OA
BRANCH 136 137
ATOM    137  C   UNL     1      -5.235  20.529  16.391  0.00  0.00    +0.037 C 
ATOM    138  H   UNL     1      -4.601  20.808  17.240  0.00  0.00    +0.052 HD
ATOM    139  H   UNL     1      -4.994  19.501  16.099  0.00  0.00    +0.052 HD
ATOM    140  H   UNL     1      -5.043  21.186  15.539  0.00  0.00    +0.052 HD
ENDBRANCH 136 137
ENDBRANCH  29 136
BRANCH  16 141
ATOM    141  O   UNL     1      -9.463   9.114  22.478  0.00  0.00    -0.379 OA
BRANCH 141 142
ATOM    142  C   UNL     1      -9.442   8.021  23.385  0.00  0.00    +0.037 C 
ATOM    143  H   UNL     1     -10.139   8.243  24.200  0.00  0.00    +0.052 HD
ATOM    144  H   UNL     1      -8.445   7.870  23.812  0.00  0.00    +0.052 HD
ATOM    145  H   UNL     1      -9.780   7.106  22.881  0.00  0.00    +0.052 HD
ENDBRANCH 141 142
ENDBRANCH  16 141
BRANCH   6 146
ATOM    146  O   UNL     1     -11.664  14.590  19.582  0.00  0.00    -0.379 OA
BRANCH 146 147
ATOM    147  C   UNL     1     -10.790  14.245  18.511  0.00  0.00    +0.037 C 
ATOM    148  H   UNL     1     -10.738  13.158  18.403  0.00  0.00    +0.052 HD
ATOM    149  H   UNL     1      -9.783  14.646  18.679  0.00  0.00    +0.052 HD
ATOM    150  H   UNL     1     -11.186  14.674  17.585  0.00  0.00    +0.052 HD
ENDBRANCH 146 147
ENDBRANCH   6 146
BRANCH   4 151
ATOM    151  O   UNL     1     -12.434  17.305  18.578  0.00  0.00    -0.376 OA
BRANCH 151 152
ATOM    152  C   UNL     1     -12.032  18.253  17.595  0.00  0.00    +0.037 C 
ATOM    153  H   UNL     1     -11.890  17.766  16.625  0.00  0.00    +0.052 HD
ATOM    154  H   UNL     1     -12.827  18.991  17.494  0.00  0.00    +0.052 HD
ATOM    155  H   UNL     1     -11.113  18.763  17.896  0.00  0.00    +0.052 HD
ENDBRANCH 151 152
ENDBRANCH   4 151
TORSDOF 33
ENDMDL
MODEL 2
REMARK VINA RESULT:      -5.4      4.310      9.285
REMARK  Name = Reidispongiolide A_conf3
REMARK  33 active torsions:
REMARK  status: ('A' for Active; 'I' for Inactive)
REMARK    1  A    between atoms: C_1  and  C_2
REMARK    2  A    between atoms: C_5  and  O_67
REMARK    3  A    between atoms: C_7  and  O_65
REMARK    4  A    between atoms: C_8  and  C_64
REMARK    5  A    between atoms: C_17  and  O_62
REMARK    6  A    between atoms: C_19  and  C_61
REMARK    7  A    between atoms: C_26  and  C_38
REMARK    8  A    between atoms: C_27  and  C_37
REMARK    9  A    between atoms: C_30  and  O_35
REMARK   10  A    between atoms: C_32  and  O_33
REMARK   11  A    between atoms: O_33  and  C_34
REMARK   12  A    between atoms: O_35  and  C_36
REMARK   13  A    between atoms: C_38  and  C_39
REMARK   14  A    between atoms: C_38  and  C_40
REMARK   15  A    between atoms: C_40  and  C_41
REMARK   16  A    between atoms: C_40  and  O_59
REMARK   17  A    between atoms: C_41  and  C_42
REMARK   18  A    between atoms: C_41  and  C_43
REMARK   19  A    between atoms: C_43  and  C_44
REMARK   20  A    between atoms: C_44  and  C_45
REMARK   21  A    between atoms: C_45  and  C_47
REMARK   22  A    between atoms: C_47  and  C_48
REMARK   23  A    between atoms: C_47  and  C_49
REMARK   24  A    between atoms: C_49  and  C_50
REMARK   25  A    between atoms: C_49  and  O_57
REMARK   26  A    between atoms: C_50  and  C_51
REMARK   27  A    between atoms: C_52  and  N_53
REMARK   28  A    between atoms: N_53  and  C_54
REMARK   29  A    between atoms: O_57  and  C_58
REMARK   30  A    between atoms: O_59  and  C_60
REMARK   31  A    between atoms: O_62  and  C_63
REMARK   32  A    between atoms: O_65  and  C_66
REMARK   33  A    between atoms: O_67  and  C_68
REMARK                            x       y       z     vdW  Elec       q    Type
REMARK                         _______ _______ _______ _____ _____    ______ ____
ROOT
ATOM      1  C   UNL     1      -3.981  14.982  20.559  0.00  0.00    +0.001 C 
ATOM      2  C   UNL     1      -4.916  15.551  21.619  0.00  0.00    -0.080 C 
ATOM      3  C   UNL     1      -5.010  16.845  21.977  0.00  0.00    -0.059 C 
ATOM      4  C   UNL     1      -5.843  17.504  23.047  0.00  0.00    +0.079 C 
ATOM      5  C   UNL     1      -6.661  16.617  24.005  0.00  0.00    +0.004 C 
ATOM      6  C   UNL     1      -7.935  15.955  23.432  0.00  0.00    +0.067 C 
ATOM      7  C   UNL     1      -8.425  14.741  24.279  0.00  0.00    +0.020 C 
ATOM      8  C   UNL     1      -8.740  15.093  25.770  0.00  0.00    +0.112 C 
ATOM      9  C   UNL     1     -10.166  15.615  26.051  0.00  0.00    +0.006 C 
ATOM     10  C   UNL     1     -11.155  14.522  26.356  0.00  0.00    -0.057 C 
ATOM     11  C   UNL     1     -10.713  13.296  26.687  0.00  0.00    +0.022 C 
ATOM     12  C   UNL     1      -9.284  12.972  26.839  0.00  0.00    +0.332 C 
ATOM     13  O   UNL     1      -8.925  11.857  27.198  0.00  0.00    -0.246 OA
ATOM     14  O   UNL     1      -8.408  13.984  26.645  0.00  0.00    -0.458 OA
ATOM     15  C   UNL     1     -12.624  14.898  26.495  0.00  0.00    -0.004 C 
ATOM     16  C   UNL     1     -13.750  14.164  25.707  0.00  0.00    +0.066 C 
ATOM     17  C   UNL     1     -14.072  14.772  24.315  0.00  0.00    -0.005 C 
ATOM     18  C   UNL     1     -13.393  14.210  23.078  0.00  0.00    -0.070 C 
ATOM     19  C   UNL     1     -14.124  13.880  21.990  0.00  0.00    -0.062 C 
ATOM     20  C   UNL     1     -13.591  13.370  20.743  0.00  0.00    -0.055 C 
ATOM     21  C   UNL     1     -12.729  14.054  19.974  0.00  0.00    +0.023 C 
ATOM     22  C   UNL     1     -12.118  13.390  18.813  0.00  0.00    +0.332 C 
ATOM     23  O   UNL     1     -12.596  12.440  18.211  0.00  0.00    -0.246 OA
ATOM     24  O   UNL     1     -10.909  13.959  18.598  0.00  0.00    -0.457 OA
ATOM     25  C   UNL     1      -9.953  13.164  17.861  0.00  0.00    +0.114 C 
ATOM     26  C   UNL     1      -9.264  14.010  16.743  0.00  0.00    +0.012 C 
ATOM     27  C   UNL     1      -8.204  14.987  17.198  0.00  0.00    -0.079 C 
ATOM     28  C   UNL     1      -6.920  14.919  16.792  0.00  0.00    -0.059 C 
ATOM     29  C   UNL     1      -5.843  15.898  17.169  0.00  0.00    +0.079 C 
ATOM     30  C   UNL     1      -5.465  15.944  18.663  0.00  0.00    +0.004 C 
ATOM     31  C   UNL     1      -4.658  14.734  19.174  0.00  0.00    +0.067 C 
ATOM     32  H   UNL     1      -3.670  14.001  20.951  0.00  0.00    +0.037 HD
ATOM     33  H   UNL     1      -5.533  14.803  22.109  0.00  0.00    +0.057 HD
ATOM     34  H   UNL     1      -4.394  17.567  21.446  0.00  0.00    +0.059 HD
ATOM     35  H   UNL     1      -5.107  18.032  23.673  0.00  0.00    +0.064 HD
ATOM     36  H   UNL     1      -6.966  17.259  24.838  0.00  0.00    +0.032 HD
ATOM     37  H   UNL     1      -5.984  15.865  24.420  0.00  0.00    +0.032 HD
ATOM     38  H   UNL     1      -7.727  15.598  22.416  0.00  0.00    +0.060 HD
ATOM     39  H   UNL     1      -9.358  14.394  23.829  0.00  0.00    +0.036 HD
ATOM     40  H   UNL     1      -8.057  15.887  26.088  0.00  0.00    +0.074 HD
ATOM     41  H   UNL     1     -10.524  16.233  25.222  0.00  0.00    +0.035 HD
ATOM     42  H   UNL     1     -10.127  16.266  26.935  0.00  0.00    +0.035 HD
ATOM     43  H   UNL     1     -11.387  12.494  26.976  0.00  0.00    +0.069 HD
ATOM     44  H   UNL     1     -12.740  15.984  26.351  0.00  0.00    +0.034 HD
ATOM     45  H   UNL     1     -12.854  14.744  27.563  0.00  0.00    +0.034 HD
ATOM     46  H   UNL     1     -14.649  14.341  26.318  0.00  0.00    +0.060 HD
ATOM     47  H   UNL     1     -13.893  15.857  24.343  0.00  0.00    +0.034 HD
ATOM     48  H   UNL     1     -15.156  14.667  24.180  0.00  0.00    +0.034 HD
ATOM     49  H   UNL     1     -15.212  13.958  22.016  0.00  0.00    +0.062 HD
ATOM     50  H   UNL     1     -13.921  12.373  20.455  0.00  0.00    +0.062 HD
ATOM     51  H   UNL     1     -12.377  15.045  20.224  0.00  0.00    +0.069 HD
ATOM     52  H   UNL     1     -10.491  12.389  17.302  0.00  0.00    +0.074 HD
ATOM     53  H   UNL     1      -8.785  13.277  16.080  0.00  0.00    +0.038 HD
ATOM     54  H   UNL     1      -8.520  15.791  17.864  0.00  0.00    +0.057 HD
ATOM     55  H   UNL     1      -6.627  14.122  16.106  0.00  0.00    +0.059 HD
ATOM     56  H   UNL     1      -6.188  16.901  16.878  0.00  0.00    +0.064 HD
ATOM     57  H   UNL     1      -6.379  16.076  19.256  0.00  0.00    +0.032 HD
ATOM     58  H   UNL     1      -4.851  16.844  18.796  0.00  0.00    +0.032 HD
ATOM     59  H   UNL     1      -3.858  14.509  18.455  0.00  0.00    +0.060 HD
ENDROOT
BRANCH   1  60
ATOM     60  C   UNL     1      -2.683  15.787  20.388  0.00  0.00    -0.057 C 
ATOM     61  H   UNL     1      -2.726  16.394  19.478  0.00  0.00    +0.024 HD
ATOM     62  H   UNL     1      -1.819  15.121  20.294  0.00  0.00    +0.024 HD
ATOM     63  H   UNL     1      -2.497  16.464  21.225  0.00  0.00    +0.024 HD
ENDBRANCH   1  60
BRANCH  26  64
ATOM     64  C   UNL     1     -10.317  14.758  15.913  0.00  0.00    -0.056 C 
ATOM     65  H   UNL     1      -9.860  15.264  15.053  0.00  0.00    +0.024 HD
ATOM     66  H   UNL     1     -10.830  15.511  16.516  0.00  0.00    +0.024 HD
ATOM     67  H   UNL     1     -11.077  14.065  15.543  0.00  0.00    +0.024 HD
ENDBRANCH  26  64
BRANCH  18  68
ATOM     68  C   UNL     1     -11.902  14.080  23.155  0.00  0.00    -0.043 C 
ATOM     69  H   UNL     1     -11.491  13.811  22.180  0.00  0.00    +0.027 HD
ATOM     70  H   UNL     1     -11.387  14.995  23.452  0.00  0.00    +0.027 HD
ATOM     71  H   UNL     1     -11.657  13.313  23.890  0.00  0.00    +0.027 HD
ENDBRANCH  18  68
BRANCH   7  72
ATOM     72  C   UNL     1      -7.439  13.574  24.133  0.00  0.00    -0.057 C 
ATOM     73  H   UNL     1      -7.967  12.649  23.894  0.00  0.00    +0.023 HD
ATOM     74  H   UNL     1      -6.698  13.754  23.349  0.00  0.00    +0.023 HD
ATOM     75  H   UNL     1      -6.908  13.397  25.071  0.00  0.00    +0.023 HD
ENDBRANCH   7  72
BRANCH  25  76
ATOM     76  C   UNL     1      -8.980  12.462  18.873  0.00  0.00    +0.020 C 
ATOM     77  H   UNL     1      -7.970  12.568  18.460  0.00  0.00    +0.036 HD
BRANCH  76  78
ATOM     78  C   UNL     1      -8.994  13.158  20.239  0.00  0.00    -0.057 C 
ATOM     79  H   UNL     1      -9.918  13.713  20.419  0.00  0.00    +0.023 HD
ATOM     80  H   UNL     1      -8.851  12.433  21.041  0.00  0.00    +0.023 HD
ATOM     81  H   UNL     1      -8.176  13.873  20.344  0.00  0.00    +0.023 HD
ENDBRANCH  76  78
BRANCH  76  82
ATOM     82  C   UNL     1      -9.287  10.922  18.926  0.00  0.00    +0.067 C 
ATOM     83  H   UNL     1     -10.037  10.694  18.160  0.00  0.00    +0.060 HD
BRANCH  82  84
ATOM     84  C   UNL     1      -9.860  10.282  20.226  0.00  0.00    -0.017 C 
ATOM     85  H   UNL     1      -9.846  11.050  21.008  0.00  0.00    +0.032 HD
BRANCH  84  86
ATOM     86  C   UNL     1     -11.348   9.948  20.010  0.00  0.00    -0.060 C 
ATOM     87  H   UNL     1     -11.977  10.611  20.612  0.00  0.00    +0.023 HD
ATOM     88  H   UNL     1     -11.573   8.920  20.319  0.00  0.00    +0.023 HD
ATOM     89  H   UNL     1     -11.646  10.057  18.959  0.00  0.00    +0.023 HD
ENDBRANCH  84  86
BRANCH  84  90
ATOM     90  C   UNL     1      -9.155   9.038  20.817  0.00  0.00    -0.041 C 
ATOM     91  H   UNL     1      -8.299   9.382  21.414  0.00  0.00    +0.027 HD
ATOM     92  H   UNL     1      -8.696   8.462  20.010  0.00  0.00    +0.027 HD
BRANCH  90  93
ATOM     93  C   UNL     1      -9.998   8.093  21.671  0.00  0.00    +0.007 C 
ATOM     94  H   UNL     1      -9.675   7.054  21.568  0.00  0.00    +0.034 HD
ATOM     95  H   UNL     1     -11.051   8.145  21.370  0.00  0.00    +0.034 HD
BRANCH  93  96
ATOM     96  C   UNL     1      -9.943   8.458  23.151  0.00  0.00    +0.139 C 
ATOM     97  O   UNL     1      -9.045   7.995  23.861  0.00  0.00    -0.297 OA
BRANCH  96  98
ATOM     98  C   UNL     1     -11.038   9.372  23.718  0.00  0.00    +0.041 C 
ATOM     99  H   UNL     1     -11.806   9.413  22.943  0.00  0.00    +0.040 HD
BRANCH  98 100
ATOM    100  C   UNL     1     -10.545  10.807  23.918  0.00  0.00    -0.053 C 
ATOM    101  H   UNL     1     -10.067  11.210  23.019  0.00  0.00    +0.024 HD
ATOM    102  H   UNL     1     -11.383  11.470  24.158  0.00  0.00    +0.024 HD
ATOM    103  H   UNL     1      -9.838  10.869  24.754  0.00  0.00    +0.024 HD
ENDBRANCH  98 100
BRANCH  98 104
ATOM    104  C   UNL     1     -11.708   8.774  24.979  0.00  0.00    +0.071 C 
ATOM    105  H   UNL     1     -11.484   7.703  25.063  0.00  0.00    +0.061 HD
BRANCH 104 106
ATOM    106  C   UNL     1     -11.344   9.444  26.327  0.00  0.00    -0.006 C 
ATOM    107  H   UNL     1     -10.642  10.269  26.151  0.00  0.00    +0.033 HD
ATOM    108  H   UNL     1     -12.248   9.932  26.714  0.00  0.00    +0.033 HD
BRANCH 106 109
ATOM    109  C   UNL     1     -10.841   8.512  27.397  0.00  0.00    -0.067 C 
ATOM    110  C   UNL     1      -9.541   8.381  27.697  0.00  0.00    -0.005 C 
ATOM    111  H   UNL     1     -11.617   7.960  27.922  0.00  0.00    +0.059 HD
ATOM    112  H   UNL     1      -8.818   8.998  27.166  0.00  0.00    +0.078 HD
BRANCH 110 113
ATOM    113  N   UNL     1      -8.982   7.527  28.633  0.00  0.00    -0.284 N 
ATOM    114  C   UNL     1      -8.392   6.296  28.349  0.00  0.00    +0.206 C 
ATOM    115  O   UNL     1      -7.897   5.534  29.175  0.00  0.00    -0.279 OA
ATOM    116  H   UNL     1      -8.385   6.036  27.284  0.00  0.00    +0.126 HD
BRANCH 113 117
ATOM    117  C   UNL     1      -8.972   7.973  30.023  0.00  0.00    +0.007 C 
ATOM    118  H   UNL     1      -9.941   8.441  30.240  0.00  0.00    +0.043 HD
ATOM    119  H   UNL     1      -8.181   8.701  30.220  0.00  0.00    +0.043 HD
ATOM    120  H   UNL     1      -8.826   7.110  30.683  0.00  0.00    +0.043 HD
ENDBRANCH 113 117
ENDBRANCH 110 113
ENDBRANCH 106 109
ENDBRANCH 104 106
BRANCH 104 121
ATOM    121  O   UNL     1     -13.141   8.932  24.856  0.00  0.00    -0.379 OA
BRANCH 121 122
ATOM    122  C   UNL     1     -13.627   8.671  23.541  0.00  0.00    +0.037 C 
ATOM    123  H   UNL     1     -14.032   7.654  23.517  0.00  0.00    +0.052 HD
ATOM    124  H   UNL     1     -14.424   9.367  23.275  0.00  0.00    +0.052 HD
ATOM    125  H   UNL     1     -12.813   8.741  22.813  0.00  0.00    +0.052 HD
ENDBRANCH 121 122
ENDBRANCH 104 121
ENDBRANCH  98 104
ENDBRANCH  96  98
ENDBRANCH  93  96
ENDBRANCH  90  93
ENDBRANCH  84  90
ENDBRANCH  82  84
BRANCH  82 126
ATOM    126  O   UNL     1      -8.085  10.213  18.566  0.00  0.00    -0.379 OA
BRANCH 126 127
ATOM    127  C   UNL     1      -7.798  10.261  17.171  0.00  0.00    +0.037 C 
ATOM    128  H   UNL     1      -7.787  11.298  16.820  0.00  0.00    +0.052 HD
ATOM    129  H   UNL     1      -6.839   9.777  16.955  0.00  0.00    +0.052 HD
ATOM    130  H   UNL     1      -8.588   9.723  16.636  0.00  0.00    +0.052 HD
ENDBRANCH 126 127
ENDBRANCH  82 126
ENDBRANCH  76  82
ENDBRANCH  25  76
BRANCH  31 131
ATOM    131  O   UNL     1      -5.534  13.599  19.288  0.00  0.00    -0.379 OA
BRANCH 131 132
ATOM    132  C   UNL     1      -4.921  12.400  18.821  0.00  0.00    +0.037 C 
ATOM    133  H   UNL     1      -4.348  12.594  17.910  0.00  0.00    +0.052 HD
ATOM    134  H   UNL     1      -4.241  12.033  19.596  0.00  0.00    +0.052 HD
ATOM    135  H   UNL     1      -5.682  11.633  18.632  0.00  0.00    +0.052 HD
ENDBRANCH 131 132
ENDBRANCH  31 131
BRANCH  29 136
ATOM    136  O   UNL     1      -4.673  15.545  16.410  0.00  0.00    -0.376 OA
BRANCH 136 137
ATOM    137  C   UNL     1      -4.892  15.563  15.006  0.00  0.00    +0.037 C 
ATOM    138  H   UNL     1      -5.957  15.440  14.782  0.00  0.00    +0.052 HD
ATOM    139  H   UNL     1      -4.566  16.537  14.624  0.00  0.00    +0.052 HD
ATOM    140  H   UNL     1      -4.305  14.783  14.515  0.00  0.00    +0.052 HD
ENDBRANCH 136 137
ENDBRANCH  29 136
BRANCH  16 141
ATOM    141  O   UNL     1     -13.521  12.753  25.689  0.00  0.00    -0.379 OA
BRANCH 141 142
ATOM    142  C   UNL     1     -14.702  11.975  25.829  0.00  0.00    +0.037 C 
ATOM    143  H   UNL     1     -15.215  12.300  26.740  0.00  0.00    +0.052 HD
ATOM    144  H   UNL     1     -14.474  10.908  25.920  0.00  0.00    +0.052 HD
ATOM    145  H   UNL     1     -15.369  12.149  24.975  0.00  0.00    +0.052 HD
ENDBRANCH 141 142
ENDBRANCH  16 141
BRANCH   6 146
ATOM    146  O   UNL     1      -8.988  16.926  23.397  0.00  0.00    -0.379 OA
BRANCH 146 147
ATOM    147  C   UNL     1      -9.730  16.883  22.181  0.00  0.00    +0.037 C 
ATOM    148  H   UNL     1     -10.352  17.779  22.089  0.00  0.00    +0.052 HD
ATOM    149  H   UNL     1     -10.363  15.990  22.136  0.00  0.00    +0.052 HD
ATOM    150  H   UNL     1      -9.026  16.854  21.344  0.00  0.00    +0.052 HD
ENDBRANCH 146 147
ENDBRANCH   6 146
BRANCH   4 151
ATOM    151  O   UNL     1      -6.642  18.477  22.367  0.00  0.00    -0.376 OA
BRANCH 151 152
ATOM    152  C   UNL     1      -5.996  19.041  21.230  0.00  0.00    +0.037 C 
ATOM    153  H   UNL     1      -6.510  18.749  20.309  0.00  0.00    +0.052 HD
ATOM    154  H   UNL     1      -6.045  20.126  21.319  0.00  0.00    +0.052 HD
ATOM    155  H   UNL     1      -4.947  18.738  21.185  0.00  0.00    +0.052 HD
ENDBRANCH 151 152
ENDBRANCH   4 151
TORSDOF 33
ENDMDL
MODEL 3
REMARK VINA RESULT:      -5.3      2.647      4.654
REMARK  Name = Reidispongiolide A_conf3
REMARK  33 active torsions:
REMARK  status: ('A' for Active; 'I' for Inactive)
REMARK    1  A    between atoms: C_1  and  C_2
REMARK    2  A    between atoms: C_5  and  O_67
REMARK    3  A    between atoms: C_7  and  O_65
REMARK    4  A    between atoms: C_8  and  C_64
REMARK    5  A    between atoms: C_17  and  O_62
REMARK    6  A    between atoms: C_19  and  C_61
REMARK    7  A    between atoms: C_26  and  C_38
REMARK    8  A    between atoms: C_27  and  C_37
REMARK    9  A    between atoms: C_30  and  O_35
REMARK   10  A    between atoms: C_32  and  O_33
REMARK   11  A    between atoms: O_33  and  C_34
REMARK   12  A    between atoms: O_35  and  C_36
REMARK   13  A    between atoms: C_38  and  C_39
REMARK   14  A    between atoms: C_38  and  C_40
REMARK   15  A    between atoms: C_40  and  C_41
REMARK   16  A    between atoms: C_40  and  O_59
REMARK   17  A    between atoms: C_41  and  C_42
REMARK   18  A    between atoms: C_41  and  C_43
REMARK   19  A    between atoms: C_43  and  C_44
REMARK   20  A    between atoms: C_44  and  C_45
REMARK   21  A    between atoms: C_45  and  C_47
REMARK   22  A    between atoms: C_47  and  C_48
REMARK   23  A    between atoms: C_47  and  C_49
REMARK   24  A    between atoms: C_49  and  C_50
REMARK   25  A    between atoms: C_49  and  O_57
REMARK   26  A    between atoms: C_50  and  C_51
REMARK   27  A    between atoms: C_52  and  N_53
REMARK   28  A    between atoms: N_53  and  C_54
REMARK   29  A    between atoms: O_57  and  C_58
REMARK   30  A    between atoms: O_59  and  C_60
REMARK   31  A    between atoms: O_62  and  C_63
REMARK   32  A    between atoms: O_65  and  C_66
REMARK   33  A    between atoms: O_67  and  C_68
REMARK                            x       y       z     vdW  Elec       q    Type
REMARK                         _______ _______ _______ _____ _____    ______ ____
ROOT
ATOM      1  C   UNL     1     -10.737  16.906  17.889  0.00  0.00    +0.001 C 
ATOM      2  C   UNL     1     -11.462  16.392  19.129  0.00  0.00    -0.080 C 
ATOM      3  C   UNL     1     -12.795  16.359  19.307  0.00  0.00    -0.059 C 
ATOM      4  C   UNL     1     -13.610  15.938  20.503  0.00  0.00    +0.079 C 
ATOM      5  C   UNL     1     -12.880  15.584  21.813  0.00  0.00    +0.004 C 
ATOM      6  C   UNL     1     -12.133  14.231  21.856  0.00  0.00    +0.067 C 
ATOM      7  C   UNL     1     -11.064  14.160  22.989  0.00  0.00    +0.020 C 
ATOM      8  C   UNL     1     -11.643  14.394  24.424  0.00  0.00    +0.112 C 
ATOM      9  C   UNL     1     -12.198  13.142  25.137  0.00  0.00    +0.006 C 
ATOM     10  C   UNL     1     -11.163  12.402  25.941  0.00  0.00    -0.057 C 
ATOM     11  C   UNL     1     -10.005  13.007  26.256  0.00  0.00    +0.022 C 
ATOM     12  C   UNL     1      -9.712  14.409  25.910  0.00  0.00    +0.332 C 
ATOM     13  O   UNL     1      -8.668  14.942  26.265  0.00  0.00    -0.246 OA
ATOM     14  O   UNL     1     -10.684  15.091  25.261  0.00  0.00    -0.458 OA
ATOM     15  C   UNL     1     -11.552  11.066  26.561  0.00  0.00    -0.004 C 
ATOM     16  C   UNL     1     -10.700   9.776  26.362  0.00  0.00    +0.066 C 
ATOM     17  C   UNL     1     -11.084   8.931  25.118  0.00  0.00    -0.005 C 
ATOM     18  C   UNL     1     -10.338   9.140  23.812  0.00  0.00    -0.070 C 
ATOM     19  C   UNL     1      -9.841   8.082  23.132  0.00  0.00    -0.062 C 
ATOM     20  C   UNL     1      -9.145   8.150  21.864  0.00  0.00    -0.055 C 
ATOM     21  C   UNL     1      -9.703   8.627  20.741  0.00  0.00    +0.023 C 
ATOM     22  C   UNL     1      -8.870   8.808  19.543  0.00  0.00    +0.332 C 
ATOM     23  O   UNL     1      -7.836   8.201  19.305  0.00  0.00    -0.246 OA
ATOM     24  O   UNL     1      -9.402   9.818  18.815  0.00  0.00    -0.457 OA
ATOM     25  C   UNL     1      -8.504  10.482  17.897  0.00  0.00    +0.114 C 
ATOM     26  C   UNL     1      -9.169  10.660  16.495  0.00  0.00    +0.012 C 
ATOM     27  C   UNL     1     -10.207  11.752  16.378  0.00  0.00    -0.079 C 
ATOM     28  C   UNL     1     -10.081  12.800  15.537  0.00  0.00    -0.059 C 
ATOM     29  C   UNL     1     -11.109  13.878  15.342  0.00  0.00    +0.079 C 
ATOM     30  C   UNL     1     -11.388  14.774  16.565  0.00  0.00    +0.004 C 
ATOM     31  C   UNL     1     -10.276  15.784  16.907  0.00  0.00    +0.067 C 
ATOM     32  H   UNL     1      -9.830  17.397  18.274  0.00  0.00    +0.037 HD
ATOM     33  H   UNL     1     -10.797  16.045  19.915  0.00  0.00    +0.057 HD
ATOM     34  H   UNL     1     -13.428  16.692  18.487  0.00  0.00    +0.059 HD
ATOM     35  H   UNL     1     -14.231  16.819  20.727  0.00  0.00    +0.064 HD
ATOM     36  H   UNL     1     -13.643  15.568  22.599  0.00  0.00    +0.032 HD
ATOM     37  H   UNL     1     -12.204  16.410  22.049  0.00  0.00    +0.032 HD
ATOM     38  H   UNL     1     -11.623  14.073  20.898  0.00  0.00    +0.060 HD
ATOM     39  H   UNL     1     -10.649  13.150  22.973  0.00  0.00    +0.036 HD
ATOM     40  H   UNL     1     -12.479  15.097  24.347  0.00  0.00    +0.074 HD
ATOM     41  H   UNL     1     -12.679  12.468  24.421  0.00  0.00    +0.035 HD
ATOM     42  H   UNL     1     -12.979  13.463  25.839  0.00  0.00    +0.035 HD
ATOM     43  H   UNL     1      -9.255  12.537  26.886  0.00  0.00    +0.069 HD
ATOM     44  H   UNL     1     -12.601  10.841  26.316  0.00  0.00    +0.034 HD
ATOM     45  H   UNL     1     -11.564  11.254  27.648  0.00  0.00    +0.034 HD
ATOM     46  H   UNL     1     -10.967   9.156  27.231  0.00  0.00    +0.060 HD
ATOM     47  H   UNL     1     -12.160   9.041  24.922  0.00  0.00    +0.034 HD
ATOM     48  H   UNL     1     -10.955   7.881  25.412  0.00  0.00    +0.034 HD
ATOM     49  H   UNL     1      -9.919   7.078  23.550  0.00  0.00    +0.062 HD
ATOM     50  H   UNL     1      -8.114   7.799  21.866  0.00  0.00    +0.062 HD
ATOM     51  H   UNL     1     -10.723   8.985  20.696  0.00  0.00    +0.069 HD
ATOM     52  H   UNL     1      -7.650   9.825  17.695  0.00  0.00    +0.074 HD
ATOM     53  H   UNL     1      -8.342  10.906  15.813  0.00  0.00    +0.038 HD
ATOM     54  H   UNL     1     -11.104  11.654  16.991  0.00  0.00    +0.057 HD
ATOM     55  H   UNL     1      -9.188  12.868  14.913  0.00  0.00    +0.059 HD
ATOM     56  H   UNL     1     -12.054  13.390  15.060  0.00  0.00    +0.064 HD
ATOM     57  H   UNL     1     -11.609  14.136  17.430  0.00  0.00    +0.032 HD
ATOM     58  H   UNL     1     -12.300  15.339  16.330  0.00  0.00    +0.032 HD
ATOM     59  H   UNL     1      -9.944  16.276  15.982  0.00  0.00    +0.060 HD
ENDROOT
BRANCH   1  60
ATOM     60  C   UNL     1     -11.509  17.999  17.135  0.00  0.00    -0.057 C 
ATOM     61  H   UNL     1     -10.862  18.487  16.400  0.00  0.00    +0.024 HD
ATOM     62  H   UNL     1     -11.864  18.774  17.822  0.00  0.00    +0.024 HD
ATOM     63  H   UNL     1     -12.375  17.604  16.597  0.00  0.00    +0.024 HD
ENDBRANCH   1  60
BRANCH  26  64
ATOM     64  C   UNL     1      -9.775   9.333  16.018  0.00  0.00    -0.056 C 
ATOM     65  H   UNL     1     -10.852   9.431  15.832  0.00  0.00    +0.024 HD
ATOM     66  H   UNL     1      -9.631   8.545  16.762  0.00  0.00    +0.024 HD
ATOM     67  H   UNL     1      -9.294   9.000  15.095  0.00  0.00    +0.024 HD
ENDBRANCH  26  64
BRANCH  18  68
ATOM     68  C   UNL     1     -10.227  10.561  23.346  0.00  0.00    -0.043 C 
ATOM     69  H   UNL     1     -11.152  10.877  22.861  0.00  0.00    +0.027 HD
ATOM     70  H   UNL     1     -10.047  11.282  24.144  0.00  0.00    +0.027 HD
ATOM     71  H   UNL     1      -9.393  10.633  22.646  0.00  0.00    +0.027 HD
ENDBRANCH  18  68
BRANCH   7  72
ATOM     72  C   UNL     1      -9.892  15.092  22.655  0.00  0.00    -0.057 C 
ATOM     73  H   UNL     1      -9.434  14.813  21.705  0.00  0.00    +0.023 HD
ATOM     74  H   UNL     1     -10.200  16.139  22.590  0.00  0.00    +0.023 HD
ATOM     75  H   UNL     1      -9.108  15.015  23.414  0.00  0.00    +0.023 HD
ENDBRANCH   7  72
BRANCH  25  76
ATOM     76  C   UNL     1      -7.971  11.799  18.563  0.00  0.00    +0.020 C 
ATOM     77  H   UNL     1      -8.222  12.619  17.881  0.00  0.00    +0.036 HD
BRANCH  76  78
ATOM     78  C   UNL     1      -8.677  12.079  19.896  0.00  0.00    -0.057 C 
ATOM     79  H   UNL     1      -9.759  11.946  19.835  0.00  0.00    +0.023 HD
ATOM     80  H   UNL     1      -8.282  11.434  20.682  0.00  0.00    +0.023 HD
ATOM     81  H   UNL     1      -8.507  13.099  20.244  0.00  0.00    +0.023 HD
ENDBRANCH  76  78
BRANCH  76  82
ATOM     82  C   UNL     1      -6.404  11.752  18.656  0.00  0.00    +0.067 C 
ATOM     83  H   UNL     1      -6.124  10.958  19.358  0.00  0.00    +0.060 HD
BRANCH  82  84
ATOM     84  C   UNL     1      -5.610  12.999  19.152  0.00  0.00    -0.017 C 
ATOM     85  H   UNL     1      -6.314  13.837  19.214  0.00  0.00    +0.032 HD
BRANCH  84  86
ATOM     86  C   UNL     1      -5.139  12.754  20.598  0.00  0.00    -0.060 C 
ATOM     87  H   UNL     1      -5.990  12.796  21.286  0.00  0.00    +0.023 HD
ATOM     88  H   UNL     1      -4.425  13.523  20.918  0.00  0.00    +0.023 HD
ATOM     89  H   UNL     1      -4.655  11.776  20.713  0.00  0.00    +0.023 HD
ENDBRANCH  84  86
BRANCH  84  90
ATOM     90  C   UNL     1      -4.406  13.496  18.317  0.00  0.00    -0.041 C 
ATOM     91  H   UNL     1      -4.339  12.875  17.412  0.00  0.00    +0.027 HD
ATOM     92  H   UNL     1      -3.478  13.279  18.851  0.00  0.00    +0.027 HD
BRANCH  90  93
ATOM     93  C   UNL     1      -4.398  14.965  17.903  0.00  0.00    +0.007 C 
ATOM     94  H   UNL     1      -5.382  15.426  18.020  0.00  0.00    +0.034 HD
ATOM     95  H   UNL     1      -4.111  15.062  16.848  0.00  0.00    +0.034 HD
BRANCH  93  96
ATOM     96  C   UNL     1      -3.396  15.782  18.710  0.00  0.00    +0.139 C 
ATOM     97  O   UNL     1      -3.419  17.016  18.645  0.00  0.00    -0.297 OA
BRANCH  96  98
ATOM     98  C   UNL     1      -2.361  15.033  19.560  0.00  0.00    +0.041 C 
ATOM     99  H   UNL     1      -2.525  13.976  19.345  0.00  0.00    +0.040 HD
BRANCH  98 100
ATOM    100  C   UNL     1      -2.605  15.215  21.060  0.00  0.00    -0.053 C 
ATOM    101  H   UNL     1      -3.666  15.136  21.319  0.00  0.00    +0.024 HD
ATOM    102  H   UNL     1      -2.079  14.442  21.630  0.00  0.00    +0.024 HD
ATOM    103  H   UNL     1      -2.226  16.183  21.407  0.00  0.00    +0.024 HD
ENDBRANCH  98 100
BRANCH  98 104
ATOM    104  C   UNL     1      -0.907  15.355  19.134  0.00  0.00    +0.071 C 
ATOM    105  H   UNL     1      -0.832  16.388  18.772  0.00  0.00    +0.061 HD
BRANCH 104 106
ATOM    106  C   UNL     1       0.182  15.149  20.216  0.00  0.00    -0.006 C 
ATOM    107  H   UNL     1       0.060  15.899  21.009  0.00  0.00    +0.033 HD
ATOM    108  H   UNL     1      -0.016  14.191  20.714  0.00  0.00    +0.033 HD
BRANCH 106 109
ATOM    109  C   UNL     1       1.599  15.111  19.709  0.00  0.00    -0.067 C 
ATOM    110  C   UNL     1       2.663  15.271  20.507  0.00  0.00    -0.005 C 
ATOM    111  H   UNL     1       1.696  14.929  18.641  0.00  0.00    +0.059 HD
ATOM    112  H   UNL     1       2.500  15.403  21.575  0.00  0.00    +0.078 HD
BRANCH 110 113
ATOM    113  N   UNL     1       3.996  15.290  20.129  0.00  0.00    -0.284 N 
ATOM    114  C   UNL     1       4.716  14.190  19.664  0.00  0.00    +0.206 C 
ATOM    115  O   UNL     1       5.898  14.200  19.330  0.00  0.00    -0.279 OA
ATOM    116  H   UNL     1       4.131  13.265  19.598  0.00  0.00    +0.126 HD
BRANCH 113 117
ATOM    117  C   UNL     1       4.689  16.574  20.185  0.00  0.00    +0.007 C 
ATOM    118  H   UNL     1       3.986  17.357  19.874  0.00  0.00    +0.043 HD
ATOM    119  H   UNL     1       5.560  16.604  19.526  0.00  0.00    +0.043 HD
ATOM    120  H   UNL     1       5.021  16.766  21.212  0.00  0.00    +0.043 HD
ENDBRANCH 113 117
ENDBRANCH 110 113
ENDBRANCH 106 109
ENDBRANCH 104 106
BRANCH 104 121
ATOM    121  O   UNL     1      -0.537  14.464  18.056  0.00  0.00    -0.379 OA
BRANCH 121 122
ATOM    122  C   UNL     1      -0.352  15.132  16.810  0.00  0.00    +0.037 C 
ATOM    123  H   UNL     1      -1.013  14.672  16.069  0.00  0.00    +0.052 HD
ATOM    124  H   UNL     1      -0.609  16.189  16.892  0.00  0.00    +0.052 HD
ATOM    125  H   UNL     1       0.682  15.026  16.470  0.00  0.00    +0.052 HD
ENDBRANCH 121 122
ENDBRANCH 104 121
ENDBRANCH  98 104
ENDBRANCH  96  98
ENDBRANCH  93  96
ENDBRANCH  90  93
ENDBRANCH  84  90
ENDBRANCH  82  84
BRANCH  82 126
ATOM    126  O   UNL     1      -5.889  11.375  17.364  0.00  0.00    -0.379 OA
BRANCH 126 127
ATOM    127  C   UNL     1      -5.201  10.127  17.372  0.00  0.00    +0.037 C 
ATOM    128  H   UNL     1      -5.743   9.398  17.984  0.00  0.00    +0.052 HD
ATOM    129  H   UNL     1      -5.074   9.747  16.353  0.00  0.00    +0.052 HD
ATOM    130  H   UNL     1      -4.210  10.281  17.813  0.00  0.00    +0.052 HD
ENDBRANCH 126 127
ENDBRANCH  82 126
ENDBRANCH  76  82
ENDBRANCH  25  76
BRANCH  31 131
ATOM    131  O   UNL     1      -9.169  15.082  17.500  0.00  0.00    -0.379 OA
BRANCH 131 132
ATOM    132  C   UNL     1      -7.920  15.704  17.207  0.00  0.00    +0.037 C 
ATOM    133  H   UNL     1      -8.035  16.791  17.171  0.00  0.00    +0.052 HD
ATOM    134  H   UNL     1      -7.212  15.448  18.001  0.00  0.00    +0.052 HD
ATOM    135  H   UNL     1      -7.525  15.333  16.254  0.00  0.00    +0.052 HD
ENDBRANCH 131 132
ENDBRANCH  31 131
BRANCH  29 136
ATOM    136  O   UNL     1     -10.646  14.707  14.262  0.00  0.00    -0.376 OA
BRANCH 136 137
ATOM    137  C   UNL     1     -10.826  14.111  12.984  0.00  0.00    +0.037 C 
ATOM    138  H   UNL     1     -10.946  13.026  13.080  0.00  0.00    +0.052 HD
ATOM    139  H   UNL     1     -11.739  14.524  12.541  0.00  0.00    +0.052 HD
ATOM    140  H   UNL     1      -9.984  14.345  12.328  0.00  0.00    +0.052 HD
ENDBRANCH 136 137
ENDBRANCH  29 136
BRANCH  16 141
ATOM    141  O   UNL     1      -9.304  10.068  26.463  0.00  0.00    -0.379 OA
BRANCH 141 142
ATOM    142  C   UNL     1      -8.751   9.801  27.743  0.00  0.00    +0.037 C 
ATOM    143  H   UNL     1      -7.773  10.292  27.799  0.00  0.00    +0.052 HD
ATOM    144  H   UNL     1      -8.610   8.727  27.906  0.00  0.00    +0.052 HD
ATOM    145  H   UNL     1      -9.394  10.221  28.527  0.00  0.00    +0.052 HD
ENDBRANCH 141 142
ENDBRANCH  16 141
BRANCH   6 146
ATOM    146  O   UNL     1     -13.084  13.182  22.077  0.00  0.00    -0.379 OA
BRANCH 146 147
ATOM    147  C   UNL     1     -12.853  12.051  21.241  0.00  0.00    +0.037 C 
ATOM    148  H   UNL     1     -11.811  12.039  20.907  0.00  0.00    +0.052 HD
ATOM    149  H   UNL     1     -13.518  12.062  20.370  0.00  0.00    +0.052 HD
ATOM    150  H   UNL     1     -13.050  11.143  21.819  0.00  0.00    +0.052 HD
ENDBRANCH 146 147
ENDBRANCH   6 146
BRANCH   4 151
ATOM    151  O   UNL     1     -14.463  14.888  20.037  0.00  0.00    -0.376 OA
BRANCH 151 152
ATOM    152  C   UNL     1     -14.786  14.996  18.654  0.00  0.00    +0.037 C 
ATOM    153  H   UNL     1     -15.820  14.688  18.475  0.00  0.00    +0.052 HD
ATOM    154  H   UNL     1     -14.686  16.042  18.366  0.00  0.00    +0.052 HD
ATOM    155  H   UNL     1     -14.105  14.395  18.045  0.00  0.00    +0.052 HD
ENDBRANCH 151 152
ENDBRANCH   4 151
TORSDOF 33
ENDMDL
MODEL 4
REMARK VINA RESULT:      -5.3      2.506      4.488
REMARK  Name = Reidispongiolide A_conf3
REMARK  33 active torsions:
REMARK  status: ('A' for Active; 'I' for Inactive)
REMARK    1  A    between atoms: C_1  and  C_2
REMARK    2  A    between atoms: C_5  and  O_67
REMARK    3  A    between atoms: C_7  and  O_65
REMARK    4  A    between atoms: C_8  and  C_64
REMARK    5  A    between atoms: C_17  and  O_62
REMARK    6  A    between atoms: C_19  and  C_61
REMARK    7  A    between atoms: C_26  and  C_38
REMARK    8  A    between atoms: C_27  and  C_37
REMARK    9  A    between atoms: C_30  and  O_35
REMARK   10  A    between atoms: C_32  and  O_33
REMARK   11  A    between atoms: O_33  and  C_34
REMARK   12  A    between atoms: O_35  and  C_36
REMARK   13  A    between atoms: C_38  and  C_39
REMARK   14  A    between atoms: C_38  and  C_40
REMARK   15  A    between atoms: C_40  and  C_41
REMARK   16  A    between atoms: C_40  and  O_59
REMARK   17  A    between atoms: C_41  and  C_42
REMARK   18  A    between atoms: C_41  and  C_43
REMARK   19  A    between atoms: C_43  and  C_44
REMARK   20  A    between atoms: C_44  and  C_45
REMARK   21  A    between atoms: C_45  and  C_47
REMARK   22  A    between atoms: C_47  and  C_48
REMARK   23  A    between atoms: C_47  and  C_49
REMARK   24  A    between atoms: C_49  and  C_50
REMARK   25  A    between atoms: C_49  and  O_57
REMARK   26  A    between atoms: C_50  and  C_51
REMARK   27  A    between atoms: C_52  and  N_53
REMARK   28  A    between atoms: N_53  and  C_54
REMARK   29  A    between atoms: O_57  and  C_58
REMARK   30  A    between atoms: O_59  and  C_60
REMARK   31  A    between atoms: O_62  and  C_63
REMARK   32  A    between atoms: O_65  and  C_66
REMARK   33  A    between atoms: O_67  and  C_68
REMARK                            x       y       z     vdW  Elec       q    Type
REMARK                         _______ _______ _______ _____ _____    ______ ____
ROOT
ATOM      1  C   UNL     1      -6.775  17.153  21.343  0.00  0.00    +0.001 C 
ATOM      2  C   UNL     1      -7.881  16.690  22.285  0.00  0.00    -0.080 C 
ATOM      3  C   UNL     1      -9.001  17.373  22.583  0.00  0.00    -0.059 C 
ATOM      4  C   UNL     1     -10.120  17.046  23.539  0.00  0.00    +0.079 C 
ATOM      5  C   UNL     1      -9.985  15.806  24.445  0.00  0.00    +0.004 C 
ATOM      6  C   UNL     1     -10.164  14.426  23.774  0.00  0.00    +0.067 C 
ATOM      7  C   UNL     1      -9.563  13.257  24.614  0.00  0.00    +0.020 C 
ATOM      8  C   UNL     1     -10.165  13.134  26.053  0.00  0.00    +0.112 C 
ATOM      9  C   UNL     1     -11.457  12.296  26.172  0.00  0.00    +0.006 C 
ATOM     10  C   UNL     1     -11.201  10.833  26.419  0.00  0.00    -0.057 C 
ATOM     11  C   UNL     1      -9.989  10.429  26.838  0.00  0.00    +0.022 C 
ATOM     12  C   UNL     1      -8.892  11.365  27.142  0.00  0.00    +0.332 C 
ATOM     13  O   UNL     1      -7.821  10.961  27.576  0.00  0.00    -0.246 OA
ATOM     14  O   UNL     1      -9.160  12.683  26.997  0.00  0.00    -0.458 OA
ATOM     15  C   UNL     1     -12.389   9.881  26.398  0.00  0.00    -0.004 C 
ATOM     16  C   UNL     1     -12.403   8.586  25.531  0.00  0.00    +0.066 C 
ATOM     17  C   UNL     1     -12.956   8.774  24.093  0.00  0.00    -0.005 C 
ATOM     18  C   UNL     1     -11.993   9.046  22.951  0.00  0.00    -0.070 C 
ATOM     19  C   UNL     1     -12.068   8.326  21.809  0.00  0.00    -0.062 C 
ATOM     20  C   UNL     1     -11.233   8.514  20.641  0.00  0.00    -0.055 C 
ATOM     21  C   UNL     1     -11.196   9.655  19.936  0.00  0.00    +0.023 C 
ATOM     22  C   UNL     1     -10.199   9.809  18.866  0.00  0.00    +0.332 C 
ATOM     23  O   UNL     1      -9.671   8.890  18.256  0.00  0.00    -0.246 OA
ATOM     24  O   UNL     1      -9.912  11.127  18.750  0.00  0.00    -0.457 OA
ATOM     25  C   UNL     1      -8.642  11.451  18.141  0.00  0.00    +0.114 C 
ATOM     26  C   UNL     1      -8.807  12.572  17.066  0.00  0.00    +0.012 C 
ATOM     27  C   UNL     1      -8.996  13.979  17.585  0.00  0.00    -0.079 C 
ATOM     28  C   UNL     1      -8.140  14.984  17.311  0.00  0.00    -0.059 C 
ATOM     29  C   UNL     1      -8.313  16.410  17.755  0.00  0.00    +0.079 C 
ATOM     30  C   UNL     1      -8.258  16.655  19.276  0.00  0.00    +0.004 C 
ATOM     31  C   UNL     1      -6.857  16.542  19.909  0.00  0.00    +0.067 C 
ATOM     32  H   UNL     1      -5.842  16.788  21.801  0.00  0.00    +0.037 HD
ATOM     33  H   UNL     1      -7.696  15.722  22.739  0.00  0.00    +0.057 HD
ATOM     34  H   UNL     1      -9.163  18.329  22.087  0.00  0.00    +0.059 HD
ATOM     35  H   UNL     1     -10.158  17.915  24.214  0.00  0.00    +0.064 HD
ATOM     36  H   UNL     1     -10.753  15.903  25.219  0.00  0.00    +0.032 HD
ATOM     37  H   UNL     1      -9.018  15.870  24.952  0.00  0.00    +0.032 HD
ATOM     38  H   UNL     1      -9.665  14.433  22.798  0.00  0.00    +0.060 HD
ATOM     39  H   UNL     1      -9.802  12.331  24.088  0.00  0.00    +0.036 HD
ATOM     40  H   UNL     1     -10.420  14.138  26.406  0.00  0.00    +0.074 HD
ATOM     41  H   UNL     1     -12.089  12.429  25.289  0.00  0.00    +0.035 HD
ATOM     42  H   UNL     1     -12.032  12.669  27.030  0.00  0.00    +0.035 HD
ATOM     43  H   UNL     1      -9.776   9.395  27.089  0.00  0.00    +0.069 HD
ATOM     44  H   UNL     1     -13.311  10.450  26.203  0.00  0.00    +0.034 HD
ATOM     45  H   UNL     1     -12.498   9.545  27.444  0.00  0.00    +0.034 HD
ATOM     46  H   UNL     1     -13.135   7.942  26.044  0.00  0.00    +0.060 HD
ATOM     47  H   UNL     1     -13.718   9.567  24.097  0.00  0.00    +0.034 HD
ATOM     48  H   UNL     1     -13.506   7.854  23.856  0.00  0.00    +0.034 HD
ATOM     49  H   UNL     1     -12.781   7.505  21.725  0.00  0.00    +0.062 HD
ATOM     50  H   UNL     1     -10.607   7.667  20.360  0.00  0.00    +0.062 HD
ATOM     51  H   UNL     1     -11.799  10.518  20.181  0.00  0.00    +0.069 HD
ATOM     52  H   UNL     1      -8.294  10.588  17.561  0.00  0.00    +0.074 HD
ATOM     53  H   UNL     1      -7.877  12.551  16.480  0.00  0.00    +0.038 HD
ATOM     54  H   UNL     1      -9.885  14.173  18.186  0.00  0.00    +0.057 HD
ATOM     55  H   UNL     1      -7.268  14.777  16.687  0.00  0.00    +0.059 HD
ATOM     56  H   UNL     1      -9.293  16.754  17.393  0.00  0.00    +0.064 HD
ATOM     57  H   UNL     1      -8.961  15.973  19.770  0.00  0.00    +0.032 HD
ATOM     58  H   UNL     1      -8.622  17.678  19.435  0.00  0.00    +0.032 HD
ATOM     59  H   UNL     1      -6.137  17.085  19.281  0.00  0.00    +0.060 HD
ENDROOT
BRANCH   1  60
ATOM     60  C   UNL     1      -6.628  18.681  21.271  0.00  0.00    -0.057 C 
ATOM     61  H   UNL     1      -6.596  19.013  20.228  0.00  0.00    +0.024 HD
ATOM     62  H   UNL     1      -5.698  19.008  21.746  0.00  0.00    +0.024 HD
ATOM     63  H   UNL     1      -7.457  19.204  21.755  0.00  0.00    +0.024 HD
ENDBRANCH   1  60
BRANCH  26  64
ATOM     64  C   UNL     1      -9.958  12.229  16.108  0.00  0.00    -0.056 C 
ATOM     65  H   UNL     1      -9.660  12.372  15.061  0.00  0.00    +0.024 HD
ATOM     66  H   UNL     1     -10.830  12.858  16.300  0.00  0.00    +0.024 HD
ATOM     67  H   UNL     1     -10.270  11.190  16.240  0.00  0.00    +0.024 HD
ENDBRANCH  26  64
BRANCH  18  68
ATOM     68  C   UNL     1     -11.008  10.152  23.179  0.00  0.00    -0.043 C 
ATOM     69  H   UNL     1     -10.490  10.013  24.130  0.00  0.00    +0.027 HD
ATOM     70  H   UNL     1     -10.225  10.220  22.422  0.00  0.00    +0.027 HD
ATOM     71  H   UNL     1     -11.545  11.101  23.180  0.00  0.00    +0.027 HD
ENDBRANCH  18  68
BRANCH   7  72
ATOM     72  C   UNL     1      -8.031  13.349  24.610  0.00  0.00    -0.057 C 
ATOM     73  H   UNL     1      -7.637  13.297  25.626  0.00  0.00    +0.023 HD
ATOM     74  H   UNL     1      -7.570  12.549  24.025  0.00  0.00    +0.023 HD
ATOM     75  H   UNL     1      -7.703  14.307  24.196  0.00  0.00    +0.023 HD
ENDBRANCH   7  72
BRANCH  25  76
ATOM     76  C   UNL     1      -7.593  11.748  19.269  0.00  0.00    +0.020 C 
ATOM     77  H   UNL     1      -7.226  12.766  19.095  0.00  0.00    +0.036 HD
BRANCH  76  78
ATOM     78  C   UNL     1      -8.241  11.725  20.658  0.00  0.00    -0.057 C 
ATOM     79  H   UNL     1      -9.333  11.704  20.613  0.00  0.00    +0.023 HD
ATOM     80  H   UNL     1      -7.891  10.866  21.232  0.00  0.00    +0.023 HD
ATOM     81  H   UNL     1      -7.971  12.600  21.252  0.00  0.00    +0.023 HD
ENDBRANCH  76  78
BRANCH  76  82
ATOM     82  C   UNL     1      -6.358  10.789  19.113  0.00  0.00    +0.067 C 
ATOM     83  H   UNL     1      -5.935  10.609  20.107  0.00  0.00    +0.060 HD
BRANCH  82  84
ATOM     84  C   UNL     1      -5.135  11.220  18.248  0.00  0.00    -0.017 C 
ATOM     85  H   UNL     1      -4.232  10.833  18.734  0.00  0.00    +0.032 HD
BRANCH  84  86
ATOM     86  C   UNL     1      -5.204  10.503  16.887  0.00  0.00    -0.060 C 
ATOM     87  H   UNL     1      -5.967  10.966  16.252  0.00  0.00    +0.023 HD
ATOM     88  H   UNL     1      -5.480   9.448  17.007  0.00  0.00    +0.023 HD
ATOM     89  H   UNL     1      -4.247  10.542  16.351  0.00  0.00    +0.023 HD
ENDBRANCH  84  86
BRANCH  84  90
ATOM     90  C   UNL     1      -4.892  12.728  18.001  0.00  0.00    -0.041 C 
ATOM     91  H   UNL     1      -5.802  13.272  18.290  0.00  0.00    +0.027 HD
ATOM     92  H   UNL     1      -4.808  12.912  16.927  0.00  0.00    +0.027 HD
BRANCH  90  93
ATOM     93  C   UNL     1      -3.697  13.370  18.701  0.00  0.00    +0.007 C 
ATOM     94  H   UNL     1      -2.766  12.841  18.483  0.00  0.00    +0.034 HD
ATOM     95  H   UNL     1      -3.840  13.354  19.789  0.00  0.00    +0.034 HD
BRANCH  93  96
ATOM     96  C   UNL     1      -3.515  14.829  18.301  0.00  0.00    +0.139 C 
ATOM     97  O   UNL     1      -3.974  15.229  17.226  0.00  0.00    -0.297 OA
BRANCH  96  98
ATOM     98  C   UNL     1      -2.731  15.753  19.243  0.00  0.00    +0.041 C 
ATOM     99  H   UNL     1      -2.871  15.329  20.240  0.00  0.00    +0.040 HD
BRANCH  98 100
ATOM    100  C   UNL     1      -3.317  17.166  19.284  0.00  0.00    -0.053 C 
ATOM    101  H   UNL     1      -4.050  17.334  18.489  0.00  0.00    +0.024 HD
ATOM    102  H   UNL     1      -3.833  17.339  20.235  0.00  0.00    +0.024 HD
ATOM    103  H   UNL     1      -2.527  17.923  19.206  0.00  0.00    +0.024 HD
ENDBRANCH  98 100
BRANCH  98 104
ATOM    104  C   UNL     1      -1.209  15.729  18.958  0.00  0.00    +0.071 C 
ATOM    105  H   UNL     1      -0.890  16.672  18.495  0.00  0.00    +0.061 HD
BRANCH 104 106
ATOM    106  C   UNL     1      -0.291  15.461  20.176  0.00  0.00    -0.006 C 
ATOM    107  H   UNL     1      -0.571  16.128  21.002  0.00  0.00    +0.033 HD
ATOM    108  H   UNL     1      -0.516  14.454  20.551  0.00  0.00    +0.033 HD
BRANCH 106 109
ATOM    109  C   UNL     1       1.187  15.521  19.897  0.00  0.00    -0.067 C 
ATOM    110  C   UNL     1       2.019  14.502  20.156  0.00  0.00    -0.005 C 
ATOM    111  H   UNL     1       1.530  16.453  19.455  0.00  0.00    +0.059 HD
ATOM    112  H   UNL     1       1.605  13.578  20.556  0.00  0.00    +0.078 HD
BRANCH 110 113
ATOM    113  N   UNL     1       3.391  14.477  19.970  0.00  0.00    -0.284 N 
ATOM    114  C   UNL     1       4.177  15.574  19.620  0.00  0.00    +0.206 C 
ATOM    115  O   UNL     1       5.393  15.557  19.452  0.00  0.00    -0.279 OA
ATOM    116  H   UNL     1       3.617  16.510  19.506  0.00  0.00    +0.126 HD
BRANCH 113 117
ATOM    117  C   UNL     1       4.074  13.207  20.202  0.00  0.00    +0.007 C 
ATOM    118  H   UNL     1       3.912  12.567  19.326  0.00  0.00    +0.043 HD
ATOM    119  H   UNL     1       3.697  12.690  21.088  0.00  0.00    +0.043 HD
ATOM    120  H   UNL     1       5.147  13.387  20.332  0.00  0.00    +0.043 HD
ENDBRANCH 113 117
ENDBRANCH 110 113
ENDBRANCH 106 109
ENDBRANCH 104 106
BRANCH 104 121
ATOM    121  O   UNL     1      -0.932  14.651  18.034  0.00  0.00    -0.379 OA
BRANCH 121 122
ATOM    122  C   UNL     1      -0.308  15.086  16.828  0.00  0.00    +0.037 C 
ATOM    123  H   UNL     1       0.767  15.182  17.010  0.00  0.00    +0.052 HD
ATOM    124  H   UNL     1      -0.460  14.361  16.027  0.00  0.00    +0.052 HD
ATOM    125  H   UNL     1      -0.701  16.062  16.526  0.00  0.00    +0.052 HD
ENDBRANCH 121 122
ENDBRANCH 104 121
ENDBRANCH  98 104
ENDBRANCH  96  98
ENDBRANCH  93  96
ENDBRANCH  90  93
ENDBRANCH  84  90
ENDBRANCH  82  84
BRANCH  82 126
ATOM    126  O   UNL     1      -6.835   9.521  18.620  0.00  0.00    -0.379 OA
BRANCH 126 127
ATOM    127  C   UNL     1      -6.476   8.421  19.451  0.00  0.00    +0.037 C 
ATOM    128  H   UNL     1      -7.024   7.522  19.150  0.00  0.00    +0.052 HD
ATOM    129  H   UNL     1      -5.397   8.240  19.411  0.00  0.00    +0.052 HD
ATOM    130  H   UNL     1      -6.751   8.663  20.484  0.00  0.00    +0.052 HD
ENDBRANCH 126 127
ENDBRANCH  82 126
ENDBRANCH  76  82
ENDBRANCH  25  76
BRANCH  31 131
ATOM    131  O   UNL     1      -6.483  15.155  19.979  0.00  0.00    -0.379 OA
BRANCH 131 132
ATOM    132  C   UNL     1      -5.762  14.852  21.171  0.00  0.00    +0.037 C 
ATOM    133  H   UNL     1      -6.432  14.430  21.925  0.00  0.00    +0.052 HD
ATOM    134  H   UNL     1      -4.989  14.117  20.931  0.00  0.00    +0.052 HD
ATOM    135  H   UNL     1      -5.277  15.755  21.560  0.00  0.00    +0.052 HD
ENDBRANCH 131 132
ENDBRANCH  31 131
BRANCH  29 136
ATOM    136  O   UNL     1      -7.266  17.173  17.129  0.00  0.00    -0.376 OA
BRANCH 136 137
ATOM    137  C   UNL     1      -7.486  18.576  17.190  0.00  0.00    +0.037 C 
ATOM    138  H   UNL     1      -6.705  19.111  16.637  0.00  0.00    +0.052 HD
ATOM    139  H   UNL     1      -8.453  18.790  16.721  0.00  0.00    +0.052 HD
ATOM    140  H   UNL     1      -7.520  18.915  18.228  0.00  0.00    +0.052 HD
ENDBRANCH 136 137
ENDBRANCH  29 136
BRANCH  16 141
ATOM    141  O   UNL     1     -11.139   7.921  25.590  0.00  0.00    -0.379 OA
BRANCH 141 142
ATOM    142  C   UNL     1     -11.109   6.820  26.486  0.00  0.00    +0.037 C 
ATOM    143  H   UNL     1     -10.938   5.910  25.900  0.00  0.00    +0.052 HD
ATOM    144  H   UNL     1     -12.055   6.712  27.026  0.00  0.00    +0.052 HD
ATOM    145  H   UNL     1     -10.279   6.934  27.196  0.00  0.00    +0.052 HD
ENDBRANCH 141 142
ENDBRANCH  16 141
BRANCH   6 146
ATOM    146  O   UNL     1     -11.564  14.172  23.600  0.00  0.00    -0.379 OA
BRANCH 146 147
ATOM    147  C   UNL     1     -11.864  13.630  22.316  0.00  0.00    +0.037 C 
ATOM    148  H   UNL     1     -11.406  12.642  22.210  0.00  0.00    +0.052 HD
ATOM    149  H   UNL     1     -11.507  14.289  21.516  0.00  0.00    +0.052 HD
ATOM    150  H   UNL     1     -12.950  13.529  22.225  0.00  0.00    +0.052 HD
ENDBRANCH 146 147
ENDBRANCH   6 146
BRANCH   4 151
ATOM    151  O   UNL     1     -11.311  17.033  22.747  0.00  0.00    -0.376 OA
BRANCH 151 152
ATOM    152  C   UNL     1     -12.431  17.620  23.404  0.00  0.00    +0.037 C 
ATOM    153  H   UNL     1     -13.350  17.431  22.841  0.00  0.00    +0.052 HD
ATOM    154  H   UNL     1     -12.528  17.153  24.384  0.00  0.00    +0.052 HD
ATOM    155  H   UNL     1     -12.287  18.695  23.537  0.00  0.00    +0.052 HD
ENDBRANCH 151 152
ENDBRANCH   4 151
TORSDOF 33
ENDMDL
MODEL 5
REMARK VINA RESULT:      -5.3      4.097      6.315
REMARK  Name = Reidispongiolide A_conf3
REMARK  33 active torsions:
REMARK  status: ('A' for Active; 'I' for Inactive)
REMARK    1  A    between atoms: C_1  and  C_2
REMARK    2  A    between atoms: C_5  and  O_67
REMARK    3  A    between atoms: C_7  and  O_65
REMARK    4  A    between atoms: C_8  and  C_64
REMARK    5  A    between atoms: C_17  and  O_62
REMARK    6  A    between atoms: C_19  and  C_61
REMARK    7  A    between atoms: C_26  and  C_38
REMARK    8  A    between atoms: C_27  and  C_37
REMARK    9  A    between atoms: C_30  and  O_35
REMARK   10  A    between atoms: C_32  and  O_33
REMARK   11  A    between atoms: O_33  and  C_34
REMARK   12  A    between atoms: O_35  and  C_36
REMARK   13  A    between atoms: C_38  and  C_39
REMARK   14  A    between atoms: C_38  and  C_40
REMARK   15  A    between atoms: C_40  and  C_41
REMARK   16  A    between atoms: C_40  and  O_59
REMARK   17  A    between atoms: C_41  and  C_42
REMARK   18  A    between atoms: C_41  and  C_43
REMARK   19  A    between atoms: C_43  and  C_44
REMARK   20  A    between atoms: C_44  and  C_45
REMARK   21  A    between atoms: C_45  and  C_47
REMARK   22  A    between atoms: C_47  and  C_48
REMARK   23  A    between atoms: C_47  and  C_49
REMARK   24  A    between atoms: C_49  and  C_50
REMARK   25  A    between atoms: C_49  and  O_57
REMARK   26  A    between atoms: C_50  and  C_51
REMARK   27  A    between atoms: C_52  and  N_53
REMARK   28  A    between atoms: N_53  and  C_54
REMARK   29  A    between atoms: O_57  and  C_58
REMARK   30  A    between atoms: O_59  and  C_60
REMARK   31  A    between atoms: O_62  and  C_63
REMARK   32  A    between atoms: O_65  and  C_66
REMARK   33  A    between atoms: O_67  and  C_68
REMARK                            x       y       z     vdW  Elec       q    Type
REMARK                         _______ _______ _______ _____ _____    ______ ____
ROOT
ATOM      1  C   UNL     1     -10.561  16.825  18.054  0.00  0.00    +0.001 C 
ATOM      2  C   UNL     1     -11.303  16.366  19.305  0.00  0.00    -0.080 C 
ATOM      3  C   UNL     1     -12.635  16.400  19.489  0.00  0.00    -0.059 C 
ATOM      4  C   UNL     1     -13.463  16.038  20.696  0.00  0.00    +0.079 C 
ATOM      5  C   UNL     1     -12.744  15.670  22.009  0.00  0.00    +0.004 C 
ATOM      6  C   UNL     1     -12.063  14.284  22.070  0.00  0.00    +0.067 C 
ATOM      7  C   UNL     1     -10.993  14.180  23.199  0.00  0.00    +0.020 C 
ATOM      8  C   UNL     1     -11.552  14.464  24.632  0.00  0.00    +0.112 C 
ATOM      9  C   UNL     1     -12.163  13.252  25.368  0.00  0.00    +0.006 C 
ATOM     10  C   UNL     1     -11.160  12.475  26.179  0.00  0.00    -0.057 C 
ATOM     11  C   UNL     1      -9.973  13.029  26.479  0.00  0.00    +0.022 C 
ATOM     12  C   UNL     1      -9.615  14.410  26.109  0.00  0.00    +0.332 C 
ATOM     13  O   UNL     1      -8.545  14.897  26.451  0.00  0.00    -0.246 OA
ATOM     14  O   UNL     1     -10.556  15.127  25.454  0.00  0.00    -0.458 OA
ATOM     15  C   UNL     1     -11.610  11.170  26.823  0.00  0.00    -0.004 C 
ATOM     16  C   UNL     1     -10.823   9.838  26.640  0.00  0.00    +0.066 C 
ATOM     17  C   UNL     1     -11.253   8.992  25.412  0.00  0.00    -0.005 C 
ATOM     18  C   UNL     1     -10.505   9.144  24.099  0.00  0.00    -0.070 C 
ATOM     19  C   UNL     1     -10.063   8.053  23.435  0.00  0.00    -0.062 C 
ATOM     20  C   UNL     1      -9.372   8.067  22.162  0.00  0.00    -0.055 C 
ATOM     21  C   UNL     1      -9.912   8.552  21.034  0.00  0.00    +0.023 C 
ATOM     22  C   UNL     1      -9.077   8.674  19.830  0.00  0.00    +0.332 C 
ATOM     23  O   UNL     1      -8.074   8.013  19.597  0.00  0.00    -0.246 OA
ATOM     24  O   UNL     1      -9.563   9.696  19.088  0.00  0.00    -0.457 OA
ATOM     25  C   UNL     1      -8.639  10.302  18.156  0.00  0.00    +0.114 C 
ATOM     26  C   UNL     1      -9.302  10.489  16.754  0.00  0.00    +0.012 C 
ATOM     27  C   UNL     1     -10.288  11.628  16.624  0.00  0.00    -0.079 C 
ATOM     28  C   UNL     1     -10.115  12.655  15.766  0.00  0.00    -0.059 C 
ATOM     29  C   UNL     1     -11.092  13.778  15.558  0.00  0.00    +0.079 C 
ATOM     30  C   UNL     1     -11.321  14.706  16.768  0.00  0.00    +0.004 C 
ATOM     31  C   UNL     1     -10.159  15.666  17.088  0.00  0.00    +0.067 C 
ATOM     32  H   UNL     1      -9.629  17.278  18.427  0.00  0.00    +0.037 HD
ATOM     33  H   UNL     1     -10.652  16.000  20.093  0.00  0.00    +0.057 HD
ATOM     34  H   UNL     1     -13.255  16.750  18.667  0.00  0.00    +0.059 HD
ATOM     35  H   UNL     1     -14.040  16.952  20.909  0.00  0.00    +0.064 HD
ATOM     36  H   UNL     1     -13.503  15.704  22.797  0.00  0.00    +0.032 HD
ATOM     37  H   UNL     1     -12.028  16.466  22.228  0.00  0.00    +0.032 HD
ATOM     38  H   UNL     1     -11.566  14.086  21.113  0.00  0.00    +0.060 HD
ATOM     39  H   UNL     1     -10.627  13.151  23.197  0.00  0.00    +0.036 HD
ATOM     40  H   UNL     1     -12.354  15.205  24.548  0.00  0.00    +0.074 HD
ATOM     41  H   UNL     1     -12.679  12.591  24.665  0.00  0.00    +0.035 HD
ATOM     42  H   UNL     1     -12.924  13.621  26.069  0.00  0.00    +0.035 HD
ATOM     43  H   UNL     1      -9.244  12.534  27.113  0.00  0.00    +0.069 HD
ATOM     44  H   UNL     1     -12.670  10.991  26.586  0.00  0.00    +0.034 HD
ATOM     45  H   UNL     1     -11.608  11.376  27.907  0.00  0.00    +0.034 HD
ATOM     46  H   UNL     1     -11.115   9.245  27.521  0.00  0.00    +0.060 HD
ATOM     47  H   UNL     1     -12.324   9.151  25.219  0.00  0.00    +0.034 HD
ATOM     48  H   UNL     1     -11.174   7.942  25.723  0.00  0.00    +0.034 HD
ATOM     49  H   UNL     1     -10.187   7.060  23.870  0.00  0.00    +0.062 HD
ATOM     50  H   UNL     1      -8.358   7.666  22.165  0.00  0.00    +0.062 HD
ATOM     51  H   UNL     1     -10.913   8.958  20.989  0.00  0.00    +0.069 HD
ATOM     52  H   UNL     1      -7.819   9.601  17.960  0.00  0.00    +0.074 HD
ATOM     53  H   UNL     1      -8.469  10.684  16.064  0.00  0.00    +0.038 HD
ATOM     54  H   UNL     1     -11.185  11.583  17.242  0.00  0.00    +0.057 HD
ATOM     55  H   UNL     1      -9.223  12.670  15.136  0.00  0.00    +0.059 HD
ATOM     56  H   UNL     1     -12.060  13.332  15.288  0.00  0.00    +0.064 HD
ATOM     57  H   UNL     1     -11.567  14.093  17.643  0.00  0.00    +0.032 HD
ATOM     58  H   UNL     1     -12.205  15.310  16.528  0.00  0.00    +0.032 HD
ATOM     59  H   UNL     1      -9.809  16.127  16.154  0.00  0.00    +0.060 HD
ENDROOT
BRANCH   1  60
ATOM     60  C   UNL     1     -11.283  17.942  17.285  0.00  0.00    -0.057 C 
ATOM     61  H   UNL     1     -12.138  18.311  17.861  0.00  0.00    +0.024 HD
ATOM     62  H   UNL     1     -11.669  17.573  16.329  0.00  0.00    +0.024 HD
ATOM     63  H   UNL     1     -10.634  18.796  17.079  0.00  0.00    +0.024 HD
ENDBRANCH   1  60
BRANCH  26  64
ATOM     64  C   UNL     1      -9.974   9.185  16.301  0.00  0.00    -0.056 C 
ATOM     65  H   UNL     1     -10.957   9.059  16.774  0.00  0.00    +0.024 HD
ATOM     66  H   UNL     1      -9.362   8.318  16.559  0.00  0.00    +0.024 HD
ATOM     67  H   UNL     1     -10.108   9.178  15.217  0.00  0.00    +0.024 HD
ENDBRANCH  26  64
BRANCH  18  68
ATOM     68  C   UNL     1     -10.328  10.550  23.610  0.00  0.00    -0.043 C 
ATOM     69  H   UNL     1      -9.422  10.990  24.032  0.00  0.00    +0.027 HD
ATOM     70  H   UNL     1     -10.226  10.639  22.528  0.00  0.00    +0.027 HD
ATOM     71  H   UNL     1     -11.201  11.134  23.906  0.00  0.00    +0.027 HD
ENDBRANCH  18  68
BRANCH   7  72
ATOM     72  C   UNL     1      -9.778  15.049  22.845  0.00  0.00    -0.057 C 
ATOM     73  H   UNL     1      -8.862  14.456  22.853  0.00  0.00    +0.023 HD
ATOM     74  H   UNL     1      -9.875  15.513  21.860  0.00  0.00    +0.023 HD
ATOM     75  H   UNL     1      -9.643  15.843  23.584  0.00  0.00    +0.023 HD
ENDBRANCH   7  72
BRANCH  25  76
ATOM     76  C   UNL     1      -8.041  11.602  18.798  0.00  0.00    +0.020 C 
ATOM     77  H   UNL     1      -8.162  12.401  18.058  0.00  0.00    +0.036 HD
BRANCH  76  78
ATOM     78  C   UNL     1      -8.817  12.016  20.054  0.00  0.00    -0.057 C 
ATOM     79  H   UNL     1      -8.880  11.215  20.794  0.00  0.00    +0.023 HD
ATOM     80  H   UNL     1      -8.362  12.894  20.515  0.00  0.00    +0.023 HD
ATOM     81  H   UNL     1      -9.843  12.309  19.824  0.00  0.00    +0.023 HD
ENDBRANCH  76  78
BRANCH  76  82
ATOM     82  C   UNL     1      -6.496  11.422  19.021  0.00  0.00    +0.067 C 
ATOM     83  H   UNL     1      -6.275  11.613  20.077  0.00  0.00    +0.060 HD
BRANCH  82  84
ATOM     84  C   UNL     1      -5.483  12.322  18.250  0.00  0.00    -0.017 C 
ATOM     85  H   UNL     1      -4.879  11.668  17.610  0.00  0.00    +0.032 HD
BRANCH  84  86
ATOM     86  C   UNL     1      -6.257  13.237  17.282  0.00  0.00    -0.060 C 
ATOM     87  H   UNL     1      -7.291  12.892  17.181  0.00  0.00    +0.023 HD
ATOM     88  H   UNL     1      -5.811  13.223  16.280  0.00  0.00    +0.023 HD
ATOM     89  H   UNL     1      -6.277  14.279  17.627  0.00  0.00    +0.023 HD
ENDBRANCH  84  86
BRANCH  84  90
ATOM     90  C   UNL     1      -4.488  13.188  19.059  0.00  0.00    -0.041 C 
ATOM     91  H   UNL     1      -4.620  14.235  18.754  0.00  0.00    +0.027 HD
ATOM     92  H   UNL     1      -3.467  12.952  18.752  0.00  0.00    +0.027 HD
BRANCH  90  93
ATOM     93  C   UNL     1      -4.570  13.110  20.582  0.00  0.00    +0.007 C 
ATOM     94  H   UNL     1      -4.112  12.195  20.968  0.00  0.00    +0.034 HD
ATOM     95  H   UNL     1      -5.617  13.120  20.909  0.00  0.00    +0.034 HD
BRANCH  93  96
ATOM     96  C   UNL     1      -3.888  14.297  21.253  0.00  0.00    +0.139 C 
ATOM     97  O   UNL     1      -2.690  14.514  21.038  0.00  0.00    -0.297 OA
BRANCH  96  98
ATOM     98  C   UNL     1      -4.713  15.170  22.207  0.00  0.00    +0.041 C 
ATOM     99  H   UNL     1      -4.100  15.272  23.104  0.00  0.00    +0.040 HD
BRANCH  98 100
ATOM    100  C   UNL     1      -6.010  14.483  22.642  0.00  0.00    -0.053 C 
ATOM    101  H   UNL     1      -5.855  13.799  23.482  0.00  0.00    +0.024 HD
ATOM    102  H   UNL     1      -6.746  15.226  22.967  0.00  0.00    +0.024 HD
ATOM    103  H   UNL     1      -6.461  13.928  21.810  0.00  0.00    +0.024 HD
ENDBRANCH  98 100
BRANCH  98 104
ATOM    104  C   UNL     1      -4.934  16.599  21.653  0.00  0.00    +0.071 C 
ATOM    105  H   UNL     1      -4.732  17.348  22.430  0.00  0.00    +0.061 HD
BRANCH 104 106
ATOM    106  C   UNL     1      -4.109  16.980  20.399  0.00  0.00    -0.006 C 
ATOM    107  H   UNL     1      -3.574  17.921  20.582  0.00  0.00    +0.033 HD
ATOM    108  H   UNL     1      -3.315  16.232  20.280  0.00  0.00    +0.033 HD
BRANCH 106 109
ATOM    109  C   UNL     1      -4.882  17.030  19.108  0.00  0.00    -0.067 C 
ATOM    110  C   UNL     1      -4.381  16.596  17.943  0.00  0.00    -0.005 C 
ATOM    111  H   UNL     1      -5.888  17.433  19.194  0.00  0.00    +0.059 HD
ATOM    112  H   UNL     1      -3.384  16.159  17.932  0.00  0.00    +0.078 HD
BRANCH 110 113
ATOM    113  N   UNL     1      -4.998  16.635  16.703  0.00  0.00    -0.284 N 
ATOM    114  C   UNL     1      -4.872  15.663  15.711  0.00  0.00    +0.206 C 
ATOM    115  O   UNL     1      -5.414  15.694  14.609  0.00  0.00    -0.279 OA
ATOM    116  H   UNL     1      -4.234  14.816  15.989  0.00  0.00    +0.126 HD
BRANCH 113 117
ATOM    117  C   UNL     1      -5.882  17.765  16.431  0.00  0.00    +0.007 C 
ATOM    118  H   UNL     1      -6.891  17.499  16.770  0.00  0.00    +0.043 HD
ATOM    119  H   UNL     1      -5.924  18.011  15.367  0.00  0.00    +0.043 HD
ATOM    120  H   UNL     1      -5.530  18.645  16.980  0.00  0.00    +0.043 HD
ENDBRANCH 113 117
ENDBRANCH 110 113
ENDBRANCH 106 109
ENDBRANCH 104 106
BRANCH 104 121
ATOM    121  O   UNL     1      -6.316  16.725  21.247  0.00  0.00    -0.379 OA
BRANCH 121 122
ATOM    122  C   UNL     1      -6.995  17.808  21.878  0.00  0.00    +0.037 C 
ATOM    123  H   UNL     1      -6.727  18.734  21.361  0.00  0.00    +0.052 HD
ATOM    124  H   UNL     1      -8.077  17.679  21.817  0.00  0.00    +0.052 HD
ATOM    125  H   UNL     1      -6.689  17.891  22.926  0.00  0.00    +0.052 HD
ENDBRANCH 121 122
ENDBRANCH 104 121
ENDBRANCH  98 104
ENDBRANCH  96  98
ENDBRANCH  93  96
ENDBRANCH  90  93
ENDBRANCH  84  90
ENDBRANCH  82  84
BRANCH  82 126
ATOM    126  O   UNL     1      -6.163  10.044  18.761  0.00  0.00    -0.379 OA
BRANCH 126 127
ATOM    127  C   UNL     1      -5.409   9.861  17.566  0.00  0.00    +0.037 C 
ATOM    128  H   UNL     1      -5.616  10.670  16.858  0.00  0.00    +0.052 HD
ATOM    129  H   UNL     1      -4.337   9.814  17.786  0.00  0.00    +0.052 HD
ATOM    130  H   UNL     1      -5.712   8.913  17.107  0.00  0.00    +0.052 HD
ENDBRANCH 126 127
ENDBRANCH  82 126
ENDBRANCH  76  82
ENDBRANCH  25  76
BRANCH  31 131
ATOM    131  O   UNL     1      -9.084  14.921  17.687  0.00  0.00    -0.379 OA
BRANCH 131 132
ATOM    132  C   UNL     1      -8.217  15.752  18.455  0.00  0.00    +0.037 C 
ATOM    133  H   UNL     1      -7.563  16.332  17.797  0.00  0.00    +0.052 HD
ATOM    134  H   UNL     1      -8.830  16.442  19.043  0.00  0.00    +0.052 HD
ATOM    135  H   UNL     1      -7.619  15.143  19.143  0.00  0.00    +0.052 HD
ENDBRANCH 131 132
ENDBRANCH  31 131
BRANCH  29 136
ATOM    136  O   UNL     1     -10.595  14.567  14.462  0.00  0.00    -0.376 OA
BRANCH 136 137
ATOM    137  C   UNL     1     -11.585  14.844  13.480  0.00  0.00    +0.037 C 
ATOM    138  H   UNL     1     -12.058  15.813  13.675  0.00  0.00    +0.052 HD
ATOM    139  H   UNL     1     -11.092  14.887  12.503  0.00  0.00    +0.052 HD
ATOM    140  H   UNL     1     -12.336  14.050  13.456  0.00  0.00    +0.052 HD
ENDBRANCH 136 137
ENDBRANCH  29 136
BRANCH  16 141
ATOM    141  O   UNL     1      -9.414  10.064  26.730  0.00  0.00    -0.379 OA
BRANCH 141 142
ATOM    142  C   UNL     1      -8.780   9.340  27.775  0.00  0.00    +0.037 C 
ATOM    143  H   UNL     1      -9.334   9.527  28.702  0.00  0.00    +0.052 HD
ATOM    144  H   UNL     1      -7.744   9.663  27.920  0.00  0.00    +0.052 HD
ATOM    145  H   UNL     1      -8.815   8.264  27.563  0.00  0.00    +0.052 HD
ENDBRANCH 141 142
ENDBRANCH  16 141
BRANCH   6 146
ATOM    146  O   UNL     1     -13.062  13.286  22.312  0.00  0.00    -0.379 OA
BRANCH 146 147
ATOM    147  C   UNL     1     -12.888  12.131  21.495  0.00  0.00    +0.037 C 
ATOM    148  H   UNL     1     -13.332  11.257  21.982  0.00  0.00    +0.052 HD
ATOM    149  H   UNL     1     -11.826  11.942  21.299  0.00  0.00    +0.052 HD
ATOM    150  H   UNL     1     -13.395  12.299  20.540  0.00  0.00    +0.052 HD
ENDBRANCH 146 147
ENDBRANCH   6 146
BRANCH   4 151
ATOM    151  O   UNL     1     -14.368  15.023  20.251  0.00  0.00    -0.376 OA
BRANCH 151 152
ATOM    152  C   UNL     1     -14.788  15.195  18.901  0.00  0.00    +0.037 C 
ATOM    153  H   UNL     1     -13.925  15.221  18.229  0.00  0.00    +0.052 HD
ATOM    154  H   UNL     1     -15.407  14.341  18.629  0.00  0.00    +0.052 HD
ATOM    155  H   UNL     1     -15.378  16.109  18.788  0.00  0.00    +0.052 HD
ENDBRANCH 151 152
ENDBRANCH   4 151
TORSDOF 33
ENDMDL
MODEL 6
REMARK VINA RESULT:      -5.3      4.507      7.700
REMARK  Name = Reidispongiolide A_conf3
REMARK  33 active torsions:
REMARK  status: ('A' for Active; 'I' for Inactive)
REMARK    1  A    between atoms: C_1  and  C_2
REMARK    2  A    between atoms: C_5  and  O_67
REMARK    3  A    between atoms: C_7  and  O_65
REMARK    4  A    between atoms: C_8  and  C_64
REMARK    5  A    between atoms: C_17  and  O_62
REMARK    6  A    between atoms: C_19  and  C_61
REMARK    7  A    between atoms: C_26  and  C_38
REMARK    8  A    between atoms: C_27  and  C_37
REMARK    9  A    between atoms: C_30  and  O_35
REMARK   10  A    between atoms: C_32  and  O_33
REMARK   11  A    between atoms: O_33  and  C_34
REMARK   12  A    between atoms: O_35  and  C_36
REMARK   13  A    between atoms: C_38  and  C_39
REMARK   14  A    between atoms: C_38  and  C_40
REMARK   15  A    between atoms: C_40  and  C_41
REMARK   16  A    between atoms: C_40  and  O_59
REMARK   17  A    between atoms: C_41  and  C_42
REMARK   18  A    between atoms: C_41  and  C_43
REMARK   19  A    between atoms: C_43  and  C_44
REMARK   20  A    between atoms: C_44  and  C_45
REMARK   21  A    between atoms: C_45  and  C_47
REMARK   22  A    between atoms: C_47  and  C_48
REMARK   23  A    between atoms: C_47  and  C_49
REMARK   24  A    between atoms: C_49  and  C_50
REMARK   25  A    between atoms: C_49  and  O_57
REMARK   26  A    between atoms: C_50  and  C_51
REMARK   27  A    between atoms: C_52  and  N_53
REMARK   28  A    between atoms: N_53  and  C_54
REMARK   29  A    between atoms: O_57  and  C_58
REMARK   30  A    between atoms: O_59  and  C_60
REMARK   31  A    between atoms: O_62  and  C_63
REMARK   32  A    between atoms: O_65  and  C_66
REMARK   33  A    between atoms: O_67  and  C_68
REMARK                            x       y       z     vdW  Elec       q    Type
REMARK                         _______ _______ _______ _____ _____    ______ ____
ROOT
ATOM      1  C   UNL     1      -8.300  16.974  25.455  0.00  0.00    +0.001 C 
ATOM      2  C   UNL     1      -9.422  16.016  25.071  0.00  0.00    -0.080 C 
ATOM      3  C   UNL     1     -10.738  16.225  25.261  0.00  0.00    -0.059 C 
ATOM      4  C   UNL     1     -11.919  15.330  24.985  0.00  0.00    +0.079 C 
ATOM      5  C   UNL     1     -11.663  13.884  24.515  0.00  0.00    +0.004 C 
ATOM      6  C   UNL     1     -11.187  13.695  23.057  0.00  0.00    +0.067 C 
ATOM      7  C   UNL     1     -10.514  12.310  22.810  0.00  0.00    +0.020 C 
ATOM      8  C   UNL     1     -11.435  11.089  23.139  0.00  0.00    +0.112 C 
ATOM      9  C   UNL     1     -12.365  10.622  21.998  0.00  0.00    +0.006 C 
ATOM     10  C   UNL     1     -11.737   9.593  21.096  0.00  0.00    -0.057 C 
ATOM     11  C   UNL     1     -10.636   8.935  21.500  0.00  0.00    +0.022 C 
ATOM     12  C   UNL     1     -10.036   9.118  22.833  0.00  0.00    +0.332 C 
ATOM     13  O   UNL     1      -9.066   8.457  23.184  0.00  0.00    -0.246 OA
ATOM     14  O   UNL     1     -10.658   9.983  23.666  0.00  0.00    -0.458 OA
ATOM     15  C   UNL     1     -12.497   9.172  19.845  0.00  0.00    -0.004 C 
ATOM     16  C   UNL     1     -11.842   9.182  18.431  0.00  0.00    +0.066 C 
ATOM     17  C   UNL     1     -11.983  10.521  17.659  0.00  0.00    -0.005 C 
ATOM     18  C   UNL     1     -10.870  11.552  17.739  0.00  0.00    -0.070 C 
ATOM     19  C   UNL     1     -10.376  12.111  16.613  0.00  0.00    -0.062 C 
ATOM     20  C   UNL     1      -9.344  13.126  16.561  0.00  0.00    -0.055 C 
ATOM     21  C   UNL     1      -9.472  14.337  17.124  0.00  0.00    +0.023 C 
ATOM     22  C   UNL     1      -8.311  15.240  17.161  0.00  0.00    +0.332 C 
ATOM     23  O   UNL     1      -7.364  15.204  16.389  0.00  0.00    -0.246 OA
ATOM     24  O   UNL     1      -8.442  16.041  18.244  0.00  0.00    -0.457 OA
ATOM     25  C   UNL     1      -7.225  16.635  18.749  0.00  0.00    +0.114 C 
ATOM     26  C   UNL     1      -7.421  18.158  19.033  0.00  0.00    +0.012 C 
ATOM     27  C   UNL     1      -8.193  18.513  20.283  0.00  0.00    -0.079 C 
ATOM     28  C   UNL     1      -7.664  19.233  21.294  0.00  0.00    -0.059 C 
ATOM     29  C   UNL     1      -8.406  19.661  22.529  0.00  0.00    +0.079 C 
ATOM     30  C   UNL     1      -8.877  18.527  23.460  0.00  0.00    +0.004 C 
ATOM     31  C   UNL     1      -7.762  17.837  24.271  0.00  0.00    +0.067 C 
ATOM     32  H   UNL     1      -7.474  16.325  25.788  0.00  0.00    +0.037 HD
ATOM     33  H   UNL     1      -9.076  15.091  24.619  0.00  0.00    +0.057 HD
ATOM     34  H   UNL     1     -11.046  17.174  25.695  0.00  0.00    +0.059 HD
ATOM     35  H   UNL     1     -12.428  15.249  25.957  0.00  0.00    +0.064 HD
ATOM     36  H   UNL     1     -12.611  13.349  24.628  0.00  0.00    +0.032 HD
ATOM     37  H   UNL     1     -10.959  13.428  25.217  0.00  0.00    +0.032 HD
ATOM     38  H   UNL     1     -10.455  14.475  22.814  0.00  0.00    +0.060 HD
ATOM     39  H   UNL     1     -10.279  12.256  21.744  0.00  0.00    +0.036 HD
ATOM     40  H   UNL     1     -12.089  11.366  23.971  0.00  0.00    +0.074 HD
ATOM     41  H   UNL     1     -12.721  11.475  21.413  0.00  0.00    +0.035 HD
ATOM     42  H   UNL     1     -13.252  10.155  22.446  0.00  0.00    +0.035 HD
ATOM     43  H   UNL     1     -10.185   8.141  20.912  0.00  0.00    +0.069 HD
ATOM     44  H   UNL     1     -13.454   9.714  19.798  0.00  0.00    +0.034 HD
ATOM     45  H   UNL     1     -12.791   8.125  20.034  0.00  0.00    +0.034 HD
ATOM     46  H   UNL     1     -12.444   8.454  17.865  0.00  0.00    +0.060 HD
ATOM     47  H   UNL     1     -12.926  11.009  17.948  0.00  0.00    +0.034 HD
ATOM     48  H   UNL     1     -12.115  10.252  16.603  0.00  0.00    +0.034 HD
ATOM     49  H   UNL     1     -10.730  11.779  15.636  0.00  0.00    +0.062 HD
ATOM     50  H   UNL     1      -8.427  12.849  16.042  0.00  0.00    +0.062 HD
ATOM     51  H   UNL     1     -10.364  14.652  17.647  0.00  0.00    +0.069 HD
ATOM     52  H   UNL     1      -6.466  16.617  17.957  0.00  0.00    +0.074 HD
ATOM     53  H   UNL     1      -6.405  18.566  19.137  0.00  0.00    +0.038 HD
ATOM     54  H   UNL     1      -9.231  18.184  20.338  0.00  0.00    +0.057 HD
ATOM     55  H   UNL     1      -6.631  19.575  21.211  0.00  0.00    +0.059 HD
ATOM     56  H   UNL     1      -9.295  20.222  22.205  0.00  0.00    +0.064 HD
ATOM     57  H   UNL     1      -9.436  17.791  22.869  0.00  0.00    +0.032 HD
ATOM     58  H   UNL     1      -9.580  18.984  24.169  0.00  0.00    +0.032 HD
ATOM     59  H   UNL     1      -7.104  18.606  24.699  0.00  0.00    +0.060 HD
ENDROOT
BRANCH   1  60
ATOM     60  C   UNL     1      -8.637  17.865  26.661  0.00  0.00    -0.057 C 
ATOM     61  H   UNL     1      -9.244  17.313  27.386  0.00  0.00    +0.024 HD
ATOM     62  H   UNL     1      -9.215  18.741  26.351  0.00  0.00    +0.024 HD
ATOM     63  H   UNL     1      -7.744  18.217  27.183  0.00  0.00    +0.024 HD
ENDBRANCH   1  60
BRANCH  26  64
ATOM     64  C   UNL     1      -8.070  18.849  17.825  0.00  0.00    -0.056 C 
ATOM     65  H   UNL     1      -7.661  18.465  16.882  0.00  0.00    +0.024 HD
ATOM     66  H   UNL     1      -7.902  19.928  17.853  0.00  0.00    +0.024 HD
ATOM     67  H   UNL     1      -9.151  18.687  17.825  0.00  0.00    +0.024 HD
ENDBRANCH  26  64
BRANCH  18  68
ATOM     68  C   UNL     1     -10.403  11.900  19.121  0.00  0.00    -0.043 C 
ATOM     69  H   UNL     1     -10.907  12.800  19.479  0.00  0.00    +0.027 HD
ATOM     70  H   UNL     1     -10.602  11.131  19.869  0.00  0.00    +0.027 HD
ATOM     71  H   UNL     1      -9.325  12.059  19.093  0.00  0.00    +0.027 HD
ENDBRANCH  18  68
BRANCH   7  72
ATOM     72  C   UNL     1      -9.161  12.254  23.532  0.00  0.00    -0.057 C 
ATOM     73  H   UNL     1      -8.612  13.188  23.399  0.00  0.00    +0.023 HD
ATOM     74  H   UNL     1      -9.271  12.075  24.605  0.00  0.00    +0.023 HD
ATOM     75  H   UNL     1      -8.533  11.461  23.116  0.00  0.00    +0.023 HD
ENDBRANCH   7  72
BRANCH  25  76
ATOM     76  C   UNL     1      -6.702  15.784  19.958  0.00  0.00    +0.020 C 
ATOM     77  H   UNL     1      -6.825  16.404  20.854  0.00  0.00    +0.036 HD
BRANCH  76  78
ATOM     78  C   UNL     1      -7.541  14.517  20.158  0.00  0.00    -0.057 C 
ATOM     79  H   UNL     1      -7.689  13.959  19.230  0.00  0.00    +0.023 HD
ATOM     80  H   UNL     1      -7.080  13.863  20.899  0.00  0.00    +0.023 HD
ATOM     81  H   UNL     1      -8.536  14.740  20.548  0.00  0.00    +0.023 HD
ENDBRANCH  76  78
BRANCH  76  82
ATOM     82  C   UNL     1      -5.161  15.523  19.799  0.00  0.00    +0.067 C 
ATOM     83  H   UNL     1      -4.626  16.437  20.076  0.00  0.00    +0.060 HD
BRANCH  82  84
ATOM     84  C   UNL     1      -4.571  15.140  18.407  0.00  0.00    -0.017 C 
ATOM     85  H   UNL     1      -5.330  15.370  17.651  0.00  0.00    +0.032 HD
BRANCH  84  86
ATOM     86  C   UNL     1      -3.385  16.070  18.090  0.00  0.00    -0.060 C 
ATOM     87  H   UNL     1      -2.456  15.649  18.487  0.00  0.00    +0.023 HD
ATOM     88  H   UNL     1      -3.518  17.055  18.554  0.00  0.00    +0.023 HD
ATOM     89  H   UNL     1      -3.257  16.221  17.010  0.00  0.00    +0.023 HD
ENDBRANCH  84  86
BRANCH  84  90
ATOM     90  C   UNL     1      -4.131  13.677  18.161  0.00  0.00    -0.041 C 
ATOM     91  H   UNL     1      -3.731  13.278  19.104  0.00  0.00    +0.027 HD
ATOM     92  H   UNL     1      -3.272  13.664  17.487  0.00  0.00    +0.027 HD
BRANCH  90  93
ATOM     93  C   UNL     1      -5.184  12.708  17.629  0.00  0.00    +0.007 C 
ATOM     94  H   UNL     1      -5.018  12.464  16.577  0.00  0.00    +0.034 HD
ATOM     95  H   UNL     1      -6.185  13.150  17.713  0.00  0.00    +0.034 HD
BRANCH  93  96
ATOM     96  C   UNL     1      -5.211  11.403  18.416  0.00  0.00    +0.139 C 
ATOM     97  O   UNL     1      -4.979  11.418  19.630  0.00  0.00    -0.297 OA
BRANCH  96  98
ATOM     98  C   UNL     1      -5.496  10.099  17.659  0.00  0.00    +0.041 C 
ATOM     99  H   UNL     1      -5.019   9.315  18.251  0.00  0.00    +0.040 HD
BRANCH  98 100
ATOM    100  C   UNL     1      -4.826  10.073  16.283  0.00  0.00    -0.053 C 
ATOM    101  H   UNL     1      -4.444   9.080  16.027  0.00  0.00    +0.024 HD
ATOM    102  H   UNL     1      -5.545  10.349  15.503  0.00  0.00    +0.024 HD
ATOM    103  H   UNL     1      -4.003  10.795  16.231  0.00  0.00    +0.024 HD
ENDBRANCH  98 100
BRANCH  98 104
ATOM    104  C   UNL     1      -7.007   9.765  17.611  0.00  0.00    +0.071 C 
ATOM    105  H   UNL     1      -7.594  10.667  17.395  0.00  0.00    +0.061 HD
BRANCH 104 106
ATOM    106  C   UNL     1      -7.431   8.668  16.603  0.00  0.00    -0.006 C 
ATOM    107  H   UNL     1      -6.541   8.258  16.109  0.00  0.00    +0.033 HD
ATOM    108  H   UNL     1      -7.838   7.825  17.177  0.00  0.00    +0.033 HD
BRANCH 106 109
ATOM    109  C   UNL     1      -8.477   9.080  15.601  0.00  0.00    -0.067 C 
ATOM    110  C   UNL     1      -9.100   8.207  14.799  0.00  0.00    -0.005 C 
ATOM    111  H   UNL     1      -8.699  10.144  15.586  0.00  0.00    +0.059 HD
ATOM    112  H   UNL     1      -8.866   7.148  14.896  0.00  0.00    +0.078 HD
BRANCH 110 113
ATOM    113  N   UNL     1     -10.043   8.493  13.825  0.00  0.00    -0.284 N 
ATOM    114  C   UNL     1     -10.107   7.895  12.567  0.00  0.00    +0.206 C 
ATOM    115  O   UNL     1     -10.939   8.147  11.698  0.00  0.00    -0.279 OA
ATOM    116  H   UNL     1      -9.336   7.136  12.389  0.00  0.00    +0.126 HD
BRANCH 113 117
ATOM    117  C   UNL     1     -11.075   9.469  14.160  0.00  0.00    +0.007 C 
ATOM    118  H   UNL     1     -12.017   8.931  14.320  0.00  0.00    +0.043 HD
ATOM    119  H   UNL     1     -11.223  10.205  13.365  0.00  0.00    +0.043 HD
ATOM    120  H   UNL     1     -10.794   9.998  15.078  0.00  0.00    +0.043 HD
ENDBRANCH 113 117
ENDBRANCH 110 113
ENDBRANCH 106 109
ENDBRANCH 104 106
BRANCH 104 121
ATOM    121  O   UNL     1      -7.407   9.260  18.906  0.00  0.00    -0.379 OA
BRANCH 121 122
ATOM    122  C   UNL     1      -6.694   8.091  19.302  0.00  0.00    +0.037 C 
ATOM    123  H   UNL     1      -5.713   8.103  18.817  0.00  0.00    +0.052 HD
ATOM    124  H   UNL     1      -6.546   8.071  20.383  0.00  0.00    +0.052 HD
ATOM    125  H   UNL     1      -7.231   7.192  18.984  0.00  0.00    +0.052 HD
ENDBRANCH 121 122
ENDBRANCH 104 121
ENDBRANCH  98 104
ENDBRANCH  96  98
ENDBRANCH  93  96
ENDBRANCH  90  93
ENDBRANCH  84  90
ENDBRANCH  82  84
BRANCH  82 126
ATOM    126  O   UNL     1      -4.778  14.505  20.745  0.00  0.00    -0.379 OA
BRANCH 126 127
ATOM    127  C   UNL     1      -3.641  14.861  21.527  0.00  0.00    +0.037 C 
ATOM    128  H   UNL     1      -3.954  15.225  22.511  0.00  0.00    +0.052 HD
ATOM    129  H   UNL     1      -2.963  14.008  21.636  0.00  0.00    +0.052 HD
ATOM    130  H   UNL     1      -3.106  15.668  21.013  0.00  0.00    +0.052 HD
ENDBRANCH 126 127
ENDBRANCH  82 126
ENDBRANCH  76  82
ENDBRANCH  25  76
BRANCH  31 131
ATOM    131  O   UNL     1      -7.000  16.988  23.394  0.00  0.00    -0.379 OA
BRANCH 131 132
ATOM    132  C   UNL     1      -5.596  17.171  23.557  0.00  0.00    +0.037 C 
ATOM    133  H   UNL     1      -5.268  16.766  24.519  0.00  0.00    +0.052 HD
ATOM    134  H   UNL     1      -5.081  16.637  22.754  0.00  0.00    +0.052 HD
ATOM    135  H   UNL     1      -5.340  18.235  23.489  0.00  0.00    +0.052 HD
ENDBRANCH 131 132
ENDBRANCH  31 131
BRANCH  29 136
ATOM    136  O   UNL     1      -7.526  20.526  23.267  0.00  0.00    -0.376 OA
BRANCH 136 137
ATOM    137  C   UNL     1      -7.296  21.771  22.622  0.00  0.00    +0.037 C 
ATOM    138  H   UNL     1      -7.196  22.574  23.361  0.00  0.00    +0.052 HD
ATOM    139  H   UNL     1      -6.358  21.696  22.061  0.00  0.00    +0.052 HD
ATOM    140  H   UNL     1      -8.103  21.996  21.920  0.00  0.00    +0.052 HD
ENDBRANCH 136 137
ENDBRANCH  29 136
BRANCH  16 141
ATOM    141  O   UNL     1     -10.506   8.676  18.485  0.00  0.00    -0.379 OA
BRANCH 141 142
ATOM    142  C   UNL     1     -10.410   7.278  18.253  0.00  0.00    +0.037 C 
ATOM    143  H   UNL     1     -10.559   7.102  17.181  0.00  0.00    +0.052 HD
ATOM    144  H   UNL     1     -11.175   6.723  18.805  0.00  0.00    +0.052 HD
ATOM    145  H   UNL     1      -9.409   6.919  18.526  0.00  0.00    +0.052 HD
ENDBRANCH 141 142
ENDBRANCH  16 141
BRANCH   6 146
ATOM    146  O   UNL     1     -12.317  13.802  22.182  0.00  0.00    -0.379 OA
BRANCH 146 147
ATOM    147  C   UNL     1     -12.037  14.585  21.024  0.00  0.00    +0.037 C 
ATOM    148  H   UNL     1     -10.957  14.712  20.908  0.00  0.00    +0.052 HD
ATOM    149  H   UNL     1     -12.518  15.568  21.087  0.00  0.00    +0.052 HD
ATOM    150  H   UNL     1     -12.428  14.061  20.146  0.00  0.00    +0.052 HD
ENDBRANCH 146 147
ENDBRANCH   6 146
BRANCH   4 151
ATOM    151  O   UNL     1     -12.759  16.067  24.092  0.00  0.00    -0.376 OA
BRANCH 151 152
ATOM    152  C   UNL     1     -12.870  17.446  24.431  0.00  0.00    +0.037 C 
ATOM    153  H   UNL     1     -13.882  17.677  24.776  0.00  0.00    +0.052 HD
ATOM    154  H   UNL     1     -12.176  17.648  25.247  0.00  0.00    +0.052 HD
ATOM    155  H   UNL     1     -12.610  18.080  23.580  0.00  0.00    +0.052 HD
ENDBRANCH 151 152
ENDBRANCH   4 151
TORSDOF 33
ENDMDL
MODEL 7
REMARK VINA RESULT:      -5.2      3.101      8.614
REMARK  Name = Reidispongiolide A_conf3
REMARK  33 active torsions:
REMARK  status: ('A' for Active; 'I' for Inactive)
REMARK    1  A    between atoms: C_1  and  C_2
REMARK    2  A    between atoms: C_5  and  O_67
REMARK    3  A    between atoms: C_7  and  O_65
REMARK    4  A    between atoms: C_8  and  C_64
REMARK    5  A    between atoms: C_17  and  O_62
REMARK    6  A    between atoms: C_19  and  C_61
REMARK    7  A    between atoms: C_26  and  C_38
REMARK    8  A    between atoms: C_27  and  C_37
REMARK    9  A    between atoms: C_30  and  O_35
REMARK   10  A    between atoms: C_32  and  O_33
REMARK   11  A    between atoms: O_33  and  C_34
REMARK   12  A    between atoms: O_35  and  C_36
REMARK   13  A    between atoms: C_38  and  C_39
REMARK   14  A    between atoms: C_38  and  C_40
REMARK   15  A    between atoms: C_40  and  C_41
REMARK   16  A    between atoms: C_40  and  O_59
REMARK   17  A    between atoms: C_41  and  C_42
REMARK   18  A    between atoms: C_41  and  C_43
REMARK   19  A    between atoms: C_43  and  C_44
REMARK   20  A    between atoms: C_44  and  C_45
REMARK   21  A    between atoms: C_45  and  C_47
REMARK   22  A    between atoms: C_47  and  C_48
REMARK   23  A    between atoms: C_47  and  C_49
REMARK   24  A    between atoms: C_49  and  C_50
REMARK   25  A    between atoms: C_49  and  O_57
REMARK   26  A    between atoms: C_50  and  C_51
REMARK   27  A    between atoms: C_52  and  N_53
REMARK   28  A    between atoms: N_53  and  C_54
REMARK   29  A    between atoms: O_57  and  C_58
REMARK   30  A    between atoms: O_59  and  C_60
REMARK   31  A    between atoms: O_62  and  C_63
REMARK   32  A    between atoms: O_65  and  C_66
REMARK   33  A    between atoms: O_67  and  C_68
REMARK                            x       y       z     vdW  Elec       q    Type
REMARK                         _______ _______ _______ _____ _____    ______ ____
ROOT
ATOM      1  C   UNL     1     -13.731  10.230  22.253  0.00  0.00    +0.001 C 
ATOM      2  C   UNL     1     -12.714  11.058  23.031  0.00  0.00    -0.080 C 
ATOM      3  C   UNL     1     -12.326  10.841  24.301  0.00  0.00    -0.059 C 
ATOM      4  C   UNL     1     -11.387  11.625  25.182  0.00  0.00    +0.079 C 
ATOM      5  C   UNL     1     -10.826  12.964  24.666  0.00  0.00    +0.004 C 
ATOM      6  C   UNL     1      -9.732  12.893  23.576  0.00  0.00    +0.067 C 
ATOM      7  C   UNL     1      -9.565  14.230  22.791  0.00  0.00    +0.020 C 
ATOM      8  C   UNL     1      -9.213  15.457  23.695  0.00  0.00    +0.112 C 
ATOM      9  C   UNL     1      -7.711  15.667  23.988  0.00  0.00    +0.006 C 
ATOM     10  C   UNL     1      -7.017  16.531  22.968  0.00  0.00    -0.057 C 
ATOM     11  C   UNL     1      -7.745  17.292  22.132  0.00  0.00    +0.022 C 
ATOM     12  C   UNL     1      -9.213  17.385  22.205  0.00  0.00    +0.332 C 
ATOM     13  O   UNL     1      -9.836  18.135  21.463  0.00  0.00    -0.246 OA
ATOM     14  O   UNL     1      -9.820  16.670  23.180  0.00  0.00    -0.458 OA
ATOM     15  C   UNL     1      -5.504  16.681  23.061  0.00  0.00    -0.004 C 
ATOM     16  C   UNL     1      -4.566  16.429  21.843  0.00  0.00    +0.066 C 
ATOM     17  C   UNL     1      -4.075  14.964  21.694  0.00  0.00    -0.005 C 
ATOM     18  C   UNL     1      -4.836  14.008  20.792  0.00  0.00    -0.070 C 
ATOM     19  C   UNL     1      -4.178  13.265  19.875  0.00  0.00    -0.062 C 
ATOM     20  C   UNL     1      -4.785  12.296  18.985  0.00  0.00    -0.055 C 
ATOM     21  C   UNL     1      -5.441  11.208  19.417  0.00  0.00    +0.023 C 
ATOM     22  C   UNL     1      -6.163  10.371  18.447  0.00  0.00    +0.332 C 
ATOM     23  O   UNL     1      -5.909  10.296  17.253  0.00  0.00    -0.246 OA
ATOM     24  O   UNL     1      -7.197   9.784  19.093  0.00  0.00    -0.457 OA
ATOM     25  C   UNL     1      -8.296   9.340  18.265  0.00  0.00    +0.114 C 
ATOM     26  C   UNL     1      -8.736   7.892  18.649  0.00  0.00    +0.012 C 
ATOM     27  C   UNL     1      -9.545   7.750  19.918  0.00  0.00    -0.079 C 
ATOM     28  C   UNL     1     -10.799   7.253  19.938  0.00  0.00    -0.059 C 
ATOM     29  C   UNL     1     -11.622   7.038  21.177  0.00  0.00    +0.079 C 
ATOM     30  C   UNL     1     -12.015   8.310  21.955  0.00  0.00    +0.004 C 
ATOM     31  C   UNL     1     -13.098   9.180  21.288  0.00  0.00    +0.067 C 
ATOM     32  H   UNL     1     -14.275  10.959  21.632  0.00  0.00    +0.037 HD
ATOM     33  H   UNL     1     -12.305  11.892  22.470  0.00  0.00    +0.057 HD
ATOM     34  H   UNL     1     -12.739   9.979  24.821  0.00  0.00    +0.059 HD
ATOM     35  H   UNL     1     -11.992  11.868  26.069  0.00  0.00    +0.064 HD
ATOM     36  H   UNL     1     -10.399  13.477  25.534  0.00  0.00    +0.032 HD
ATOM     37  H   UNL     1     -11.672  13.570  24.329  0.00  0.00    +0.032 HD
ATOM     38  H   UNL     1      -9.993  12.108  22.857  0.00  0.00    +0.060 HD
ATOM     39  H   UNL     1      -8.730  14.092  22.101  0.00  0.00    +0.036 HD
ATOM     40  H   UNL     1      -9.695  15.318  24.668  0.00  0.00    +0.074 HD
ATOM     41  H   UNL     1      -7.197  14.708  24.089  0.00  0.00    +0.035 HD
ATOM     42  H   UNL     1      -7.616  16.178  24.956  0.00  0.00    +0.035 HD
ATOM     43  H   UNL     1      -7.288  17.976  21.424  0.00  0.00    +0.069 HD
ATOM     44  H   UNL     1      -5.131  16.106  23.923  0.00  0.00    +0.034 HD
ATOM     45  H   UNL     1      -5.344  17.734  23.353  0.00  0.00    +0.034 HD
ATOM     46  H   UNL     1      -3.666  17.015  22.087  0.00  0.00    +0.060 HD
ATOM     47  H   UNL     1      -3.992  14.506  22.690  0.00  0.00    +0.034 HD
ATOM     48  H   UNL     1      -3.043  15.025  21.323  0.00  0.00    +0.034 HD
ATOM     49  H   UNL     1      -3.104  13.394  19.735  0.00  0.00    +0.062 HD
ATOM     50  H   UNL     1      -4.694  12.504  17.920  0.00  0.00    +0.062 HD
ATOM     51  H   UNL     1      -5.554  10.966  20.464  0.00  0.00    +0.069 HD
ATOM     52  H   UNL     1      -7.943   9.236  17.232  0.00  0.00    +0.074 HD
ATOM     53  H   UNL     1      -9.359   7.547  17.811  0.00  0.00    +0.038 HD
ATOM     54  H   UNL     1      -9.064   8.046  20.851  0.00  0.00    +0.057 HD
ATOM     55  H   UNL     1     -11.255   6.939  18.997  0.00  0.00    +0.059 HD
ATOM     56  H   UNL     1     -11.041   6.395  21.855  0.00  0.00    +0.064 HD
ATOM     57  H   UNL     1     -11.111   8.901  22.149  0.00  0.00    +0.032 HD
ATOM     58  H   UNL     1     -12.401   7.970  22.924  0.00  0.00    +0.032 HD
ATOM     59  H   UNL     1     -13.910   8.529  20.934  0.00  0.00    +0.060 HD
ENDROOT
BRANCH   1  60
ATOM     60  C   UNL     1     -14.797   9.570  23.143  0.00  0.00    -0.057 C 
ATOM     61  H   UNL     1     -14.550   9.708  24.201  0.00  0.00    +0.024 HD
ATOM     62  H   UNL     1     -14.849   8.493  22.958  0.00  0.00    +0.024 HD
ATOM     63  H   UNL     1     -15.794   9.989  22.982  0.00  0.00    +0.024 HD
ENDBRANCH   1  60
BRANCH  26  64
ATOM     64  C   UNL     1      -7.516   6.963  18.722  0.00  0.00    -0.056 C 
ATOM     65  H   UNL     1      -7.786   5.983  19.134  0.00  0.00    +0.024 HD
ATOM     66  H   UNL     1      -6.733   7.391  19.353  0.00  0.00    +0.024 HD
ATOM     67  H   UNL     1      -7.086   6.814  17.728  0.00  0.00    +0.024 HD
ENDBRANCH  26  64
BRANCH  18  68
ATOM     68  C   UNL     1      -6.317  13.943  21.015  0.00  0.00    -0.043 C 
ATOM     69  H   UNL     1      -6.538  13.500  21.988  0.00  0.00    +0.027 HD
ATOM     70  H   UNL     1      -6.815  14.914  21.010  0.00  0.00    +0.027 HD
ATOM     71  H   UNL     1      -6.762  13.343  20.220  0.00  0.00    +0.027 HD
ENDBRANCH  18  68
BRANCH   7  72
ATOM     72  C   UNL     1     -10.795  14.470  21.906  0.00  0.00    -0.057 C 
ATOM     73  H   UNL     1     -10.983  15.538  21.785  0.00  0.00    +0.023 HD
ATOM     74  H   UNL     1     -10.682  14.029  20.912  0.00  0.00    +0.023 HD
ATOM     75  H   UNL     1     -11.691  14.046  22.367  0.00  0.00    +0.023 HD
ENDBRANCH   7  72
BRANCH  25  76
ATOM     76  C   UNL     1      -9.432  10.422  18.296  0.00  0.00    +0.020 C 
ATOM     77  H   UNL     1     -10.381   9.876  18.344  0.00  0.00    +0.036 HD
BRANCH  76  78
ATOM     78  C   UNL     1      -9.340  11.296  19.552  0.00  0.00    -0.057 C 
ATOM     79  H   UNL     1      -8.323  11.642  19.751  0.00  0.00    +0.023 HD
ATOM     80  H   UNL     1     -10.001  12.160  19.468  0.00  0.00    +0.023 HD
ATOM     81  H   UNL     1      -9.668  10.765  20.447  0.00  0.00    +0.023 HD
ENDBRANCH  76  78
BRANCH  76  82
ATOM     82  C   UNL     1      -9.440  11.225  16.946  0.00  0.00    +0.067 C 
ATOM     83  H   UNL     1      -8.542  10.955  16.379  0.00  0.00    +0.060 HD
BRANCH  82  84
ATOM     84  C   UNL     1      -9.430  12.784  16.960  0.00  0.00    -0.017 C 
ATOM     85  H   UNL     1      -9.132  13.122  15.961  0.00  0.00    +0.032 HD
BRANCH  84  86
ATOM     86  C   UNL     1     -10.870  13.294  17.152  0.00  0.00    -0.060 C 
ATOM     87  H   UNL     1     -11.584  12.478  17.007  0.00  0.00    +0.023 HD
ATOM     88  H   UNL     1     -11.115  14.073  16.419  0.00  0.00    +0.023 HD
ATOM     89  H   UNL     1     -11.029  13.713  18.154  0.00  0.00    +0.023 HD
ENDBRANCH  84  86
BRANCH  84  90
ATOM     90  C   UNL     1      -8.508  13.513  17.967  0.00  0.00    -0.041 C 
ATOM     91  H   UNL     1      -8.117  12.768  18.673  0.00  0.00    +0.027 HD
ATOM     92  H   UNL     1      -9.108  14.177  18.594  0.00  0.00    +0.027 HD
BRANCH  90  93
ATOM     93  C   UNL     1      -7.336  14.308  17.396  0.00  0.00    +0.007 C 
ATOM     94  H   UNL     1      -7.026  13.929  16.419  0.00  0.00    +0.034 HD
ATOM     95  H   UNL     1      -6.470  14.243  18.066  0.00  0.00    +0.034 HD
BRANCH  93  96
ATOM     96  C   UNL     1      -7.667  15.788  17.245  0.00  0.00    +0.139 C 
ATOM     97  O   UNL     1      -8.745  16.124  16.743  0.00  0.00    -0.297 OA
BRANCH  96  98
ATOM     98  C   UNL     1      -6.626  16.819  17.698  0.00  0.00    +0.041 C 
ATOM     99  H   UNL     1      -6.384  16.549  18.728  0.00  0.00    +0.040 HD
BRANCH  98 100
ATOM    100  C   UNL     1      -7.199  18.237  17.743  0.00  0.00    -0.053 C 
ATOM    101  H   UNL     1      -7.304  18.610  18.767  0.00  0.00    +0.024 HD
ATOM    102  H   UNL     1      -6.539  18.935  17.216  0.00  0.00    +0.024 HD
ATOM    103  H   UNL     1      -8.176  18.284  17.246  0.00  0.00    +0.024 HD
ENDBRANCH  98 100
BRANCH  98 104
ATOM    104  C   UNL     1      -5.308  16.718  16.890  0.00  0.00    +0.071 C 
ATOM    105  H   UNL     1      -4.717  17.636  17.003  0.00  0.00    +0.061 HD
BRANCH 104 106
ATOM    106  C   UNL     1      -4.392  15.516  17.228  0.00  0.00    -0.006 C 
ATOM    107  H   UNL     1      -4.963  14.762  17.785  0.00  0.00    +0.033 HD
ATOM    108  H   UNL     1      -4.131  15.018  16.285  0.00  0.00    +0.033 HD
BRANCH 106 109
ATOM    109  C   UNL     1      -3.105  15.861  17.929  0.00  0.00    -0.067 C 
ATOM    110  C   UNL     1      -1.979  15.150  17.776  0.00  0.00    -0.005 C 
ATOM    111  H   UNL     1      -3.154  16.743  18.563  0.00  0.00    +0.059 HD
ATOM    112  H   UNL     1      -1.984  14.305  17.090  0.00  0.00    +0.078 HD
BRANCH 110 113
ATOM    113  N   UNL     1      -0.763  15.366  18.404  0.00  0.00    -0.284 N 
ATOM    114  C   UNL     1       0.470  14.895  17.955  0.00  0.00    +0.206 C 
ATOM    115  O   UNL     1       1.550  15.081  18.508  0.00  0.00    -0.279 OA
ATOM    116  H   UNL     1       0.420  14.325  17.019  0.00  0.00    +0.126 HD
BRANCH 113 117
ATOM    117  C   UNL     1      -0.771  16.187  19.611  0.00  0.00    +0.007 C 
ATOM    118  H   UNL     1      -0.677  15.523  20.479  0.00  0.00    +0.043 HD
ATOM    119  H   UNL     1      -1.692  16.767  19.712  0.00  0.00    +0.043 HD
ATOM    120  H   UNL     1       0.078  16.881  19.586  0.00  0.00    +0.043 HD
ENDBRANCH 113 117
ENDBRANCH 110 113
ENDBRANCH 106 109
ENDBRANCH 104 106
BRANCH 104 121
ATOM    121  O   UNL     1      -5.639  16.557  15.491  0.00  0.00    -0.379 OA
BRANCH 121 122
ATOM    122  C   UNL     1      -4.970  15.458  14.875  0.00  0.00    +0.037 C 
ATOM    123  H   UNL     1      -4.235  15.061  15.581  0.00  0.00    +0.052 HD
ATOM    124  H   UNL     1      -5.675  14.664  14.625  0.00  0.00    +0.052 HD
ATOM    125  H   UNL     1      -4.446  15.789  13.973  0.00  0.00    +0.052 HD
ENDBRANCH 121 122
ENDBRANCH 104 121
ENDBRANCH  98 104
ENDBRANCH  96  98
ENDBRANCH  93  96
ENDBRANCH  90  93
ENDBRANCH  84  90
ENDBRANCH  82  84
BRANCH  82 126
ATOM    126  O   UNL     1     -10.575  10.789  16.172  0.00  0.00    -0.379 OA
BRANCH 126 127
ATOM    127  C   UNL     1     -10.229   9.897  15.115  0.00  0.00    +0.037 C 
ATOM    128  H   UNL     1     -10.391   8.859  15.425  0.00  0.00    +0.052 HD
ATOM    129  H   UNL     1     -10.809  10.120  14.214  0.00  0.00    +0.052 HD
ATOM    130  H   UNL     1      -9.165  10.028  14.886  0.00  0.00    +0.052 HD
ENDBRANCH 126 127
ENDBRANCH  82 126
ENDBRANCH  76  82
ENDBRANCH  25  76
BRANCH  31 131
ATOM    131  O   UNL     1     -12.520   9.875  20.169  0.00  0.00    -0.379 OA
BRANCH 131 132
ATOM    132  C   UNL     1     -13.357   9.827  19.016  0.00  0.00    +0.037 C 
ATOM    133  H   UNL     1     -13.336   8.828  18.571  0.00  0.00    +0.052 HD
ATOM    134  H   UNL     1     -14.381  10.058  19.322  0.00  0.00    +0.052 HD
ATOM    135  H   UNL     1     -13.035  10.574  18.282  0.00  0.00    +0.052 HD
ENDBRANCH 131 132
ENDBRANCH  31 131
BRANCH  29 136
ATOM    136  O   UNL     1     -12.823   6.360  20.770  0.00  0.00    -0.376 OA
BRANCH 136 137
ATOM    137  C   UNL     1     -12.809   5.974  19.402  0.00  0.00    +0.037 C 
ATOM    138  H   UNL     1     -11.889   6.317  18.915  0.00  0.00    +0.052 HD
ATOM    139  H   UNL     1     -12.840   4.880  19.357  0.00  0.00    +0.052 HD
ATOM    140  H   UNL     1     -13.686   6.368  18.882  0.00  0.00    +0.052 HD
ENDBRANCH 136 137
ENDBRANCH  29 136
BRANCH  16 141
ATOM    141  O   UNL     1      -5.123  16.984  20.649  0.00  0.00    -0.379 OA
BRANCH 141 142
ATOM    142  C   UNL     1      -4.607  18.264  20.314  0.00  0.00    +0.037 C 
ATOM    143  H   UNL     1      -4.302  18.242  19.262  0.00  0.00    +0.052 HD
ATOM    144  H   UNL     1      -3.734  18.520  20.923  0.00  0.00    +0.052 HD
ATOM    145  H   UNL     1      -5.387  19.027  20.432  0.00  0.00    +0.052 HD
ENDBRANCH 141 142
ENDBRANCH  16 141
BRANCH   6 146
ATOM    146  O   UNL     1      -8.478  12.583  24.197  0.00  0.00    -0.379 OA
BRANCH 146 147
ATOM    147  C   UNL     1      -8.412  13.033  25.547  0.00  0.00    +0.037 C 
ATOM    148  H   UNL     1      -7.681  12.439  26.105  0.00  0.00    +0.052 HD
ATOM    149  H   UNL     1      -9.391  12.963  26.035  0.00  0.00    +0.052 HD
ATOM    150  H   UNL     1      -8.094  14.080  25.551  0.00  0.00    +0.052 HD
ENDBRANCH 146 147
ENDBRANCH   6 146
BRANCH   4 151
ATOM    151  O   UNL     1     -10.364  10.703  25.569  0.00  0.00    -0.376 OA
BRANCH 151 152
ATOM    152  C   UNL     1     -10.824   9.359  25.667  0.00  0.00    +0.037 C 
ATOM    153  H   UNL     1     -10.467   8.767  24.818  0.00  0.00    +0.052 HD
ATOM    154  H   UNL     1     -10.413   8.928  26.580  0.00  0.00    +0.052 HD
ATOM    155  H   UNL     1     -11.915   9.321  25.718  0.00  0.00    +0.052 HD
ENDBRANCH 151 152
ENDBRANCH   4 151
TORSDOF 33
ENDMDL
MODEL 8
REMARK VINA RESULT:      -5.1     10.246     16.201
REMARK  Name = Reidispongiolide A_conf3
REMARK  33 active torsions:
REMARK  status: ('A' for Active; 'I' for Inactive)
REMARK    1  A    between atoms: C_1  and  C_2
REMARK    2  A    between atoms: C_5  and  O_67
REMARK    3  A    between atoms: C_7  and  O_65
REMARK    4  A    between atoms: C_8  and  C_64
REMARK    5  A    between atoms: C_17  and  O_62
REMARK    6  A    between atoms: C_19  and  C_61
REMARK    7  A    between atoms: C_26  and  C_38
REMARK    8  A    between atoms: C_27  and  C_37
REMARK    9  A    between atoms: C_30  and  O_35
REMARK   10  A    between atoms: C_32  and  O_33
REMARK   11  A    between atoms: O_33  and  C_34
REMARK   12  A    between atoms: O_35  and  C_36
REMARK   13  A    between atoms: C_38  and  C_39
REMARK   14  A    between atoms: C_38  and  C_40
REMARK   15  A    between atoms: C_40  and  C_41
REMARK   16  A    between atoms: C_40  and  O_59
REMARK   17  A    between atoms: C_41  and  C_42
REMARK   18  A    between atoms: C_41  and  C_43
REMARK   19  A    between atoms: C_43  and  C_44
REMARK   20  A    between atoms: C_44  and  C_45
REMARK   21  A    between atoms: C_45  and  C_47
REMARK   22  A    between atoms: C_47  and  C_48
REMARK   23  A    between atoms: C_47  and  C_49
REMARK   24  A    between atoms: C_49  and  C_50
REMARK   25  A    between atoms: C_49  and  O_57
REMARK   26  A    between atoms: C_50  and  C_51
REMARK   27  A    between atoms: C_52  and  N_53
REMARK   28  A    between atoms: N_53  and  C_54
REMARK   29  A    between atoms: O_57  and  C_58
REMARK   30  A    between atoms: O_59  and  C_60
REMARK   31  A    between atoms: O_62  and  C_63
REMARK   32  A    between atoms: O_65  and  C_66
REMARK   33  A    between atoms: O_67  and  C_68
REMARK                            x       y       z     vdW  Elec       q    Type
REMARK                         _______ _______ _______ _____ _____    ______ ____
ROOT
ATOM      1  C   UNL     1      -7.416  -1.990  14.414  0.00  0.00    +0.001 C 
ATOM      2  C   UNL     1      -7.536  -1.586  12.949  0.00  0.00    -0.080 C 
ATOM      3  C   UNL     1      -7.920  -2.387  11.938  0.00  0.00    -0.059 C 
ATOM      4  C   UNL     1      -8.011  -2.116  10.458  0.00  0.00    +0.079 C 
ATOM      5  C   UNL     1      -7.494  -0.769   9.915  0.00  0.00    +0.004 C 
ATOM      6  C   UNL     1      -8.364   0.478  10.190  0.00  0.00    +0.067 C 
ATOM      7  C   UNL     1      -7.578   1.816  10.040  0.00  0.00    +0.020 C 
ATOM      8  C   UNL     1      -6.939   2.022   8.626  0.00  0.00    +0.112 C 
ATOM      9  C   UNL     1      -7.855   2.667   7.563  0.00  0.00    +0.006 C 
ATOM     10  C   UNL     1      -7.784   4.171   7.544  0.00  0.00    -0.057 C 
ATOM     11  C   UNL     1      -6.762   4.798   8.152  0.00  0.00    +0.022 C 
ATOM     12  C   UNL     1      -5.645   4.080   8.790  0.00  0.00    +0.332 C 
ATOM     13  O   UNL     1      -4.703   4.688   9.283  0.00  0.00    -0.246 OA
ATOM     14  O   UNL     1      -5.676   2.729   8.728  0.00  0.00    -0.458 OA
ATOM     15  C   UNL     1      -8.756   4.926   6.647  0.00  0.00    -0.004 C 
ATOM     16  C   UNL     1      -9.646   6.090   7.179  0.00  0.00    +0.066 C 
ATOM     17  C   UNL     1     -11.026   5.649   7.737  0.00  0.00    -0.005 C 
ATOM     18  C   UNL     1     -11.183   5.386   9.224  0.00  0.00    -0.070 C 
ATOM     19  C   UNL     1     -12.205   5.943   9.911  0.00  0.00    -0.062 C 
ATOM     20  C   UNL     1     -12.480   5.740  11.319  0.00  0.00    -0.055 C 
ATOM     21  C   UNL     1     -12.757   4.540  11.852  0.00  0.00    +0.023 C 
ATOM     22  C   UNL     1     -12.861   4.408  13.313  0.00  0.00    +0.332 C 
ATOM     23  O   UNL     1     -13.138   5.314  14.085  0.00  0.00    -0.246 OA
ATOM     24  O   UNL     1     -12.509   3.143  13.642  0.00  0.00    -0.457 OA
ATOM     25  C   UNL     1     -12.064   2.939  15.002  0.00  0.00    +0.114 C 
ATOM     26  C   UNL     1     -12.748   1.684  15.632  0.00  0.00    +0.012 C 
ATOM     27  C   UNL     1     -12.223   0.338  15.186  0.00  0.00    -0.079 C 
ATOM     28  C   UNL     1     -11.674  -0.555  16.035  0.00  0.00    -0.059 C 
ATOM     29  C   UNL     1     -11.192  -1.925  15.652  0.00  0.00    +0.079 C 
ATOM     30  C   UNL     1      -9.995  -1.973  14.682  0.00  0.00    +0.004 C 
ATOM     31  C   UNL     1      -8.637  -1.577  15.295  0.00  0.00    +0.067 C 
ATOM     32  H   UNL     1      -6.540  -1.438  14.790  0.00  0.00    +0.037 HD
ATOM     33  H   UNL     1      -7.265  -0.553  12.754  0.00  0.00    +0.057 HD
ATOM     34  H   UNL     1      -8.207  -3.409  12.178  0.00  0.00    +0.059 HD
ATOM     35  H   UNL     1      -7.376  -2.893  10.004  0.00  0.00    +0.064 HD
ATOM     36  H   UNL     1      -7.410  -0.884   8.830  0.00  0.00    +0.032 HD
ATOM     37  H   UNL     1      -6.478  -0.627  10.295  0.00  0.00    +0.032 HD
ATOM     38  H   UNL     1      -8.752   0.426  11.214  0.00  0.00    +0.060 HD
ATOM     39  H   UNL     1      -8.295   2.626  10.187  0.00  0.00    +0.036 HD
ATOM     40  H   UNL     1      -6.657   1.041   8.230  0.00  0.00    +0.074 HD
ATOM     41  H   UNL     1      -8.889   2.335   7.688  0.00  0.00    +0.035 HD
ATOM     42  H   UNL     1      -7.531   2.319   6.573  0.00  0.00    +0.035 HD
ATOM     43  H   UNL     1      -6.635   5.876   8.111  0.00  0.00    +0.069 HD
ATOM     44  H   UNL     1      -9.394   4.207   6.111  0.00  0.00    +0.034 HD
ATOM     45  H   UNL     1      -8.124   5.367   5.857  0.00  0.00    +0.034 HD
ATOM     46  H   UNL     1      -9.870   6.675   6.274  0.00  0.00    +0.060 HD
ATOM     47  H   UNL     1     -11.370   4.757   7.191  0.00  0.00    +0.034 HD
ATOM     48  H   UNL     1     -11.734   6.441   7.460  0.00  0.00    +0.034 HD
ATOM     49  H   UNL     1     -12.888   6.633   9.414  0.00  0.00    +0.062 HD
ATOM     50  H   UNL     1     -12.439   6.630  11.946  0.00  0.00    +0.062 HD
ATOM     51  H   UNL     1     -12.807   3.633  11.265  0.00  0.00    +0.069 HD
ATOM     52  H   UNL     1     -12.426   3.767  15.623  0.00  0.00    +0.074 HD
ATOM     53  H   UNL     1     -12.573   1.772  16.714  0.00  0.00    +0.038 HD
ATOM     54  H   UNL     1     -12.327   0.089  14.129  0.00  0.00    +0.057 HD
ATOM     55  H   UNL     1     -11.601  -0.298  17.094  0.00  0.00    +0.059 HD
ATOM     56  H   UNL     1     -12.032  -2.453  15.176  0.00  0.00    +0.064 HD
ATOM     57  H   UNL     1     -10.221  -1.349  13.809  0.00  0.00    +0.032 HD
ATOM     58  H   UNL     1      -9.922  -3.012  14.335  0.00  0.00    +0.032 HD
ATOM     59  H   UNL     1      -8.524  -2.079  16.266  0.00  0.00    +0.060 HD
ENDROOT
BRANCH   1  60
ATOM     60  C   UNL     1      -7.084  -3.477  14.617  0.00  0.00    -0.057 C 
ATOM     61  H   UNL     1      -6.154  -3.588  15.185  0.00  0.00    +0.024 HD
ATOM     62  H   UNL     1      -6.940  -3.981  13.656  0.00  0.00    +0.024 HD
ATOM     63  H   UNL     1      -7.866  -4.010  15.163  0.00  0.00    +0.024 HD
ENDBRANCH   1  60
BRANCH  26  64
ATOM     64  C   UNL     1     -14.266   1.733  15.409  0.00  0.00    -0.056 C 
ATOM     65  H   UNL     1     -14.745   0.798  15.725  0.00  0.00    +0.024 HD
ATOM     66  H   UNL     1     -14.503   1.895  14.355  0.00  0.00    +0.024 HD
ATOM     67  H   UNL     1     -14.711   2.558  15.972  0.00  0.00    +0.024 HD
ENDBRANCH  26  64
BRANCH  18  68
ATOM     68  C   UNL     1     -10.162   4.474   9.836  0.00  0.00    -0.043 C 
ATOM     69  H   UNL     1      -9.171   4.931   9.799  0.00  0.00    +0.027 HD
ATOM     70  H   UNL     1     -10.342   4.239  10.885  0.00  0.00    +0.027 HD
ATOM     71  H   UNL     1     -10.162   3.533   9.284  0.00  0.00    +0.027 HD
ENDBRANCH  18  68
BRANCH   7  72
ATOM     72  C   UNL     1      -6.563   1.953  11.183  0.00  0.00    -0.057 C 
ATOM     73  H   UNL     1      -6.994   2.505  12.019  0.00  0.00    +0.023 HD
ATOM     74  H   UNL     1      -6.225   0.982  11.555  0.00  0.00    +0.023 HD
ATOM     75  H   UNL     1      -5.686   2.517  10.855  0.00  0.00    +0.023 HD
ENDBRANCH   7  72
BRANCH  25  76
ATOM     76  C   UNL     1     -10.495   2.941  15.035  0.00  0.00    +0.020 C 
ATOM     77  H   UNL     1     -10.196   2.155  15.738  0.00  0.00    +0.036 HD
BRANCH  76  78
ATOM     78  C   UNL     1      -9.905   2.581  13.666  0.00  0.00    -0.057 C 
ATOM     79  H   UNL     1     -10.041   3.374  12.927  0.00  0.00    +0.023 HD
ATOM     80  H   UNL     1      -8.842   2.353  13.754  0.00  0.00    +0.023 HD
ATOM     81  H   UNL     1     -10.360   1.682  13.246  0.00  0.00    +0.023 HD
ENDBRANCH  76  78
BRANCH  76  82
ATOM     82  C   UNL     1      -9.977   4.300  15.628  0.00  0.00    +0.067 C 
ATOM     83  H   UNL     1     -10.792   5.031  15.578  0.00  0.00    +0.060 HD
BRANCH  82  84
ATOM     84  C   UNL     1      -8.766   5.031  14.972  0.00  0.00    -0.017 C 
ATOM     85  H   UNL     1      -8.148   4.271  14.480  0.00  0.00    +0.032 HD
BRANCH  84  86
ATOM     86  C   UNL     1      -9.279   5.936  13.836  0.00  0.00    -0.060 C 
ATOM     87  H   UNL     1     -10.076   6.590  14.204  0.00  0.00    +0.023 HD
ATOM     88  H   UNL     1      -9.700   5.343  13.015  0.00  0.00    +0.023 HD
ATOM     89  H   UNL     1      -8.483   6.568  13.422  0.00  0.00    +0.023 HD
ENDBRANCH  84  86
BRANCH  84  90
ATOM     90  C   UNL     1      -7.817   5.856  15.873  0.00  0.00    -0.041 C 
ATOM     91  H   UNL     1      -6.806   5.800  15.446  0.00  0.00    +0.027 HD
ATOM     92  H   UNL     1      -7.719   5.366  16.844  0.00  0.00    +0.027 HD
BRANCH  90  93
ATOM     93  C   UNL     1      -8.169   7.325  16.101  0.00  0.00    +0.007 C 
ATOM     94  H   UNL     1      -9.192   7.551  15.791  0.00  0.00    +0.034 HD
ATOM     95  H   UNL     1      -7.496   7.971  15.524  0.00  0.00    +0.034 HD
BRANCH  93  96
ATOM     96  C   UNL     1      -8.021   7.727  17.564  0.00  0.00    +0.139 C 
ATOM     97  O   UNL     1      -9.000   7.667  18.316  0.00  0.00    -0.297 OA
BRANCH  96  98
ATOM     98  C   UNL     1      -6.654   8.228  18.049  0.00  0.00    +0.041 C 
ATOM     99  H   UNL     1      -5.921   7.609  17.527  0.00  0.00    +0.040 HD
BRANCH  98 100
ATOM    100  C   UNL     1      -6.446   7.982  19.545  0.00  0.00    -0.053 C 
ATOM    101  H   UNL     1      -7.108   7.201  19.932  0.00  0.00    +0.024 HD
ATOM    102  H   UNL     1      -5.419   7.654  19.740  0.00  0.00    +0.024 HD
ATOM    103  H   UNL     1      -6.605   8.900  20.122  0.00  0.00    +0.024 HD
ENDBRANCH  98 100
BRANCH  98 104
ATOM    104  C   UNL     1      -6.381   9.693  17.627  0.00  0.00    +0.071 C 
ATOM    105  H   UNL     1      -7.034   9.981  16.793  0.00  0.00    +0.061 HD
BRANCH 104 106
ATOM    106  C   UNL     1      -6.528  10.762  18.738  0.00  0.00    -0.006 C 
ATOM    107  H   UNL     1      -7.339  11.454  18.478  0.00  0.00    +0.033 HD
ATOM    108  H   UNL     1      -6.881  10.256  19.646  0.00  0.00    +0.033 HD
BRANCH 106 109
ATOM    109  C   UNL     1      -5.266  11.502  19.094  0.00  0.00    -0.067 C 
ATOM    110  C   UNL     1      -5.232  12.826  19.301  0.00  0.00    -0.005 C 
ATOM    111  H   UNL     1      -4.382  10.877  19.185  0.00  0.00    +0.059 HD
ATOM    112  H   UNL     1      -6.163  13.388  19.240  0.00  0.00    +0.078 HD
BRANCH 110 113
ATOM    113  N   UNL     1      -4.120  13.597  19.594  0.00  0.00    -0.284 N 
ATOM    114  C   UNL     1      -3.108  13.926  18.692  0.00  0.00    +0.206 C 
ATOM    115  O   UNL     1      -2.119  14.608  18.947  0.00  0.00    -0.279 OA
ATOM    116  H   UNL     1      -3.260  13.529  17.682  0.00  0.00    +0.126 HD
BRANCH 113 117
ATOM    117  C   UNL     1      -4.022  14.143  20.944  0.00  0.00    +0.007 C 
ATOM    118  H   UNL     1      -4.958  13.924  21.472  0.00  0.00    +0.043 HD
ATOM    119  H   UNL     1      -3.865  15.225  20.944  0.00  0.00    +0.043 HD
ATOM    120  H   UNL     1      -3.185  13.669  21.470  0.00  0.00    +0.043 HD
ENDBRANCH 113 117
ENDBRANCH 110 113
ENDBRANCH 106 109
ENDBRANCH 104 106
BRANCH 104 121
ATOM    121  O   UNL     1      -5.007   9.795  17.187  0.00  0.00    -0.379 OA
BRANCH 121 122
ATOM    122  C   UNL     1      -4.813   9.376  15.838  0.00  0.00    +0.037 C 
ATOM    123  H   UNL     1      -3.792   9.635  15.538  0.00  0.00    +0.052 HD
ATOM    124  H   UNL     1      -4.937   8.296  15.744  0.00  0.00    +0.052 HD
ATOM    125  H   UNL     1      -5.514   9.890  15.174  0.00  0.00    +0.052 HD
ENDBRANCH 121 122
ENDBRANCH 104 121
ENDBRANCH  98 104
ENDBRANCH  96  98
ENDBRANCH  93  96
ENDBRANCH  90  93
ENDBRANCH  84  90
ENDBRANCH  82  84
BRANCH  82 126
ATOM    126  O   UNL     1      -9.677   4.095  17.023  0.00  0.00    -0.379 OA
BRANCH 126 127
ATOM    127  C   UNL     1     -10.683   4.601  17.897  0.00  0.00    +0.037 C 
ATOM    128  H   UNL     1     -10.251   4.849  18.872  0.00  0.00    +0.052 HD
ATOM    129  H   UNL     1     -11.168   5.481  17.461  0.00  0.00    +0.052 HD
ATOM    130  H   UNL     1     -11.439   3.822  18.042  0.00  0.00    +0.052 HD
ENDBRANCH 126 127
ENDBRANCH  82 126
ENDBRANCH  76  82
ENDBRANCH  25  76
BRANCH  31 131
ATOM    131  O   UNL     1      -8.604  -0.152  15.485  0.00  0.00    -0.379 OA
BRANCH 131 132
ATOM    132  C   UNL     1      -8.195   0.204  16.803  0.00  0.00    +0.037 C 
ATOM    133  H   UNL     1      -8.760  -0.367  17.546  0.00  0.00    +0.052 HD
ATOM    134  H   UNL     1      -7.132  -0.028  16.910  0.00  0.00    +0.052 HD
ATOM    135  H   UNL     1      -8.335   1.280  16.967  0.00  0.00    +0.052 HD
ENDBRANCH 131 132
ENDBRANCH  31 131
BRANCH  29 136
ATOM    136  O   UNL     1     -10.822  -2.595  16.871  0.00  0.00    -0.376 OA
BRANCH 136 137
ATOM    137  C   UNL     1     -11.160  -1.856  18.037  0.00  0.00    +0.037 C 
ATOM    138  H   UNL     1     -11.542  -0.865  17.767  0.00  0.00    +0.052 HD
ATOM    139  H   UNL     1     -11.949  -2.401  18.568  0.00  0.00    +0.052 HD
ATOM    140  H   UNL     1     -10.295  -1.765  18.699  0.00  0.00    +0.052 HD
ENDBRANCH 136 137
ENDBRANCH  29 136
BRANCH  16 141
ATOM    141  O   UNL     1      -8.904   6.937   8.059  0.00  0.00    -0.379 OA
BRANCH 141 142
ATOM    142  C   UNL     1      -9.252   8.311   7.965  0.00  0.00    +0.037 C 
ATOM    143  H   UNL     1      -9.586   8.644   8.954  0.00  0.00    +0.052 HD
ATOM    144  H   UNL     1     -10.066   8.474   7.251  0.00  0.00    +0.052 HD
ATOM    145  H   UNL     1      -8.373   8.903   7.679  0.00  0.00    +0.052 HD
ENDBRANCH 141 142
ENDBRANCH  16 141
BRANCH   6 146
ATOM    146  O   UNL     1      -9.455   0.497   9.260  0.00  0.00    -0.379 OA
BRANCH 146 147
ATOM    147  C   UNL     1     -10.693   0.836   9.879  0.00  0.00    +0.037 C 
ATOM    148  H   UNL     1     -10.511   1.319  10.844  0.00  0.00    +0.052 HD
ATOM    149  H   UNL     1     -11.318  -0.053  10.025  0.00  0.00    +0.052 HD
ATOM    150  H   UNL     1     -11.228   1.535   9.229  0.00  0.00    +0.052 HD
ENDBRANCH 146 147
ENDBRANCH   6 146
BRANCH   4 151
ATOM    151  O   UNL     1      -9.372  -2.376  10.103  0.00  0.00    -0.376 OA
BRANCH 151 152
ATOM    152  C   UNL     1      -9.955  -3.442  10.846  0.00  0.00    +0.037 C 
ATOM    153  H   UNL     1      -9.451  -4.388  10.622  0.00  0.00    +0.052 HD
ATOM    154  H   UNL     1      -9.821  -3.227  11.905  0.00  0.00    +0.052 HD
ATOM    155  H   UNL     1     -11.023  -3.528  10.635  0.00  0.00    +0.052 HD
ENDBRANCH 151 152
ENDBRANCH   4 151
TORSDOF 33
ENDMDL
MODEL 9
REMARK VINA RESULT:      -5.1      4.810     11.292
REMARK  Name = Reidispongiolide A_conf3
REMARK  33 active torsions:
REMARK  status: ('A' for Active; 'I' for Inactive)
REMARK    1  A    between atoms: C_1  and  C_2
REMARK    2  A    between atoms: C_5  and  O_67
REMARK    3  A    between atoms: C_7  and  O_65
REMARK    4  A    between atoms: C_8  and  C_64
REMARK    5  A    between atoms: C_17  and  O_62
REMARK    6  A    between atoms: C_19  and  C_61
REMARK    7  A    between atoms: C_26  and  C_38
REMARK    8  A    between atoms: C_27  and  C_37
REMARK    9  A    between atoms: C_30  and  O_35
REMARK   10  A    between atoms: C_32  and  O_33
REMARK   11  A    between atoms: O_33  and  C_34
REMARK   12  A    between atoms: O_35  and  C_36
REMARK   13  A    between atoms: C_38  and  C_39
REMARK   14  A    between atoms: C_38  and  C_40
REMARK   15  A    between atoms: C_40  and  C_41
REMARK   16  A    between atoms: C_40  and  O_59
REMARK   17  A    between atoms: C_41  and  C_42
REMARK   18  A    between atoms: C_41  and  C_43
REMARK   19  A    between atoms: C_43  and  C_44
REMARK   20  A    between atoms: C_44  and  C_45
REMARK   21  A    between atoms: C_45  and  C_47
REMARK   22  A    between atoms: C_47  and  C_48
REMARK   23  A    between atoms: C_47  and  C_49
REMARK   24  A    between atoms: C_49  and  C_50
REMARK   25  A    between atoms: C_49  and  O_57
REMARK   26  A    between atoms: C_50  and  C_51
REMARK   27  A    between atoms: C_52  and  N_53
REMARK   28  A    between atoms: N_53  and  C_54
REMARK   29  A    between atoms: O_57  and  C_58
REMARK   30  A    between atoms: O_59  and  C_60
REMARK   31  A    between atoms: O_62  and  C_63
REMARK   32  A    between atoms: O_65  and  C_66
REMARK   33  A    between atoms: O_67  and  C_68
REMARK                            x       y       z     vdW  Elec       q    Type
REMARK                         _______ _______ _______ _____ _____    ______ ____
ROOT
ATOM      1  C   UNL     1     -12.364  11.203  23.878  0.00  0.00    +0.001 C 
ATOM      2  C   UNL     1     -11.290  12.227  24.226  0.00  0.00    -0.080 C 
ATOM      3  C   UNL     1     -10.619  12.303  25.390  0.00  0.00    -0.059 C 
ATOM      4  C   UNL     1      -9.594  13.302  25.863  0.00  0.00    +0.079 C 
ATOM      5  C   UNL     1      -9.289  14.529  24.982  0.00  0.00    +0.004 C 
ATOM      6  C   UNL     1      -8.453  14.285  23.706  0.00  0.00    +0.067 C 
ATOM      7  C   UNL     1      -8.587  15.434  22.659  0.00  0.00    +0.020 C 
ATOM      8  C   UNL     1      -8.171  16.840  23.202  0.00  0.00    +0.112 C 
ATOM      9  C   UNL     1      -6.669  17.184  23.096  0.00  0.00    +0.006 C 
ATOM     10  C   UNL     1      -6.296  17.847  21.797  0.00  0.00    -0.057 C 
ATOM     11  C   UNL     1      -7.256  18.376  21.019  0.00  0.00    +0.022 C 
ATOM     12  C   UNL     1      -8.677  18.408  21.407  0.00  0.00    +0.332 C 
ATOM     13  O   UNL     1      -9.513  18.951  20.696  0.00  0.00    -0.246 OA
ATOM     14  O   UNL     1      -8.989  17.885  22.615  0.00  0.00    -0.458 OA
ATOM     15  C   UNL     1      -4.820  18.090  21.510  0.00  0.00    -0.004 C 
ATOM     16  C   UNL     1      -4.144  17.635  20.181  0.00  0.00    +0.066 C 
ATOM     17  C   UNL     1      -3.557  16.199  20.211  0.00  0.00    -0.005 C 
ATOM     18  C   UNL     1      -4.397  15.036  19.711  0.00  0.00    -0.070 C 
ATOM     19  C   UNL     1      -3.881  14.151  18.829  0.00  0.00    -0.062 C 
ATOM     20  C   UNL     1      -4.568  12.987  18.309  0.00  0.00    -0.055 C 
ATOM     21  C   UNL     1      -5.008  11.982  19.082  0.00  0.00    +0.023 C 
ATOM     22  C   UNL     1      -5.836  10.924  18.484  0.00  0.00    +0.332 C 
ATOM     23  O   UNL     1      -5.837  10.611  17.303  0.00  0.00    -0.246 OA
ATOM     24  O   UNL     1      -6.646  10.434  19.452  0.00  0.00    -0.457 OA
ATOM     25  C   UNL     1      -7.848   9.770  19.000  0.00  0.00    +0.114 C 
ATOM     26  C   UNL     1      -8.053   8.415  19.749  0.00  0.00    +0.012 C 
ATOM     27  C   UNL     1      -8.554   8.503  21.172  0.00  0.00    -0.079 C 
ATOM     28  C   UNL     1      -9.721   7.958  21.576  0.00  0.00    -0.059 C 
ATOM     29  C   UNL     1     -10.234   7.968  22.988  0.00  0.00    +0.079 C 
ATOM     30  C   UNL     1     -10.573   9.353  23.573  0.00  0.00    +0.004 C 
ATOM     31  C   UNL     1     -11.853  10.006  23.016  0.00  0.00    +0.067 C 
ATOM     32  H   UNL     1     -13.097  11.756  23.269  0.00  0.00    +0.037 HD
ATOM     33  H   UNL     1     -11.093  12.944  23.435  0.00  0.00    +0.057 HD
ATOM     34  H   UNL     1     -10.826  11.551  26.149  0.00  0.00    +0.059 HD
ATOM     35  H   UNL     1     -10.016  13.696  26.801  0.00  0.00    +0.064 HD
ATOM     36  H   UNL     1      -8.738  15.235  25.612  0.00  0.00    +0.032 HD
ATOM     37  H   UNL     1     -10.243  15.006  24.737  0.00  0.00    +0.032 HD
ATOM     38  H   UNL     1      -8.784  13.354  23.232  0.00  0.00    +0.060 HD
ATOM     39  H   UNL     1      -7.910  15.196  21.836  0.00  0.00    +0.036 HD
ATOM     40  H   UNL     1      -8.418  16.885  24.268  0.00  0.00    +0.074 HD
ATOM     41  H   UNL     1      -6.054  16.294  23.261  0.00  0.00    +0.035 HD
ATOM     42  H   UNL     1      -6.419  17.891  23.898  0.00  0.00    +0.035 HD
ATOM     43  H   UNL     1      -7.031  18.918  20.105  0.00  0.00    +0.069 HD
ATOM     44  H   UNL     1      -4.218  17.729  22.357  0.00  0.00    +0.034 HD
ATOM     45  H   UNL     1      -4.705  19.188  21.547  0.00  0.00    +0.034 HD
ATOM     46  H   UNL     1      -3.275  18.305  20.094  0.00  0.00    +0.060 HD
ATOM     47  H   UNL     1      -3.218  15.965  21.231  0.00  0.00    +0.034 HD
ATOM     48  H   UNL     1      -2.640  16.232  19.609  0.00  0.00    +0.034 HD
ATOM     49  H   UNL     1      -2.880  14.302  18.425  0.00  0.00    +0.062 HD
ATOM     50  H   UNL     1      -4.727  12.969  17.231  0.00  0.00    +0.062 HD
ATOM     51  H   UNL     1      -4.870  11.961  20.154  0.00  0.00    +0.069 HD
ATOM     52  H   UNL     1      -7.716   9.468  17.954  0.00  0.00    +0.074 HD
ATOM     53  H   UNL     1      -8.805   7.870  19.160  0.00  0.00    +0.038 HD
ATOM     54  H   UNL     1      -7.916   9.013  21.894  0.00  0.00    +0.057 HD
ATOM     55  H   UNL     1     -10.335   7.429  20.844  0.00  0.00    +0.059 HD
ATOM     56  H   UNL     1      -9.463   7.513  23.626  0.00  0.00    +0.064 HD
ATOM     57  H   UNL     1      -9.711  10.017  23.436  0.00  0.00    +0.032 HD
ATOM     58  H   UNL     1     -10.708   9.206  24.652  0.00  0.00    +0.032 HD
ATOM     59  H   UNL     1     -12.655   9.256  22.992  0.00  0.00    +0.060 HD
ENDROOT
BRANCH   1  60
ATOM     60  C   UNL     1     -13.146  10.693  25.099  0.00  0.00    -0.057 C 
ATOM     61  H   UNL     1     -12.879   9.653  25.317  0.00  0.00    +0.024 HD
ATOM     62  H   UNL     1     -14.224  10.720  24.914  0.00  0.00    +0.024 HD
ATOM     63  H   UNL     1     -12.944  11.278  26.000  0.00  0.00    +0.024 HD
ENDBRANCH   1  60
BRANCH  26  64
ATOM     64  C   UNL     1      -6.761   7.586  19.719  0.00  0.00    -0.056 C 
ATOM     65  H   UNL     1      -6.869   6.660  20.299  0.00  0.00    +0.024 HD
ATOM     66  H   UNL     1      -5.923   8.150  20.135  0.00  0.00    +0.024 HD
ATOM     67  H   UNL     1      -6.498   7.322  18.692  0.00  0.00    +0.024 HD
ENDBRANCH  26  64
BRANCH  18  68
ATOM     68  C   UNL     1      -5.783  14.944  20.276  0.00  0.00    -0.043 C 
ATOM     69  H   UNL     1      -6.386  15.792  19.946  0.00  0.00    +0.027 HD
ATOM     70  H   UNL     1      -6.332  14.052  19.973  0.00  0.00    +0.027 HD
ATOM     71  H   UNL     1      -5.715  14.933  21.364  0.00  0.00    +0.027 HD
ENDBRANCH  18  68
BRANCH   7  72
ATOM     72  C   UNL     1      -9.996  15.418  22.051  0.00  0.00    -0.057 C 
ATOM     73  H   UNL     1     -10.200  16.351  21.523  0.00  0.00    +0.023 HD
ATOM     74  H   UNL     1     -10.134  14.592  21.347  0.00  0.00    +0.023 HD
ATOM     75  H   UNL     1     -10.754  15.330  22.833  0.00  0.00    +0.023 HD
ENDBRANCH   7  72
BRANCH  25  76
ATOM     76  C   UNL     1      -9.050  10.774  19.081  0.00  0.00    +0.020 C 
ATOM     77  H   UNL     1      -9.854  10.258  19.617  0.00  0.00    +0.036 HD
BRANCH  76  78
ATOM     78  C   UNL     1      -8.685  12.023  19.892  0.00  0.00    -0.057 C 
ATOM     79  H   UNL     1      -9.512  12.734  19.966  0.00  0.00    +0.023 HD
ATOM     80  H   UNL     1      -8.361  11.747  20.897  0.00  0.00    +0.023 HD
ATOM     81  H   UNL     1      -7.846  12.566  19.455  0.00  0.00    +0.023 HD
ENDBRANCH  76  78
BRANCH  76  82
ATOM     82  C   UNL     1      -9.591  11.074  17.636  0.00  0.00    +0.067 C 
ATOM     83  H   UNL     1     -10.564  11.570  17.729  0.00  0.00    +0.060 HD
BRANCH  82  84
ATOM     84  C   UNL     1      -9.849   9.906  16.637  0.00  0.00    -0.017 C 
ATOM     85  H   UNL     1     -10.135   9.025  17.225  0.00  0.00    +0.032 HD
BRANCH  84  86
ATOM     86  C   UNL     1     -11.082  10.241  15.778  0.00  0.00    -0.060 C 
ATOM     87  H   UNL     1     -10.843  10.134  14.715  0.00  0.00    +0.023 HD
ATOM     88  H   UNL     1     -11.405  11.277  15.934  0.00  0.00    +0.023 HD
ATOM     89  H   UNL     1     -11.933   9.585  16.004  0.00  0.00    +0.023 HD
ENDBRANCH  84  86
BRANCH  84  90
ATOM     90  C   UNL     1      -8.700   9.458  15.702  0.00  0.00    -0.041 C 
ATOM     91  H   UNL     1      -7.928  10.240  15.712  0.00  0.00    +0.027 HD
ATOM     92  H   UNL     1      -9.054   9.454  14.668  0.00  0.00    +0.027 HD
BRANCH  90  93
ATOM     93  C   UNL     1      -8.039   8.114  15.997  0.00  0.00    +0.007 C 
ATOM     94  H   UNL     1      -7.466   8.138  16.927  0.00  0.00    +0.034 HD
ATOM     95  H   UNL     1      -7.348   7.844  15.189  0.00  0.00    +0.034 HD
BRANCH  93  96
ATOM     96  C   UNL     1      -9.058   6.985  16.100  0.00  0.00    +0.139 C 
ATOM     97  O   UNL     1      -9.394   6.566  17.213  0.00  0.00    -0.297 OA
BRANCH  96  98
ATOM     98  C   UNL     1      -9.614   6.382  14.804  0.00  0.00    +0.041 C 
ATOM     99  H   UNL     1      -9.116   6.927  13.999  0.00  0.00    +0.040 HD
BRANCH  98 100
ATOM    100  C   UNL     1     -11.113   6.640  14.643  0.00  0.00    -0.053 C 
ATOM    101  H   UNL     1     -11.682   6.346  15.531  0.00  0.00    +0.024 HD
ATOM    102  H   UNL     1     -11.303   7.708  14.483  0.00  0.00    +0.024 HD
ATOM    103  H   UNL     1     -11.515   6.110  13.771  0.00  0.00    +0.024 HD
ENDBRANCH  98 100
BRANCH  98 104
ATOM    104  C   UNL     1      -9.229   4.891  14.637  0.00  0.00    +0.071 C 
ATOM    105  H   UNL     1      -9.936   4.248  15.177  0.00  0.00    +0.061 HD
BRANCH 104 106
ATOM    106  C   UNL     1      -9.129   4.371  13.182  0.00  0.00    -0.006 C 
ATOM    107  H   UNL     1      -8.576   3.423  13.166  0.00  0.00    +0.033 HD
ATOM    108  H   UNL     1     -10.140   4.103  12.851  0.00  0.00    +0.033 HD
BRANCH 106 109
ATOM    109  C   UNL     1      -8.570   5.349  12.182  0.00  0.00    -0.067 C 
ATOM    110  C   UNL     1      -8.017   4.969  11.022  0.00  0.00    -0.005 C 
ATOM    111  H   UNL     1      -8.663   6.394  12.467  0.00  0.00    +0.059 HD
ATOM    112  H   UNL     1      -7.997   3.909  10.775  0.00  0.00    +0.078 HD
BRANCH 110 113
ATOM    113  N   UNL     1      -7.446   5.788  10.062  0.00  0.00    -0.284 N 
ATOM    114  C   UNL     1      -6.573   5.365   9.060  0.00  0.00    +0.206 C 
ATOM    115  O   UNL     1      -6.062   6.086   8.207  0.00  0.00    -0.279 OA
ATOM    116  H   UNL     1      -6.366   4.288   9.068  0.00  0.00    +0.126 HD
BRANCH 113 117
ATOM    117  C   UNL     1      -7.820   7.199  10.077  0.00  0.00    +0.007 C 
ATOM    118  H   UNL     1      -8.862   7.273  10.414  0.00  0.00    +0.043 HD
ATOM    119  H   UNL     1      -7.738   7.660   9.090  0.00  0.00    +0.043 HD
ATOM    120  H   UNL     1      -7.170   7.742  10.772  0.00  0.00    +0.043 HD
ENDBRANCH 113 117
ENDBRANCH 110 113
ENDBRANCH 106 109
ENDBRANCH 104 106
BRANCH 104 121
ATOM    121  O   UNL     1      -7.910   4.692  15.198  0.00  0.00    -0.379 OA
BRANCH 121 122
ATOM    122  C   UNL     1      -7.821   3.542  16.037  0.00  0.00    +0.037 C 
ATOM    123  H   UNL     1      -7.317   2.746  15.480  0.00  0.00    +0.052 HD
ATOM    124  H   UNL     1      -7.239   3.759  16.934  0.00  0.00    +0.052 HD
ATOM    125  H   UNL     1      -8.820   3.196  16.316  0.00  0.00    +0.052 HD
ENDBRANCH 121 122
ENDBRANCH 104 121
ENDBRANCH  98 104
ENDBRANCH  96  98
ENDBRANCH  93  96
ENDBRANCH  90  93
ENDBRANCH  84  90
ENDBRANCH  82  84
BRANCH  82 126
ATOM    126  O   UNL     1      -8.696  12.014  17.009  0.00  0.00    -0.379 OA
BRANCH 126 127
ATOM    127  C   UNL     1      -9.321  13.249  16.670  0.00  0.00    +0.037 C 
ATOM    128  H   UNL     1      -8.586  13.943  16.247  0.00  0.00    +0.052 HD
ATOM    129  H   UNL     1     -10.141  13.087  15.963  0.00  0.00    +0.052 HD
ATOM    130  H   UNL     1      -9.730  13.692  17.584  0.00  0.00    +0.052 HD
ENDBRANCH 126 127
ENDBRANCH  82 126
ENDBRANCH  76  82
ENDBRANCH  25  76
BRANCH  31 131
ATOM    131  O   UNL     1     -11.598  10.478  21.681  0.00  0.00    -0.379 OA
BRANCH 131 132
ATOM    132  C   UNL     1     -12.643  10.126  20.778  0.00  0.00    +0.037 C 
ATOM    133  H   UNL     1     -13.539  10.721  20.981  0.00  0.00    +0.052 HD
ATOM    134  H   UNL     1     -12.304  10.331  19.759  0.00  0.00    +0.052 HD
ATOM    135  H   UNL     1     -12.873   9.057  20.862  0.00  0.00    +0.052 HD
ENDBRANCH 131 132
ENDBRANCH  31 131
BRANCH  29 136
ATOM    136  O   UNL     1     -11.423   7.158  23.006  0.00  0.00    -0.376 OA
BRANCH 136 137
ATOM    137  C   UNL     1     -11.544   6.371  24.184  0.00  0.00    +0.037 C 
ATOM    138  H   UNL     1     -12.588   6.079  24.345  0.00  0.00    +0.052 HD
ATOM    139  H   UNL     1     -10.945   5.464  24.049  0.00  0.00    +0.052 HD
ATOM    140  H   UNL     1     -11.161   6.915  25.051  0.00  0.00    +0.052 HD
ENDBRANCH 136 137
ENDBRANCH  29 136
BRANCH  16 141
ATOM    141  O   UNL     1      -4.995  17.896  19.062  0.00  0.00    -0.379 OA
BRANCH 141 142
ATOM    142  C   UNL     1      -4.680  19.094  18.367  0.00  0.00    +0.037 C 
ATOM    143  H   UNL     1      -5.585  19.435  17.851  0.00  0.00    +0.052 HD
ATOM    144  H   UNL     1      -3.895  18.934  17.620  0.00  0.00    +0.052 HD
ATOM    145  H   UNL     1      -4.373  19.872  19.077  0.00  0.00    +0.052 HD
ENDBRANCH 141 142
ENDBRANCH  16 141
BRANCH   6 146
ATOM    146  O   UNL     1      -7.070  14.178  24.070  0.00  0.00    -0.379 OA
BRANCH 146 147
ATOM    147  C   UNL     1      -6.280  13.586  23.043  0.00  0.00    +0.037 C 
ATOM    148  H   UNL     1      -6.907  12.961  22.400  0.00  0.00    +0.052 HD
ATOM    149  H   UNL     1      -5.470  12.981  23.467  0.00  0.00    +0.052 HD
ATOM    150  H   UNL     1      -5.839  14.384  22.438  0.00  0.00    +0.052 HD
ENDBRANCH 146 147
ENDBRANCH   6 146
BRANCH   4 151
ATOM    151  O   UNL     1      -8.427  12.536  26.177  0.00  0.00    -0.376 OA
BRANCH 151 152
ATOM    152  C   UNL     1      -8.587  11.711  27.327  0.00  0.00    +0.037 C 
ATOM    153  H   UNL     1      -9.593  11.280  27.355  0.00  0.00    +0.052 HD
ATOM    154  H   UNL     1      -7.868  10.896  27.258  0.00  0.00    +0.052 HD
ATOM    155  H   UNL     1      -8.396  12.275  28.243  0.00  0.00    +0.052 HD
ENDBRANCH 151 152
ENDBRANCH   4 151
TORSDOF 33
ENDMDL
MODEL 10
REMARK VINA RESULT:      -5.0      4.085      9.974
REMARK  Name = Reidispongiolide A_conf3
REMARK  33 active torsions:
REMARK  status: ('A' for Active; 'I' for Inactive)
REMARK    1  A    between atoms: C_1  and  C_2
REMARK    2  A    between atoms: C_5  and  O_67
REMARK    3  A    between atoms: C_7  and  O_65
REMARK    4  A    between atoms: C_8  and  C_64
REMARK    5  A    between atoms: C_17  and  O_62
REMARK    6  A    between atoms: C_19  and  C_61
REMARK    7  A    between atoms: C_26  and  C_38
REMARK    8  A    between atoms: C_27  and  C_37
REMARK    9  A    between atoms: C_30  and  O_35
REMARK   10  A    between atoms: C_32  and  O_33
REMARK   11  A    between atoms: O_33  and  C_34
REMARK   12  A    between atoms: O_35  and  C_36
REMARK   13  A    between atoms: C_38  and  C_39
REMARK   14  A    between atoms: C_38  and  C_40
REMARK   15  A    between atoms: C_40  and  C_41
REMARK   16  A    between atoms: C_40  and  O_59
REMARK   17  A    between atoms: C_41  and  C_42
REMARK   18  A    between atoms: C_41  and  C_43
REMARK   19  A    between atoms: C_43  and  C_44
REMARK   20  A    between atoms: C_44  and  C_45
REMARK   21  A    between atoms: C_45  and  C_47
REMARK   22  A    between atoms: C_47  and  C_48
REMARK   23  A    between atoms: C_47  and  C_49
REMARK   24  A    between atoms: C_49  and  C_50
REMARK   25  A    between atoms: C_49  and  O_57
REMARK   26  A    between atoms: C_50  and  C_51
REMARK   27  A    between atoms: C_52  and  N_53
REMARK   28  A    between atoms: N_53  and  C_54
REMARK   29  A    between atoms: O_57  and  C_58
REMARK   30  A    between atoms: O_59  and  C_60
REMARK   31  A    between atoms: O_62  and  C_63
REMARK   32  A    between atoms: O_65  and  C_66
REMARK   33  A    between atoms: O_67  and  C_68
REMARK                            x       y       z     vdW  Elec       q    Type
REMARK                         _______ _______ _______ _____ _____    ______ ____
ROOT
ATOM      1  C   UNL     1     -12.672  11.167  23.055  0.00  0.00    +0.001 C 
ATOM      2  C   UNL     1     -11.633  12.149  23.584  0.00  0.00    -0.080 C 
ATOM      3  C   UNL     1     -11.095  12.140  24.817  0.00  0.00    -0.059 C 
ATOM      4  C   UNL     1     -10.118  13.089  25.464  0.00  0.00    +0.079 C 
ATOM      5  C   UNL     1      -9.706  14.365  24.703  0.00  0.00    +0.004 C 
ATOM      6  C   UNL     1      -8.736  14.188  23.514  0.00  0.00    +0.067 C 
ATOM      7  C   UNL     1      -8.742  15.403  22.535  0.00  0.00    +0.020 C 
ATOM      8  C   UNL     1      -8.375  16.765  23.211  0.00  0.00    +0.112 C 
ATOM      9  C   UNL     1      -6.867  17.089  23.293  0.00  0.00    +0.006 C 
ATOM     10  C   UNL     1      -6.347  17.827  22.088  0.00  0.00    -0.057 C 
ATOM     11  C   UNL     1      -7.209  18.421  21.246  0.00  0.00    +0.022 C 
ATOM     12  C   UNL     1      -8.664  18.451  21.477  0.00  0.00    +0.332 C 
ATOM     13  O   UNL     1      -9.411  19.053  20.715  0.00  0.00    -0.246 OA
ATOM     14  O   UNL     1      -9.113  17.858  22.606  0.00  0.00    -0.458 OA
ATOM     15  C   UNL     1      -4.846  18.064  21.982  0.00  0.00    -0.004 C 
ATOM     16  C   UNL     1      -4.031  17.682  20.709  0.00  0.00    +0.066 C 
ATOM     17  C   UNL     1      -3.465  16.237  20.710  0.00  0.00    -0.005 C 
ATOM     18  C   UNL     1      -4.255  15.123  20.046  0.00  0.00    -0.070 C 
ATOM     19  C   UNL     1      -3.654  14.287  19.171  0.00  0.00    -0.062 C 
ATOM     20  C   UNL     1      -4.290  13.170  18.503  0.00  0.00    -0.055 C 
ATOM     21  C   UNL     1      -4.822  12.126  19.156  0.00  0.00    +0.023 C 
ATOM     22  C   UNL     1      -5.589  11.121  18.404  0.00  0.00    +0.332 C 
ATOM     23  O   UNL     1      -5.463  10.885  17.212  0.00  0.00    -0.246 OA
ATOM     24  O   UNL     1      -6.506  10.585  19.243  0.00  0.00    -0.457 OA
ATOM     25  C   UNL     1      -7.657   9.971  18.620  0.00  0.00    +0.114 C 
ATOM     26  C   UNL     1      -7.958   8.575  19.252  0.00  0.00    +0.012 C 
ATOM     27  C   UNL     1      -8.612   8.581  20.614  0.00  0.00    -0.079 C 
ATOM     28  C   UNL     1      -9.821   8.031  20.850  0.00  0.00    -0.059 C 
ATOM     29  C   UNL     1     -10.488   7.960  22.196  0.00  0.00    +0.079 C 
ATOM     30  C   UNL     1     -10.876   9.311  22.828  0.00  0.00    +0.004 C 
ATOM     31  C   UNL     1     -12.080  10.020  22.178  0.00  0.00    +0.067 C 
ATOM     32  H   UNL     1     -13.327  11.770  22.406  0.00  0.00    +0.037 HD
ATOM     33  H   UNL     1     -11.343  12.912  22.868  0.00  0.00    +0.057 HD
ATOM     34  H   UNL     1     -11.392  11.345  25.498  0.00  0.00    +0.059 HD
ATOM     35  H   UNL     1     -10.638  13.430  26.373  0.00  0.00    +0.064 HD
ATOM     36  H   UNL     1      -9.221  15.019  25.435  0.00  0.00    +0.032 HD
ATOM     37  H   UNL     1     -10.622  14.872  24.387  0.00  0.00    +0.032 HD
ATOM     38  H   UNL     1      -9.021  13.295  22.947  0.00  0.00    +0.060 HD
ATOM     39  H   UNL     1      -7.981  15.206  21.778  0.00  0.00    +0.036 HD
ATOM     40  H   UNL     1      -8.739  16.746  24.244  0.00  0.00    +0.074 HD
ATOM     41  H   UNL     1      -6.283  16.181  23.466  0.00  0.00    +0.035 HD
ATOM     42  H   UNL     1      -6.701  17.740  24.162  0.00  0.00    +0.035 HD
ATOM     43  H   UNL     1      -6.879  19.016  20.400  0.00  0.00    +0.069 HD
ATOM     44  H   UNL     1      -4.344  17.639  22.865  0.00  0.00    +0.034 HD
ATOM     45  H   UNL     1      -4.724  19.154  22.102  0.00  0.00    +0.034 HD
ATOM     46  H   UNL     1      -3.151  18.341  20.761  0.00  0.00    +0.060 HD
ATOM     47  H   UNL     1      -3.244  15.934  21.744  0.00  0.00    +0.034 HD
ATOM     48  H   UNL     1      -2.486  16.293  20.216  0.00  0.00    +0.034 HD
ATOM     49  H   UNL     1      -2.612  14.446  18.889  0.00  0.00    +0.062 HD
ATOM     50  H   UNL     1      -4.329  13.223  17.416  0.00  0.00    +0.062 HD
ATOM     51  H   UNL     1      -4.804  12.034  20.233  0.00  0.00    +0.069 HD
ATOM     52  H   UNL     1      -7.414   9.734  17.577  0.00  0.00    +0.074 HD
ATOM     53  H   UNL     1      -8.644   8.081  18.549  0.00  0.00    +0.038 HD
ATOM     54  H   UNL     1      -8.053   9.033  21.433  0.00  0.00    +0.057 HD
ATOM     55  H   UNL     1     -10.356   7.560  20.023  0.00  0.00    +0.059 HD
ATOM     56  H   UNL     1      -9.797   7.452  22.884  0.00  0.00    +0.064 HD
ATOM     57  H   UNL     1      -9.997   9.967  22.830  0.00  0.00    +0.032 HD
ATOM     58  H   UNL     1     -11.132   9.098  23.874  0.00  0.00    +0.032 HD
ATOM     59  H   UNL     1     -12.882   9.285  22.017  0.00  0.00    +0.060 HD
ENDROOT
BRANCH   1  60
ATOM     60  C   UNL     1     -13.589  10.594  24.146  0.00  0.00    -0.057 C 
ATOM     61  H   UNL     1     -14.640  10.739  23.879  0.00  0.00    +0.024 HD
ATOM     62  H   UNL     1     -13.423  11.100  25.103  0.00  0.00    +0.024 HD
ATOM     63  H   UNL     1     -13.435   9.522  24.301  0.00  0.00    +0.024 HD
ENDBRANCH   1  60
BRANCH  26  64
ATOM     64  C   UNL     1      -6.678   7.728  19.310  0.00  0.00    -0.056 C 
ATOM     65  H   UNL     1      -5.954   8.150  20.019  0.00  0.00    +0.024 HD
ATOM     66  H   UNL     1      -6.198   7.673  18.330  0.00  0.00    +0.024 HD
ATOM     67  H   UNL     1      -6.908   6.705  19.617  0.00  0.00    +0.024 HD
ENDBRANCH  26  64
BRANCH  18  68
ATOM     68  C   UNL     1      -5.696  15.019  20.448  0.00  0.00    -0.043 C 
ATOM     69  H   UNL     1      -6.301  15.735  19.888  0.00  0.00    +0.027 HD
ATOM     70  H   UNL     1      -6.144  14.041  20.262  0.00  0.00    +0.027 HD
ATOM     71  H   UNL     1      -5.774  15.217  21.517  0.00  0.00    +0.027 HD
ENDBRANCH  18  68
BRANCH   7  72
ATOM     72  C   UNL     1     -10.075  15.450  21.776  0.00  0.00    -0.057 C 
ATOM     73  H   UNL     1      -9.907  15.591  20.707  0.00  0.00    +0.023 HD
ATOM     74  H   UNL     1     -10.661  14.536  21.910  0.00  0.00    +0.023 HD
ATOM     75  H   UNL     1     -10.682  16.295  22.111  0.00  0.00    +0.023 HD
ENDBRANCH   7  72
BRANCH  25  76
ATOM     76  C   UNL     1      -8.852  10.989  18.633  0.00  0.00    +0.020 C 
ATOM     77  H   UNL     1      -9.769  10.393  18.706  0.00  0.00    +0.036 HD
BRANCH  76  78
ATOM     78  C   UNL     1      -8.797  11.902  19.863  0.00  0.00    -0.057 C 
ATOM     79  H   UNL     1      -9.564  11.659  20.602  0.00  0.00    +0.023 HD
ATOM     80  H   UNL     1      -7.816  11.850  20.337  0.00  0.00    +0.023 HD
ATOM     81  H   UNL     1      -8.938  12.952  19.601  0.00  0.00    +0.023 HD
ENDBRANCH  76  78
BRANCH  76  82
ATOM     82  C   UNL     1      -8.916  11.751  17.260  0.00  0.00    +0.067 C 
ATOM     83  H   UNL     1      -7.966  11.599  16.737  0.00  0.00    +0.060 HD
BRANCH  82  84
ATOM     84  C   UNL     1      -9.127  13.295  17.231  0.00  0.00    -0.017 C 
ATOM     85  H   UNL     1      -9.619  13.580  18.169  0.00  0.00    +0.032 HD
BRANCH  84  86
ATOM     86  C   UNL     1      -7.754  13.992  17.262  0.00  0.00    -0.060 C 
ATOM     87  H   UNL     1      -7.859  15.020  17.626  0.00  0.00    +0.023 HD
ATOM     88  H   UNL     1      -7.314  14.047  16.259  0.00  0.00    +0.023 HD
ATOM     89  H   UNL     1      -7.042  13.471  17.914  0.00  0.00    +0.023 HD
ENDBRANCH  84  86
BRANCH  84  90
ATOM     90  C   UNL     1      -9.969  13.910  16.087  0.00  0.00    -0.041 C 
ATOM     91  H   UNL     1      -9.727  13.373  15.159  0.00  0.00    +0.027 HD
ATOM     92  H   UNL     1      -9.630  14.931  15.894  0.00  0.00    +0.027 HD
BRANCH  90  93
ATOM     93  C   UNL     1     -11.486  13.925  16.261  0.00  0.00    +0.007 C 
ATOM     94  H   UNL     1     -11.904  12.915  16.265  0.00  0.00    +0.034 HD
ATOM     95  H   UNL     1     -11.958  14.476  15.439  0.00  0.00    +0.034 HD
BRANCH  93  96
ATOM     96  C   UNL     1     -11.906  14.614  17.554  0.00  0.00    +0.139 C 
ATOM     97  O   UNL     1     -11.886  13.984  18.617  0.00  0.00    -0.297 OA
BRANCH  96  98
ATOM     98  C   UNL     1     -12.376  16.073  17.484  0.00  0.00    +0.041 C 
ATOM     99  H   UNL     1     -13.384  16.069  17.905  0.00  0.00    +0.040 HD
BRANCH  98 100
ATOM    100  C   UNL     1     -12.508  16.568  16.042  0.00  0.00    -0.053 C 
ATOM    101  H   UNL     1     -11.632  17.140  15.719  0.00  0.00    +0.024 HD
ATOM    102  H   UNL     1     -12.607  15.721  15.354  0.00  0.00    +0.024 HD
ATOM    103  H   UNL     1     -13.403  17.188  15.918  0.00  0.00    +0.024 HD
ENDBRANCH  98 100
BRANCH  98 104
ATOM    104  C   UNL     1     -11.524  17.009  18.377  0.00  0.00    +0.071 C 
ATOM    105  H   UNL     1     -11.905  17.011  19.406  0.00  0.00    +0.061 HD
BRANCH 104 106
ATOM    106  C   UNL     1     -10.007  16.704  18.432  0.00  0.00    -0.006 C 
ATOM    107  H   UNL     1      -9.642  16.833  19.459  0.00  0.00    +0.033 HD
ATOM    108  H   UNL     1      -9.872  15.634  18.228  0.00  0.00    +0.033 HD
BRANCH 106 109
ATOM    109  C   UNL     1      -9.158  17.463  17.447  0.00  0.00    -0.067 C 
ATOM    110  C   UNL     1      -7.852  17.695  17.637  0.00  0.00    -0.005 C 
ATOM    111  H   UNL     1      -9.685  17.800  16.557  0.00  0.00    +0.059 HD
ATOM    112  H   UNL     1      -7.374  17.289  18.527  0.00  0.00    +0.078 HD
BRANCH 110 113
ATOM    113  N   UNL     1      -7.002  18.411  16.811  0.00  0.00    -0.284 N 
ATOM    114  C   UNL     1      -7.102  19.775  16.542  0.00  0.00    +0.206 C 
ATOM    115  O   UNL     1      -6.353  20.416  15.809  0.00  0.00    -0.279 OA
ATOM    116  H   UNL     1      -7.929  20.277  17.059  0.00  0.00    +0.126 HD
BRANCH 113 117
ATOM    117  C   UNL     1      -5.887  17.686  16.208  0.00  0.00    +0.007 C 
ATOM    118  H   UNL     1      -4.960  18.219  16.452  0.00  0.00    +0.043 HD
ATOM    119  H   UNL     1      -5.977  17.618  15.121  0.00  0.00    +0.043 HD
ATOM    120  H   UNL     1      -5.846  16.671  16.620  0.00  0.00    +0.043 HD
ENDBRANCH 113 117
ENDBRANCH 110 113
ENDBRANCH 106 109
ENDBRANCH 104 106
BRANCH 104 121
ATOM    121  O   UNL     1     -11.618  18.354  17.853  0.00  0.00    -0.379 OA
BRANCH 121 122
ATOM    122  C   UNL     1     -12.363  19.236  18.690  0.00  0.00    +0.037 C 
ATOM    123  H   UNL     1     -11.661  19.893  19.212  0.00  0.00    +0.052 HD
ATOM    124  H   UNL     1     -13.041  19.853  18.099  0.00  0.00    +0.052 HD
ATOM    125  H   UNL     1     -12.930  18.667  19.433  0.00  0.00    +0.052 HD
ENDBRANCH 121 122
ENDBRANCH 104 121
ENDBRANCH  98 104
ENDBRANCH  96  98
ENDBRANCH  93  96
ENDBRANCH  90  93
ENDBRANCH  84  90
ENDBRANCH  82  84
BRANCH  82 126
ATOM    126  O   UNL     1      -9.944  11.140  16.456  0.00  0.00    -0.379 OA
BRANCH 126 127
ATOM    127  C   UNL     1     -10.849  10.337  17.210  0.00  0.00    +0.037 C 
ATOM    128  H   UNL     1     -10.398  10.053  18.167  0.00  0.00    +0.052 HD
ATOM    129  H   UNL     1     -11.792  10.868  17.377  0.00  0.00    +0.052 HD
ATOM    130  H   UNL     1     -11.058   9.425  16.641  0.00  0.00    +0.052 HD
ENDBRANCH 126 127
ENDBRANCH  82 126
ENDBRANCH  76  82
ENDBRANCH  25  76
BRANCH  31 131
ATOM    131  O   UNL     1     -11.674  10.571  20.913  0.00  0.00    -0.379 OA
BRANCH 131 132
ATOM    132  C   UNL     1     -12.789  10.961  20.115  0.00  0.00    +0.037 C 
ATOM    133  H   UNL     1     -13.479  11.578  20.698  0.00  0.00    +0.052 HD
ATOM    134  H   UNL     1     -12.420  11.546  19.267  0.00  0.00    +0.052 HD
ATOM    135  H   UNL     1     -13.308  10.076  19.728  0.00  0.00    +0.052 HD
ENDBRANCH 131 132
ENDBRANCH  31 131
BRANCH  29 136
ATOM    136  O   UNL     1     -11.680   7.171  22.031  0.00  0.00    -0.376 OA
BRANCH 136 137
ATOM    137  C   UNL     1     -11.819   6.639  20.720  0.00  0.00    +0.037 C 
ATOM    138  H   UNL     1     -12.726   6.028  20.648  0.00  0.00    +0.052 HD
ATOM    139  H   UNL     1     -11.907   7.477  20.020  0.00  0.00    +0.052 HD
ATOM    140  H   UNL     1     -10.940   6.050  20.448  0.00  0.00    +0.052 HD
ENDBRANCH 136 137
ENDBRANCH  29 136
BRANCH  16 141
ATOM    141  O   UNL     1      -4.750  18.028  19.523  0.00  0.00    -0.379 OA
BRANCH 141 142
ATOM    142  C   UNL     1      -4.352  19.265  18.948  0.00  0.00    +0.037 C 
ATOM    143  H   UNL     1      -4.731  20.072  19.584  0.00  0.00    +0.052 HD
ATOM    144  H   UNL     1      -4.763  19.393  17.942  0.00  0.00    +0.052 HD
ATOM    145  H   UNL     1      -3.257  19.331  18.920  0.00  0.00    +0.052 HD
ENDBRANCH 141 142
ENDBRANCH  16 141
BRANCH   6 146
ATOM    146  O   UNL     1      -7.404  14.034  24.020  0.00  0.00    -0.379 OA
BRANCH 146 147
ATOM    147  C   UNL     1      -6.497  13.554  23.031  0.00  0.00    +0.037 C 
ATOM    148  H   UNL     1      -7.044  13.259  22.131  0.00  0.00    +0.052 HD
ATOM    149  H   UNL     1      -5.919  12.701  23.406  0.00  0.00    +0.052 HD
ATOM    150  H   UNL     1      -5.802  14.360  22.775  0.00  0.00    +0.052 HD
ENDBRANCH 146 147
ENDBRANCH   6 146
BRANCH   4 151
ATOM    151  O   UNL     1      -9.001  12.286  25.854  0.00  0.00    -0.376 OA
BRANCH 151 152
ATOM    152  C   UNL     1      -9.001  11.954  27.239  0.00  0.00    +0.037 C 
ATOM    153  H   UNL     1      -8.800  10.887  27.380  0.00  0.00    +0.052 HD
ATOM    154  H   UNL     1      -8.203  12.518  27.720  0.00  0.00    +0.052 HD
ATOM    155  H   UNL     1      -9.953  12.219  27.705  0.00  0.00    +0.052 HD
ENDBRANCH 151 152
ENDBRANCH   4 151
TORSDOF 33
ENDMDL
