MODEL 1
REMARK VINA RESULT:      -5.3      0.000      0.000
REMARK  Name = Reidispongiolide A_conf1
REMARK  33 active torsions:
REMARK  status: ('A' for Active; 'I' for Inactive)
REMARK    1  A    between atoms: C_1  and  C_2
REMARK    2  A    between atoms: C_5  and  O_67
REMARK    3  A    between atoms: C_7  and  O_65
REMARK    4  A    between atoms: C_8  and  C_64
REMARK    5  A    between atoms: C_17  and  O_62
REMARK    6  A    between atoms: C_19  and  C_61
REMARK    7  A    between atoms: C_26  and  C_38
REMARK    8  A    between atoms: C_27  and  C_37
REMARK    9  A    between atoms: C_30  and  O_35
REMARK   10  A    between atoms: C_32  and  O_33
REMARK   11  A    between atoms: O_33  and  C_34
REMARK   12  A    between atoms: O_35  and  C_36
REMARK   13  A    between atoms: C_38  and  C_39
REMARK   14  A    between atoms: C_38  and  C_40
REMARK   15  A    between atoms: C_40  and  C_41
REMARK   16  A    between atoms: C_40  and  O_59
REMARK   17  A    between atoms: C_41  and  C_42
REMARK   18  A    between atoms: C_41  and  C_43
REMARK   19  A    between atoms: C_43  and  C_44
REMARK   20  A    between atoms: C_44  and  C_45
REMARK   21  A    between atoms: C_45  and  C_47
REMARK   22  A    between atoms: C_47  and  C_48
REMARK   23  A    between atoms: C_47  and  C_49
REMARK   24  A    between atoms: C_49  and  C_50
REMARK   25  A    between atoms: C_49  and  O_57
REMARK   26  A    between atoms: C_50  and  C_51
REMARK   27  A    between atoms: C_52  and  N_53
REMARK   28  A    between atoms: N_53  and  C_54
REMARK   29  A    between atoms: O_57  and  C_58
REMARK   30  A    between atoms: O_59  and  C_60
REMARK   31  A    between atoms: O_62  and  C_63
REMARK   32  A    between atoms: O_65  and  C_66
REMARK   33  A    between atoms: O_67  and  C_68
REMARK                            x       y       z     vdW  Elec       q    Type
REMARK                         _______ _______ _______ _____ _____    ______ ____
ROOT
ATOM      1  C   UNL     1      -7.852  13.593  22.316  0.00  0.00    +0.001 C 
ATOM      2  C   UNL     1      -8.725  13.398  23.542  0.00  0.00    -0.080 C 
ATOM      3  C   UNL     1      -9.766  12.551  23.601  0.00  0.00    -0.059 C 
ATOM      4  C   UNL     1     -10.661  12.400  24.801  0.00  0.00    +0.079 C 
ATOM      5  C   UNL     1     -11.426  11.065  24.847  0.00  0.00    +0.004 C 
ATOM      6  C   UNL     1     -10.536   9.817  25.027  0.00  0.00    +0.067 C 
ATOM      7  C   UNL     1     -11.031   8.864  26.162  0.00  0.00    +0.020 C 
ATOM      8  C   UNL     1     -12.532   8.438  26.069  0.00  0.00    +0.112 C 
ATOM      9  C   UNL     1     -12.906   7.471  24.936  0.00  0.00    +0.006 C 
ATOM     10  C   UNL     1     -12.594   6.040  25.283  0.00  0.00    -0.057 C 
ATOM     11  C   UNL     1     -12.458   5.679  26.568  0.00  0.00    +0.022 C 
ATOM     12  C   UNL     1     -12.698   6.615  27.678  0.00  0.00    +0.332 C 
ATOM     13  O   UNL     1     -12.695   6.226  28.838  0.00  0.00    -0.246 OA
ATOM     14  O   UNL     1     -12.968   7.898  27.342  0.00  0.00    -0.458 OA
ATOM     15  C   UNL     1     -12.468   5.036  24.155  0.00  0.00    -0.004 C 
ATOM     16  C   UNL     1     -13.783   4.833  23.358  0.00  0.00    +0.066 C 
ATOM     17  C   UNL     1     -13.557   3.988  22.076  0.00  0.00    -0.005 C 
ATOM     18  C   UNL     1     -12.699   4.563  20.951  0.00  0.00    -0.070 C 
ATOM     19  C   UNL     1     -12.351   5.861  20.906  0.00  0.00    -0.062 C 
ATOM     20  C   UNL     1     -11.444   6.530  20.013  0.00  0.00    -0.055 C 
ATOM     21  C   UNL     1     -11.582   6.704  18.688  0.00  0.00    +0.023 C 
ATOM     22  C   UNL     1     -10.701   7.637  17.943  0.00  0.00    +0.332 C 
ATOM     23  O   UNL     1     -10.961   8.055  16.827  0.00  0.00    -0.246 OA
ATOM     24  O   UNL     1      -9.663   8.020  18.718  0.00  0.00    -0.457 OA
ATOM     25  C   UNL     1      -8.948   9.249  18.402  0.00  0.00    +0.114 C 
ATOM     26  C   UNL     1      -9.869  10.434  18.871  0.00  0.00    +0.012 C 
ATOM     27  C   UNL     1      -9.366  11.821  18.521  0.00  0.00    -0.079 C 
ATOM     28  C   UNL     1      -9.401  12.903  19.323  0.00  0.00    -0.059 C 
ATOM     29  C   UNL     1      -8.910  14.300  19.031  0.00  0.00    +0.079 C 
ATOM     30  C   UNL     1      -7.835  14.780  20.032  0.00  0.00    +0.004 C 
ATOM     31  C   UNL     1      -8.330  14.835  21.497  0.00  0.00    +0.067 C 
ATOM     32  H   UNL     1      -7.945  12.699  21.691  0.00  0.00    +0.037 HD
ATOM     33  H   UNL     1      -8.501  14.033  24.399  0.00  0.00    +0.057 HD
ATOM     34  H   UNL     1     -10.029  11.955  22.733  0.00  0.00    +0.059 HD
ATOM     35  H   UNL     1     -10.076  12.502  25.728  0.00  0.00    +0.064 HD
ATOM     36  H   UNL     1     -12.046  10.967  23.946  0.00  0.00    +0.032 HD
ATOM     37  H   UNL     1     -12.136  11.165  25.675  0.00  0.00    +0.032 HD
ATOM     38  H   UNL     1      -9.514  10.141  25.271  0.00  0.00    +0.060 HD
ATOM     39  H   UNL     1     -10.433   7.944  26.132  0.00  0.00    +0.036 HD
ATOM     40  H   UNL     1     -13.145   9.334  25.932  0.00  0.00    +0.074 HD
ATOM     41  H   UNL     1     -12.429   7.756  23.997  0.00  0.00    +0.035 HD
ATOM     42  H   UNL     1     -13.992   7.535  24.766  0.00  0.00    +0.035 HD
ATOM     43  H   UNL     1     -12.247   4.658  26.865  0.00  0.00    +0.069 HD
ATOM     44  H   UNL     1     -11.655   5.376  23.504  0.00  0.00    +0.034 HD
ATOM     45  H   UNL     1     -12.151   4.066  24.562  0.00  0.00    +0.034 HD
ATOM     46  H   UNL     1     -14.219   5.803  23.095  0.00  0.00    +0.060 HD
ATOM     47  H   UNL     1     -13.120   3.028  22.395  0.00  0.00    +0.034 HD
ATOM     48  H   UNL     1     -14.532   3.726  21.645  0.00  0.00    +0.034 HD
ATOM     49  H   UNL     1     -12.692   6.541  21.688  0.00  0.00    +0.062 HD
ATOM     50  H   UNL     1     -10.634   7.022  20.549  0.00  0.00    +0.062 HD
ATOM     51  H   UNL     1     -12.412   6.291  18.129  0.00  0.00    +0.069 HD
ATOM     52  H   UNL     1      -8.799   9.297  17.318  0.00  0.00    +0.074 HD
ATOM     53  H   UNL     1     -10.807  10.327  18.304  0.00  0.00    +0.038 HD
ATOM     54  H   UNL     1      -8.974  11.941  17.513  0.00  0.00    +0.057 HD
ATOM     55  H   UNL     1      -9.863  12.811  20.302  0.00  0.00    +0.059 HD
ATOM     56  H   UNL     1      -9.784  14.965  19.091  0.00  0.00    +0.064 HD
ATOM     57  H   UNL     1      -6.951  14.136  19.944  0.00  0.00    +0.032 HD
ATOM     58  H   UNL     1      -7.477  15.766  19.713  0.00  0.00    +0.032 HD
ATOM     59  H   UNL     1      -9.429  14.878  21.516  0.00  0.00    +0.060 HD
ENDROOT
BRANCH   1  60
ATOM     60  C   UNL     1      -6.386  13.695  22.759  0.00  0.00    -0.057 C 
ATOM     61  H   UNL     1      -6.090  12.851  23.393  0.00  0.00    +0.024 HD
ATOM     62  H   UNL     1      -5.720  13.700  21.891  0.00  0.00    +0.024 HD
ATOM     63  H   UNL     1      -6.203  14.615  23.324  0.00  0.00    +0.024 HD
ENDBRANCH   1  60
BRANCH  26  64
ATOM     64  C   UNL     1     -10.280  10.279  20.347  0.00  0.00    -0.056 C 
ATOM     65  H   UNL     1     -10.228  11.224  20.892  0.00  0.00    +0.024 HD
ATOM     66  H   UNL     1     -11.302   9.896  20.443  0.00  0.00    +0.024 HD
ATOM     67  H   UNL     1      -9.604   9.600  20.878  0.00  0.00    +0.024 HD
ENDBRANCH  26  64
BRANCH  18  68
ATOM     68  C   UNL     1     -12.260   3.531  19.946  0.00  0.00    -0.043 C 
ATOM     69  H   UNL     1     -12.026   2.590  20.456  0.00  0.00    +0.027 HD
ATOM     70  H   UNL     1     -11.356   3.870  19.426  0.00  0.00    +0.027 HD
ATOM     71  H   UNL     1     -13.013   3.314  19.185  0.00  0.00    +0.027 HD
ENDBRANCH  18  68
BRANCH   7  72
ATOM     72  C   UNL     1     -10.718   9.523  27.519  0.00  0.00    -0.057 C 
ATOM     73  H   UNL     1     -10.915   8.826  28.341  0.00  0.00    +0.023 HD
ATOM     74  H   UNL     1      -9.673   9.840  27.584  0.00  0.00    +0.023 HD
ATOM     75  H   UNL     1     -11.348  10.402  27.694  0.00  0.00    +0.023 HD
ENDBRANCH   7  72
BRANCH  25  76
ATOM     76  C   UNL     1      -7.564   9.095  19.106  0.00  0.00    +0.020 C 
ATOM     77  H   UNL     1      -7.381  10.025  19.664  0.00  0.00    +0.036 HD
BRANCH  76  78
ATOM     78  C   UNL     1      -7.644   8.024  20.214  0.00  0.00    -0.057 C 
ATOM     79  H   UNL     1      -8.392   8.304  20.963  0.00  0.00    +0.023 HD
ATOM     80  H   UNL     1      -6.700   7.907  20.751  0.00  0.00    +0.023 HD
ATOM     81  H   UNL     1      -7.944   7.052  19.814  0.00  0.00    +0.023 HD
ENDBRANCH  76  78
BRANCH  76  82
ATOM     82  C   UNL     1      -6.337   8.910  18.172  0.00  0.00    +0.067 C 
ATOM     83  H   UNL     1      -5.774   8.054  18.557  0.00  0.00    +0.060 HD
BRANCH  82  84
ATOM     84  C   UNL     1      -5.338  10.102  18.024  0.00  0.00    -0.017 C 
ATOM     85  H   UNL     1      -4.416   9.845  18.555  0.00  0.00    +0.032 HD
BRANCH  84  86
ATOM     86  C   UNL     1      -4.981  10.225  16.530  0.00  0.00    -0.060 C 
ATOM     87  H   UNL     1      -4.211   9.503  16.244  0.00  0.00    +0.023 HD
ATOM     88  H   UNL     1      -5.852  10.056  15.892  0.00  0.00    +0.023 HD
ATOM     89  H   UNL     1      -4.568  11.210  16.303  0.00  0.00    +0.023 HD
ENDBRANCH  84  86
BRANCH  84  90
ATOM     90  C   UNL     1      -5.873  11.447  18.582  0.00  0.00    -0.041 C 
ATOM     91  H   UNL     1      -6.561  11.245  19.408  0.00  0.00    +0.027 HD
ATOM     92  H   UNL     1      -6.463  11.940  17.799  0.00  0.00    +0.027 HD
BRANCH  90  93
ATOM     93  C   UNL     1      -4.845  12.472  19.065  0.00  0.00    +0.007 C 
ATOM     94  H   UNL     1      -3.861  11.979  19.048  0.00  0.00    +0.034 HD
ATOM     95  H   UNL     1      -4.978  12.790  20.104  0.00  0.00    +0.034 HD
BRANCH  93  96
ATOM     96  C   UNL     1      -4.702  13.693  18.174  0.00  0.00    +0.139 C 
ATOM     97  O   UNL     1      -5.246  13.705  17.067  0.00  0.00    -0.297 OA
BRANCH  96  98
ATOM     98  C   UNL     1      -3.851  14.857  18.677  0.00  0.00    +0.041 C 
ATOM     99  H   UNL     1      -4.316  15.241  19.591  0.00  0.00    +0.040 HD
BRANCH  98 100
ATOM    100  C   UNL     1      -3.885  15.972  17.633  0.00  0.00    -0.053 C 
ATOM    101  H   UNL     1      -3.207  15.771  16.800  0.00  0.00    +0.024 HD
ATOM    102  H   UNL     1      -3.602  16.929  18.086  0.00  0.00    +0.024 HD
ATOM    103  H   UNL     1      -4.889  16.083  17.214  0.00  0.00    +0.024 HD
ENDBRANCH  98 100
BRANCH  98 104
ATOM    104  C   UNL     1      -2.402  14.430  19.030  0.00  0.00    +0.071 C 
ATOM    105  H   UNL     1      -2.406  13.333  19.108  0.00  0.00    +0.061 HD
BRANCH 104 106
ATOM    106  C   UNL     1      -1.362  14.846  17.962  0.00  0.00    -0.006 C 
ATOM    107  H   UNL     1      -1.348  14.122  17.138  0.00  0.00    +0.033 HD
ATOM    108  H   UNL     1      -1.677  15.787  17.492  0.00  0.00    +0.033 HD
BRANCH 106 109
ATOM    109  C   UNL     1       0.035  14.992  18.512  0.00  0.00    -0.067 C 
ATOM    110  C   UNL     1       0.854  13.950  18.717  0.00  0.00    -0.005 C 
ATOM    111  H   UNL     1       0.344  16.004  18.742  0.00  0.00    +0.059 HD
ATOM    112  H   UNL     1       0.487  12.948  18.489  0.00  0.00    +0.078 HD
BRANCH 110 113
ATOM    113  N   UNL     1       2.158  13.982  19.185  0.00  0.00    -0.284 N 
ATOM    114  C   UNL     1       3.055  12.918  19.148  0.00  0.00    +0.206 C 
ATOM    115  O   UNL     1       4.197  12.918  19.596  0.00  0.00    -0.279 OA
ATOM    116  H   UNL     1       2.658  12.016  18.662  0.00  0.00    +0.126 HD
BRANCH 113 117
ATOM    117  C   UNL     1       2.619  15.228  19.788  0.00  0.00    +0.007 C 
ATOM    118  H   UNL     1       3.716  15.242  19.772  0.00  0.00    +0.043 HD
ATOM    119  H   UNL     1       2.232  16.077  19.213  0.00  0.00    +0.043 HD
ATOM    120  H   UNL     1       2.288  15.335  20.825  0.00  0.00    +0.043 HD
ENDBRANCH 113 117
ENDBRANCH 110 113
ENDBRANCH 106 109
ENDBRANCH 104 106
BRANCH 104 121
ATOM    121  O   UNL     1      -2.042  14.969  20.307  0.00  0.00    -0.379 OA
BRANCH 121 122
ATOM    122  C   UNL     1      -3.108  14.996  21.246  0.00  0.00    +0.037 C 
ATOM    123  H   UNL     1      -2.808  15.486  22.176  0.00  0.00    +0.052 HD
ATOM    124  H   UNL     1      -3.459  13.982  21.452  0.00  0.00    +0.052 HD
ATOM    125  H   UNL     1      -3.933  15.564  20.808  0.00  0.00    +0.052 HD
ENDBRANCH 121 122
ENDBRANCH 104 121
ENDBRANCH  98 104
ENDBRANCH  96  98
ENDBRANCH  93  96
ENDBRANCH  90  93
ENDBRANCH  84  90
ENDBRANCH  82  84
BRANCH  82 126
ATOM    126  O   UNL     1      -6.801   8.561  16.852  0.00  0.00    -0.379 OA
BRANCH 126 127
ATOM    127  C   UNL     1      -6.923   7.161  16.649  0.00  0.00    +0.037 C 
ATOM    128  H   UNL     1      -7.938   6.925  16.318  0.00  0.00    +0.052 HD
ATOM    129  H   UNL     1      -6.191   6.802  15.919  0.00  0.00    +0.052 HD
ATOM    130  H   UNL     1      -6.745   6.658  17.604  0.00  0.00    +0.052 HD
ENDBRANCH 126 127
ENDBRANCH  82 126
ENDBRANCH  76  82
ENDBRANCH  25  76
BRANCH  31 131
ATOM    131  O   UNL     1      -7.825  16.025  22.135  0.00  0.00    -0.379 OA
BRANCH 131 132
ATOM    132  C   UNL     1      -7.352  16.996  21.210  0.00  0.00    +0.037 C 
ATOM    133  H   UNL     1      -6.591  16.558  20.555  0.00  0.00    +0.052 HD
ATOM    134  H   UNL     1      -6.943  17.867  21.727  0.00  0.00    +0.052 HD
ATOM    135  H   UNL     1      -8.194  17.321  20.596  0.00  0.00    +0.052 HD
ENDBRANCH 131 132
ENDBRANCH  31 131
BRANCH  29 136
ATOM    136  O   UNL     1      -8.369  14.336  17.705  0.00  0.00    -0.376 OA
BRANCH 136 137
ATOM    137  C   UNL     1      -8.159  15.663  17.238  0.00  0.00    +0.037 C 
ATOM    138  H   UNL     1      -7.222  16.071  17.629  0.00  0.00    +0.052 HD
ATOM    139  H   UNL     1      -8.103  15.636  16.146  0.00  0.00    +0.052 HD
ATOM    140  H   UNL     1      -9.000  16.307  17.520  0.00  0.00    +0.052 HD
ENDBRANCH 136 137
ENDBRANCH  29 136
BRANCH  16 141
ATOM    141  O   UNL     1     -14.695   4.124  24.222  0.00  0.00    -0.379 OA
BRANCH 141 142
ATOM    142  C   UNL     1     -15.960   4.763  24.336  0.00  0.00    +0.037 C 
ATOM    143  H   UNL     1     -16.713   3.997  24.542  0.00  0.00    +0.052 HD
ATOM    144  H   UNL     1     -15.944   5.471  25.170  0.00  0.00    +0.052 HD
ATOM    145  H   UNL     1     -16.233   5.281  23.411  0.00  0.00    +0.052 HD
ENDBRANCH 141 142
ENDBRANCH  16 141
BRANCH   6 146
ATOM    146  O   UNL     1     -10.501   9.127  23.767  0.00  0.00    -0.379 OA
BRANCH 146 147
ATOM    147  C   UNL     1      -9.598   8.028  23.750  0.00  0.00    +0.037 C 
ATOM    148  H   UNL     1      -8.582   8.424  23.784  0.00  0.00    +0.052 HD
ATOM    149  H   UNL     1      -9.753   7.396  24.631  0.00  0.00    +0.052 HD
ATOM    150  H   UNL     1      -9.707   7.437  22.837  0.00  0.00    +0.052 HD
ENDBRANCH 146 147
ENDBRANCH   6 146
BRANCH   4 151
ATOM    151  O   UNL     1     -11.660  13.427  24.706  0.00  0.00    -0.376 OA
BRANCH 151 152
ATOM    152  C   UNL     1     -12.669  13.124  23.751  0.00  0.00    +0.037 C 
ATOM    153  H   UNL     1     -12.299  12.320  23.106  0.00  0.00    +0.052 HD
ATOM    154  H   UNL     1     -12.892  13.995  23.127  0.00  0.00    +0.052 HD
ATOM    155  H   UNL     1     -13.576  12.775  24.252  0.00  0.00    +0.052 HD
ENDBRANCH 151 152
ENDBRANCH   4 151
TORSDOF 33
ENDMDL
MODEL 2
REMARK VINA RESULT:      -5.3      2.853      4.886
REMARK  Name = Reidispongiolide A_conf1
REMARK  33 active torsions:
REMARK  status: ('A' for Active; 'I' for Inactive)
REMARK    1  A    between atoms: C_1  and  C_2
REMARK    2  A    between atoms: C_5  and  O_67
REMARK    3  A    between atoms: C_7  and  O_65
REMARK    4  A    between atoms: C_8  and  C_64
REMARK    5  A    between atoms: C_17  and  O_62
REMARK    6  A    between atoms: C_19  and  C_61
REMARK    7  A    between atoms: C_26  and  C_38
REMARK    8  A    between atoms: C_27  and  C_37
REMARK    9  A    between atoms: C_30  and  O_35
REMARK   10  A    between atoms: C_32  and  O_33
REMARK   11  A    between atoms: O_33  and  C_34
REMARK   12  A    between atoms: O_35  and  C_36
REMARK   13  A    between atoms: C_38  and  C_39
REMARK   14  A    between atoms: C_38  and  C_40
REMARK   15  A    between atoms: C_40  and  C_41
REMARK   16  A    between atoms: C_40  and  O_59
REMARK   17  A    between atoms: C_41  and  C_42
REMARK   18  A    between atoms: C_41  and  C_43
REMARK   19  A    between atoms: C_43  and  C_44
REMARK   20  A    between atoms: C_44  and  C_45
REMARK   21  A    between atoms: C_45  and  C_47
REMARK   22  A    between atoms: C_47  and  C_48
REMARK   23  A    between atoms: C_47  and  C_49
REMARK   24  A    between atoms: C_49  and  C_50
REMARK   25  A    between atoms: C_49  and  O_57
REMARK   26  A    between atoms: C_50  and  C_51
REMARK   27  A    between atoms: C_52  and  N_53
REMARK   28  A    between atoms: N_53  and  C_54
REMARK   29  A    between atoms: O_57  and  C_58
REMARK   30  A    between atoms: O_59  and  C_60
REMARK   31  A    between atoms: O_62  and  C_63
REMARK   32  A    between atoms: O_65  and  C_66
REMARK   33  A    between atoms: O_67  and  C_68
REMARK                            x       y       z     vdW  Elec       q    Type
REMARK                         _______ _______ _______ _____ _____    ______ ____
ROOT
ATOM      1  C   UNL     1      -9.288  13.750  25.427  0.00  0.00    +0.001 C 
ATOM      2  C   UNL     1      -9.438  13.178  26.825  0.00  0.00    -0.080 C 
ATOM      3  C   UNL     1     -10.189  12.106  27.127  0.00  0.00    -0.059 C 
ATOM      4  C   UNL     1     -10.377  11.576  28.523  0.00  0.00    +0.079 C 
ATOM      5  C   UNL     1     -10.821  10.103  28.578  0.00  0.00    +0.004 C 
ATOM      6  C   UNL     1      -9.779   9.094  28.052  0.00  0.00    +0.067 C 
ATOM      7  C   UNL     1      -9.531   7.898  29.029  0.00  0.00    +0.020 C 
ATOM      8  C   UNL     1     -10.815   7.141  29.497  0.00  0.00    +0.112 C 
ATOM      9  C   UNL     1     -11.534   6.284  28.445  0.00  0.00    +0.006 C 
ATOM     10  C   UNL     1     -10.886   4.935  28.273  0.00  0.00    -0.057 C 
ATOM     11  C   UNL     1     -10.107   4.440  29.245  0.00  0.00    +0.022 C 
ATOM     12  C   UNL     1      -9.929   5.123  30.536  0.00  0.00    +0.332 C 
ATOM     13  O   UNL     1      -9.321   4.586  31.452  0.00  0.00    -0.246 OA
ATOM     14  O   UNL     1     -10.512   6.338  30.666  0.00  0.00    -0.458 OA
ATOM     15  C   UNL     1     -11.162   4.161  26.999  0.00  0.00    -0.004 C 
ATOM     16  C   UNL     1     -12.651   3.763  26.828  0.00  0.00    +0.066 C 
ATOM     17  C   UNL     1     -12.936   3.187  25.414  0.00  0.00    -0.005 C 
ATOM     18  C   UNL     1     -12.808   4.106  24.201  0.00  0.00    -0.070 C 
ATOM     19  C   UNL     1     -12.719   5.442  24.318  0.00  0.00    -0.062 C 
ATOM     20  C   UNL     1     -12.453   6.429  23.307  0.00  0.00    -0.055 C 
ATOM     21  C   UNL     1     -13.225   6.751  22.257  0.00  0.00    +0.023 C 
ATOM     22  C   UNL     1     -12.950   7.964  21.447  0.00  0.00    +0.332 C 
ATOM     23  O   UNL     1     -13.765   8.461  20.689  0.00  0.00    -0.246 OA
ATOM     24  O   UNL     1     -11.739   8.472  21.763  0.00  0.00    -0.457 OA
ATOM     25  C   UNL     1     -11.449   9.869  21.469  0.00  0.00    +0.114 C 
ATOM     26  C   UNL     1     -12.202  10.719  22.557  0.00  0.00    +0.012 C 
ATOM     27  C   UNL     1     -12.137  12.221  22.363  0.00  0.00    -0.079 C 
ATOM     28  C   UNL     1     -11.948  13.138  23.332  0.00  0.00    -0.059 C 
ATOM     29  C   UNL     1     -11.866  14.639  23.196  0.00  0.00    +0.079 C 
ATOM     30  C   UNL     1     -10.529  15.217  23.715  0.00  0.00    +0.004 C 
ATOM     31  C   UNL     1     -10.274  14.943  25.216  0.00  0.00    +0.067 C 
ATOM     32  H   UNL     1      -9.532  12.957  24.712  0.00  0.00    +0.037 HD
ATOM     33  H   UNL     1      -8.932  13.721  27.624  0.00  0.00    +0.057 HD
ATOM     34  H   UNL     1     -10.740  11.594  26.345  0.00  0.00    +0.059 HD
ATOM     35  H   UNL     1      -9.445  11.683  29.099  0.00  0.00    +0.064 HD
ATOM     36  H   UNL     1     -11.771   9.988  28.039  0.00  0.00    +0.032 HD
ATOM     37  H   UNL     1     -11.062   9.911  29.629  0.00  0.00    +0.032 HD
ATOM     38  H   UNL     1      -8.824   9.616  27.900  0.00  0.00    +0.060 HD
ATOM     39  H   UNL     1      -8.890   7.164  28.526  0.00  0.00    +0.036 HD
ATOM     40  H   UNL     1     -11.545   7.874  29.856  0.00  0.00    +0.074 HD
ATOM     41  H   UNL     1     -11.605   6.805  27.489  0.00  0.00    +0.035 HD
ATOM     42  H   UNL     1     -12.566   6.108  28.783  0.00  0.00    +0.035 HD
ATOM     43  H   UNL     1      -9.633   3.468  29.171  0.00  0.00    +0.069 HD
ATOM     44  H   UNL     1     -10.814   4.776  26.161  0.00  0.00    +0.034 HD
ATOM     45  H   UNL     1     -10.551   3.249  26.986  0.00  0.00    +0.034 HD
ATOM     46  H   UNL     1     -13.298   4.627  27.018  0.00  0.00    +0.060 HD
ATOM     47  H   UNL     1     -12.264   2.326  25.275  0.00  0.00    +0.034 HD
ATOM     48  H   UNL     1     -13.948   2.762  25.400  0.00  0.00    +0.034 HD
ATOM     49  H   UNL     1     -12.746   5.902  25.307  0.00  0.00    +0.062 HD
ATOM     50  H   UNL     1     -11.569   7.021  23.539  0.00  0.00    +0.062 HD
ATOM     51  H   UNL     1     -14.150   6.234  22.032  0.00  0.00    +0.069 HD
ATOM     52  H   UNL     1     -11.839  10.105  20.473  0.00  0.00    +0.074 HD
ATOM     53  H   UNL     1     -13.269  10.471  22.444  0.00  0.00    +0.038 HD
ATOM     54  H   UNL     1     -12.290  12.574  21.345  0.00  0.00    +0.057 HD
ATOM     55  H   UNL     1     -11.872  12.799  24.362  0.00  0.00    +0.059 HD
ATOM     56  H   UNL     1     -12.695  15.059  23.785  0.00  0.00    +0.064 HD
ATOM     57  H   UNL     1      -9.708  14.824  23.103  0.00  0.00    +0.032 HD
ATOM     58  H   UNL     1     -10.516  16.295  23.516  0.00  0.00    +0.032 HD
ATOM     59  H   UNL     1     -11.226  14.717  25.719  0.00  0.00    +0.060 HD
ENDROOT
BRANCH   1  60
ATOM     60  C   UNL     1      -7.821  14.137  25.202  0.00  0.00    -0.057 C 
ATOM     61  H   UNL     1      -7.231  13.300  24.812  0.00  0.00    +0.024 HD
ATOM     62  H   UNL     1      -7.745  14.955  24.479  0.00  0.00    +0.024 HD
ATOM     63  H   UNL     1      -7.350  14.472  26.131  0.00  0.00    +0.024 HD
ENDBRANCH   1  60
BRANCH  26  64
ATOM     64  C   UNL     1     -11.838  10.262  23.982  0.00  0.00    -0.056 C 
ATOM     65  H   UNL     1     -12.687   9.813  24.501  0.00  0.00    +0.024 HD
ATOM     66  H   UNL     1     -11.025   9.528  23.975  0.00  0.00    +0.024 HD
ATOM     67  H   UNL     1     -11.533  11.111  24.604  0.00  0.00    +0.024 HD
ENDBRANCH  26  64
BRANCH  18  68
ATOM     68  C   UNL     1     -12.749   3.363  22.892  0.00  0.00    -0.043 C 
ATOM     69  H   UNL     1     -13.047   2.319  23.042  0.00  0.00    +0.027 HD
ATOM     70  H   UNL     1     -11.726   3.371  22.497  0.00  0.00    +0.027 HD
ATOM     71  H   UNL     1     -13.400   3.783  22.122  0.00  0.00    +0.027 HD
ENDBRANCH  18  68
BRANCH   7  72
ATOM     72  C   UNL     1      -8.715   8.415  30.229  0.00  0.00    -0.057 C 
ATOM     73  H   UNL     1      -8.566   7.617  30.965  0.00  0.00    +0.023 HD
ATOM     74  H   UNL     1      -7.732   8.783  29.922  0.00  0.00    +0.023 HD
ATOM     75  H   UNL     1      -9.233   9.229  30.747  0.00  0.00    +0.023 HD
ENDBRANCH   7  72
BRANCH  25  76
ATOM     76  C   UNL     1      -9.891   9.954  21.446  0.00  0.00    +0.020 C 
ATOM     77  H   UNL     1      -9.595  10.670  22.227  0.00  0.00    +0.036 HD
BRANCH  76  78
ATOM     78  C   UNL     1      -9.275   8.625  21.927  0.00  0.00    -0.057 C 
ATOM     79  H   UNL     1      -8.594   8.222  21.170  0.00  0.00    +0.023 HD
ATOM     80  H   UNL     1     -10.029   7.854  22.104  0.00  0.00    +0.023 HD
ATOM     81  H   UNL     1      -8.689   8.759  22.840  0.00  0.00    +0.023 HD
ENDBRANCH  76  78
BRANCH  76  82
ATOM     82  C   UNL     1      -9.253  10.475  20.128  0.00  0.00    +0.067 C 
ATOM     83  H   UNL     1      -8.339   9.895  19.969  0.00  0.00    +0.060 HD
BRANCH  82  84
ATOM     84  C   UNL     1      -8.872  11.988  20.043  0.00  0.00    -0.017 C 
ATOM     85  H   UNL     1      -7.984  12.083  19.410  0.00  0.00    +0.032 HD
BRANCH  84  86
ATOM     86  C   UNL     1     -10.022  12.717  19.323  0.00  0.00    -0.060 C 
ATOM     87  H   UNL     1     -10.461  13.491  19.958  0.00  0.00    +0.023 HD
ATOM     88  H   UNL     1      -9.682  13.194  18.400  0.00  0.00    +0.023 HD
ATOM     89  H   UNL     1     -10.835  12.029  19.081  0.00  0.00    +0.023 HD
ENDBRANCH  84  86
BRANCH  84  90
ATOM     90  C   UNL     1      -8.571  12.641  21.418  0.00  0.00    -0.041 C 
ATOM     91  H   UNL     1      -7.958  11.959  22.014  0.00  0.00    +0.027 HD
ATOM     92  H   UNL     1      -9.516  12.765  21.961  0.00  0.00    +0.027 HD
BRANCH  90  93
ATOM     93  C   UNL     1      -7.886  14.010  21.416  0.00  0.00    +0.007 C 
ATOM     94  H   UNL     1      -8.240  14.552  22.307  0.00  0.00    +0.034 HD
ATOM     95  H   UNL     1      -8.162  14.652  20.574  0.00  0.00    +0.034 HD
BRANCH  93  96
ATOM     96  C   UNL     1      -6.374  13.961  21.545  0.00  0.00    +0.139 C 
ATOM     97  O   UNL     1      -5.866  13.599  22.610  0.00  0.00    -0.297 OA
BRANCH  96  98
ATOM     98  C   UNL     1      -5.534  14.402  20.349  0.00  0.00    +0.041 C 
ATOM     99  H   UNL     1      -5.028  15.334  20.621  0.00  0.00    +0.040 HD
BRANCH  98 100
ATOM    100  C   UNL     1      -6.470  14.702  19.180  0.00  0.00    -0.053 C 
ATOM    101  H   UNL     1      -5.957  15.232  18.373  0.00  0.00    +0.024 HD
ATOM    102  H   UNL     1      -7.315  15.314  19.513  0.00  0.00    +0.024 HD
ATOM    103  H   UNL     1      -6.872  13.778  18.755  0.00  0.00    +0.024 HD
ENDBRANCH  98 100
BRANCH  98 104
ATOM    104  C   UNL     1      -4.441  13.366  19.973  0.00  0.00    +0.071 C 
ATOM    105  H   UNL     1      -4.331  12.695  20.837  0.00  0.00    +0.061 HD
BRANCH 104 106
ATOM    106  C   UNL     1      -4.802  12.518  18.730  0.00  0.00    -0.006 C 
ATOM    107  H   UNL     1      -5.525  13.050  18.099  0.00  0.00    +0.033 HD
ATOM    108  H   UNL     1      -3.915  12.406  18.093  0.00  0.00    +0.033 HD
BRANCH 106 109
ATOM    109  C   UNL     1      -5.358  11.158  19.074  0.00  0.00    -0.067 C 
ATOM    110  C   UNL     1      -5.600  10.213  18.155  0.00  0.00    -0.005 C 
ATOM    111  H   UNL     1      -5.559  10.987  20.125  0.00  0.00    +0.059 HD
ATOM    112  H   UNL     1      -5.400  10.442  17.107  0.00  0.00    +0.078 HD
BRANCH 110 113
ATOM    113  N   UNL     1      -6.077   8.929  18.372  0.00  0.00    -0.284 N 
ATOM    114  C   UNL     1      -6.321   8.358  19.618  0.00  0.00    +0.206 C 
ATOM    115  O   UNL     1      -6.701   7.211  19.827  0.00  0.00    -0.279 OA
ATOM    116  H   UNL     1      -6.140   9.037  20.464  0.00  0.00    +0.126 HD
BRANCH 113 117
ATOM    117  C   UNL     1      -6.321   8.101  17.196  0.00  0.00    +0.007 C 
ATOM    118  H   UNL     1      -7.356   7.740  17.227  0.00  0.00    +0.043 HD
ATOM    119  H   UNL     1      -6.168   8.700  16.290  0.00  0.00    +0.043 HD
ATOM    120  H   UNL     1      -5.654   7.235  17.151  0.00  0.00    +0.043 HD
ENDBRANCH 113 117
ENDBRANCH 110 113
ENDBRANCH 106 109
ENDBRANCH 104 106
BRANCH 104 121
ATOM    121  O   UNL     1      -3.194  14.041  19.768  0.00  0.00    -0.379 OA
BRANCH 121 122
ATOM    122  C   UNL     1      -2.941  15.085  20.696  0.00  0.00    +0.037 C 
ATOM    123  H   UNL     1      -1.904  15.426  20.639  0.00  0.00    +0.052 HD
ATOM    124  H   UNL     1      -3.173  14.757  21.712  0.00  0.00    +0.052 HD
ATOM    125  H   UNL     1      -3.593  15.927  20.448  0.00  0.00    +0.052 HD
ENDBRANCH 121 122
ENDBRANCH 104 121
ENDBRANCH  98 104
ENDBRANCH  96  98
ENDBRANCH  93  96
ENDBRANCH  90  93
ENDBRANCH  84  90
ENDBRANCH  82  84
BRANCH  82 126
ATOM    126  O   UNL     1     -10.142  10.186  19.031  0.00  0.00    -0.379 OA
BRANCH 126 127
ATOM    127  C   UNL     1      -9.733   9.072  18.252  0.00  0.00    +0.037 C 
ATOM    128  H   UNL     1     -10.583   8.402  18.093  0.00  0.00    +0.052 HD
ATOM    129  H   UNL     1      -9.315   9.392  17.293  0.00  0.00    +0.052 HD
ATOM    130  H   UNL     1      -8.964   8.528  18.808  0.00  0.00    +0.052 HD
ENDBRANCH 126 127
ENDBRANCH  82 126
ENDBRANCH  76  82
ENDBRANCH  25  76
BRANCH  31 131
ATOM    131  O   UNL     1      -9.710  16.117  25.834  0.00  0.00    -0.379 OA
BRANCH 131 132
ATOM    132  C   UNL     1     -10.656  16.855  26.599  0.00  0.00    +0.037 C 
ATOM    133  H   UNL     1     -10.925  16.302  27.505  0.00  0.00    +0.052 HD
ATOM    134  H   UNL     1     -11.553  17.073  26.013  0.00  0.00    +0.052 HD
ATOM    135  H   UNL     1     -10.194  17.799  26.892  0.00  0.00    +0.052 HD
ENDBRANCH 131 132
ENDBRANCH  31 131
BRANCH  29 136
ATOM    136  O   UNL     1     -12.028  14.991  21.817  0.00  0.00    -0.376 OA
BRANCH 136 137
ATOM    137  C   UNL     1     -11.070  15.950  21.384  0.00  0.00    +0.037 C 
ATOM    138  H   UNL     1     -10.116  15.811  21.901  0.00  0.00    +0.052 HD
ATOM    139  H   UNL     1     -10.913  15.814  20.310  0.00  0.00    +0.052 HD
ATOM    140  H   UNL     1     -11.445  16.967  21.547  0.00  0.00    +0.052 HD
ENDBRANCH 136 137
ENDBRANCH  29 136
BRANCH  16 141
ATOM    141  O   UNL     1     -12.930   2.740  27.806  0.00  0.00    -0.379 OA
BRANCH 141 142
ATOM    142  C   UNL     1     -12.255   1.518  27.539  0.00  0.00    +0.037 C 
ATOM    143  H   UNL     1     -11.240   1.752  27.208  0.00  0.00    +0.052 HD
ATOM    144  H   UNL     1     -12.196   0.919  28.453  0.00  0.00    +0.052 HD
ATOM    145  H   UNL     1     -12.756   0.948  26.749  0.00  0.00    +0.052 HD
ENDBRANCH 141 142
ENDBRANCH  16 141
BRANCH   6 146
ATOM    146  O   UNL     1     -10.243   8.618  26.779  0.00  0.00    -0.379 OA
BRANCH 146 147
ATOM    147  C   UNL     1      -9.291   7.808  26.099  0.00  0.00    +0.037 C 
ATOM    148  H   UNL     1      -9.735   7.485  25.155  0.00  0.00    +0.052 HD
ATOM    149  H   UNL     1      -8.388   8.387  25.877  0.00  0.00    +0.052 HD
ATOM    150  H   UNL     1      -9.037   6.919  26.681  0.00  0.00    +0.052 HD
ENDBRANCH 146 147
ENDBRANCH   6 146
BRANCH   4 151
ATOM    151  O   UNL     1     -11.441  12.335  29.116  0.00  0.00    -0.376 OA
BRANCH 151 152
ATOM    152  C   UNL     1     -11.026  13.055  30.269  0.00  0.00    +0.037 C 
ATOM    153  H   UNL     1     -10.250  13.766  29.967  0.00  0.00    +0.052 HD
ATOM    154  H   UNL     1     -10.604  12.381  31.021  0.00  0.00    +0.052 HD
ATOM    155  H   UNL     1     -11.864  13.617  30.691  0.00  0.00    +0.052 HD
ENDBRANCH 151 152
ENDBRANCH   4 151
TORSDOF 33
ENDMDL
MODEL 3
REMARK VINA RESULT:      -5.3      5.897     11.799
REMARK  Name = Reidispongiolide A_conf1
REMARK  33 active torsions:
REMARK  status: ('A' for Active; 'I' for Inactive)
REMARK    1  A    between atoms: C_1  and  C_2
REMARK    2  A    between atoms: C_5  and  O_67
REMARK    3  A    between atoms: C_7  and  O_65
REMARK    4  A    between atoms: C_8  and  C_64
REMARK    5  A    between atoms: C_17  and  O_62
REMARK    6  A    between atoms: C_19  and  C_61
REMARK    7  A    between atoms: C_26  and  C_38
REMARK    8  A    between atoms: C_27  and  C_37
REMARK    9  A    between atoms: C_30  and  O_35
REMARK   10  A    between atoms: C_32  and  O_33
REMARK   11  A    between atoms: O_33  and  C_34
REMARK   12  A    between atoms: O_35  and  C_36
REMARK   13  A    between atoms: C_38  and  C_39
REMARK   14  A    between atoms: C_38  and  C_40
REMARK   15  A    between atoms: C_40  and  C_41
REMARK   16  A    between atoms: C_40  and  O_59
REMARK   17  A    between atoms: C_41  and  C_42
REMARK   18  A    between atoms: C_41  and  C_43
REMARK   19  A    between atoms: C_43  and  C_44
REMARK   20  A    between atoms: C_44  and  C_45
REMARK   21  A    between atoms: C_45  and  C_47
REMARK   22  A    between atoms: C_47  and  C_48
REMARK   23  A    between atoms: C_47  and  C_49
REMARK   24  A    between atoms: C_49  and  C_50
REMARK   25  A    between atoms: C_49  and  O_57
REMARK   26  A    between atoms: C_50  and  C_51
REMARK   27  A    between atoms: C_52  and  N_53
REMARK   28  A    between atoms: N_53  and  C_54
REMARK   29  A    between atoms: O_57  and  C_58
REMARK   30  A    between atoms: O_59  and  C_60
REMARK   31  A    between atoms: O_62  and  C_63
REMARK   32  A    between atoms: O_65  and  C_66
REMARK   33  A    between atoms: O_67  and  C_68
REMARK                            x       y       z     vdW  Elec       q    Type
REMARK                         _______ _______ _______ _____ _____    ______ ____
ROOT
ATOM      1  C   UNL     1     -11.202   1.486  18.560  0.00  0.00    +0.001 C 
ATOM      2  C   UNL     1     -10.826   0.254  17.757  0.00  0.00    -0.080 C 
ATOM      3  C   UNL     1     -10.608   0.252  16.432  0.00  0.00    -0.059 C 
ATOM      4  C   UNL     1     -10.288  -0.982  15.633  0.00  0.00    +0.079 C 
ATOM      5  C   UNL     1      -9.589  -0.695  14.291  0.00  0.00    +0.004 C 
ATOM      6  C   UNL     1      -8.175  -0.091  14.417  0.00  0.00    +0.067 C 
ATOM      7  C   UNL     1      -7.109  -0.829  13.543  0.00  0.00    +0.020 C 
ATOM      8  C   UNL     1      -7.483  -1.000  12.036  0.00  0.00    +0.112 C 
ATOM      9  C   UNL     1      -7.477   0.271  11.174  0.00  0.00    +0.006 C 
ATOM     10  C   UNL     1      -6.091   0.641  10.716  0.00  0.00    -0.057 C 
ATOM     11  C   UNL     1      -5.125  -0.289  10.695  0.00  0.00    +0.022 C 
ATOM     12  C   UNL     1      -5.385  -1.701  11.014  0.00  0.00    +0.332 C 
ATOM     13  O   UNL     1      -4.517  -2.550  10.859  0.00  0.00    -0.246 OA
ATOM     14  O   UNL     1      -6.635  -2.010  11.432  0.00  0.00    -0.458 OA
ATOM     15  C   UNL     1      -5.838   2.066  10.264  0.00  0.00    -0.004 C 
ATOM     16  C   UNL     1      -6.648   2.467   9.004  0.00  0.00    +0.066 C 
ATOM     17  C   UNL     1      -6.547   3.989   8.713  0.00  0.00    -0.005 C 
ATOM     18  C   UNL     1      -7.166   4.974   9.702  0.00  0.00    -0.070 C 
ATOM     19  C   UNL     1      -8.017   4.584  10.668  0.00  0.00    -0.062 C 
ATOM     20  C   UNL     1      -8.570   5.343  11.755  0.00  0.00    -0.055 C 
ATOM     21  C   UNL     1      -9.416   6.384  11.677  0.00  0.00    +0.023 C 
ATOM     22  C   UNL     1     -10.107   6.901  12.884  0.00  0.00    +0.332 C 
ATOM     23  O   UNL     1     -11.087   7.626  12.835  0.00  0.00    -0.246 OA
ATOM     24  O   UNL     1      -9.563   6.366  13.999  0.00  0.00    -0.457 OA
ATOM     25  C   UNL     1     -10.337   6.342  15.234  0.00  0.00    +0.114 C 
ATOM     26  C   UNL     1     -11.396   5.192  15.074  0.00  0.00    +0.012 C 
ATOM     27  C   UNL     1     -12.398   5.073  16.207  0.00  0.00    -0.079 C 
ATOM     28  C   UNL     1     -12.832   3.927  16.764  0.00  0.00    -0.059 C 
ATOM     29  C   UNL     1     -13.817   3.751  17.895  0.00  0.00    +0.079 C 
ATOM     30  C   UNL     1     -13.219   2.991  19.100  0.00  0.00    +0.004 C 
ATOM     31  C   UNL     1     -12.749   1.556  18.760  0.00  0.00    +0.067 C 
ATOM     32  H   UNL     1     -10.876   2.366  17.995  0.00  0.00    +0.037 HD
ATOM     33  H   UNL     1     -10.783  -0.686  18.309  0.00  0.00    +0.057 HD
ATOM     34  H   UNL     1     -10.702   1.174  15.866  0.00  0.00    +0.059 HD
ATOM     35  H   UNL     1      -9.653  -1.662  16.221  0.00  0.00    +0.064 HD
ATOM     36  H   UNL     1     -10.230  -0.049  13.677  0.00  0.00    +0.032 HD
ATOM     37  H   UNL     1      -9.562  -1.656  13.766  0.00  0.00    +0.032 HD
ATOM     38  H   UNL     1      -7.857  -0.146  15.467  0.00  0.00    +0.060 HD
ATOM     39  H   UNL     1      -6.173  -0.259  13.580  0.00  0.00    +0.036 HD
ATOM     40  H   UNL     1      -8.491  -1.420  11.968  0.00  0.00    +0.074 HD
ATOM     41  H   UNL     1      -7.949   1.106  11.694  0.00  0.00    +0.035 HD
ATOM     42  H   UNL     1      -8.079   0.085  10.272  0.00  0.00    +0.035 HD
ATOM     43  H   UNL     1      -4.117  -0.072  10.359  0.00  0.00    +0.069 HD
ATOM     44  H   UNL     1      -6.064   2.722  11.111  0.00  0.00    +0.034 HD
ATOM     45  H   UNL     1      -4.769   2.197  10.050  0.00  0.00    +0.034 HD
ATOM     46  H   UNL     1      -7.698   2.176   9.121  0.00  0.00    +0.060 HD
ATOM     47  H   UNL     1      -5.477   4.226   8.604  0.00  0.00    +0.034 HD
ATOM     48  H   UNL     1      -6.985   4.192   7.727  0.00  0.00    +0.034 HD
ATOM     49  H   UNL     1      -8.289   3.531  10.756  0.00  0.00    +0.062 HD
ATOM     50  H   UNL     1      -8.326   4.907  12.722  0.00  0.00    +0.062 HD
ATOM     51  H   UNL     1      -9.741   6.802  10.733  0.00  0.00    +0.069 HD
ATOM     52  H   UNL     1     -10.845   7.307  15.345  0.00  0.00    +0.074 HD
ATOM     53  H   UNL     1     -12.002   5.462  14.195  0.00  0.00    +0.038 HD
ATOM     54  H   UNL     1     -12.818   6.011  16.567  0.00  0.00    +0.057 HD
ATOM     55  H   UNL     1     -12.477   2.983  16.359  0.00  0.00    +0.059 HD
ATOM     56  H   UNL     1     -14.667   3.180  17.492  0.00  0.00    +0.064 HD
ATOM     57  H   UNL     1     -12.394   3.579  19.522  0.00  0.00    +0.032 HD
ATOM     58  H   UNL     1     -13.965   2.968  19.903  0.00  0.00    +0.032 HD
ATOM     59  H   UNL     1     -13.247   1.211  17.842  0.00  0.00    +0.060 HD
ENDROOT
BRANCH   1  60
ATOM     60  C   UNL     1     -10.425   1.475  19.883  0.00  0.00    -0.057 C 
ATOM     61  H   UNL     1      -9.953   0.505  20.073  0.00  0.00    +0.024 HD
ATOM     62  H   UNL     1      -9.631   2.227  19.870  0.00  0.00    +0.024 HD
ATOM     63  H   UNL     1     -11.080   1.699  20.731  0.00  0.00    +0.024 HD
ENDBRANCH   1  60
BRANCH  26  64
ATOM     64  C   UNL     1     -10.728   3.856  14.698  0.00  0.00    -0.056 C 
ATOM     65  H   UNL     1     -11.396   3.204  14.133  0.00  0.00    +0.024 HD
ATOM     66  H   UNL     1      -9.826   4.012  14.095  0.00  0.00    +0.024 HD
ATOM     67  H   UNL     1     -10.451   3.286  15.592  0.00  0.00    +0.024 HD
ENDBRANCH  26  64
BRANCH  18  68
ATOM     68  C   UNL     1      -6.696   6.392   9.508  0.00  0.00    -0.043 C 
ATOM     69  H   UNL     1      -6.224   6.496   8.525  0.00  0.00    +0.027 HD
ATOM     70  H   UNL     1      -5.952   6.652  10.271  0.00  0.00    +0.027 HD
ATOM     71  H   UNL     1      -7.498   7.130   9.568  0.00  0.00    +0.027 HD
ENDBRANCH  18  68
BRANCH   7  72
ATOM     72  C   UNL     1      -6.799  -2.187  14.202  0.00  0.00    -0.057 C 
ATOM     73  H   UNL     1      -6.692  -2.968  13.442  0.00  0.00    +0.023 HD
ATOM     74  H   UNL     1      -5.876  -2.152  14.788  0.00  0.00    +0.023 HD
ATOM     75  H   UNL     1      -7.608  -2.504  14.868  0.00  0.00    +0.023 HD
ENDBRANCH   7  72
BRANCH  25  76
ATOM     76  C   UNL     1      -9.274   6.186  16.365  0.00  0.00    +0.020 C 
ATOM     77  H   UNL     1      -9.590   5.338  16.990  0.00  0.00    +0.036 HD
BRANCH  76  78
ATOM     78  C   UNL     1      -7.930   5.713  15.774  0.00  0.00    -0.057 C 
ATOM     79  H   UNL     1      -8.042   5.477  14.711  0.00  0.00    +0.023 HD
ATOM     80  H   UNL     1      -7.559   4.804  16.254  0.00  0.00    +0.023 HD
ATOM     81  H   UNL     1      -7.162   6.487  15.848  0.00  0.00    +0.023 HD
ENDBRANCH  76  78
BRANCH  76  82
ATOM     82  C   UNL     1      -9.120   7.392  17.331  0.00  0.00    +0.067 C 
ATOM     83  H   UNL     1     -10.003   8.024  17.192  0.00  0.00    +0.060 HD
BRANCH  82  84
ATOM     84  C   UNL     1      -7.861   8.304  17.176  0.00  0.00    -0.017 C 
ATOM     85  H   UNL     1      -7.027   7.683  16.832  0.00  0.00    +0.032 HD
BRANCH  84  86
ATOM     86  C   UNL     1      -8.159   9.320  16.056  0.00  0.00    -0.060 C 
ATOM     87  H   UNL     1      -7.889  10.335  16.358  0.00  0.00    +0.023 HD
ATOM     88  H   UNL     1      -7.608   9.085  15.141  0.00  0.00    +0.023 HD
ATOM     89  H   UNL     1      -9.225   9.348  15.823  0.00  0.00    +0.023 HD
ENDBRANCH  84  86
BRANCH  84  90
ATOM     90  C   UNL     1      -7.437   9.024  18.483  0.00  0.00    -0.041 C 
ATOM     91  H   UNL     1      -7.794   8.449  19.342  0.00  0.00    +0.027 HD
ATOM     92  H   UNL     1      -7.944   9.996  18.528  0.00  0.00    +0.027 HD
BRANCH  90  93
ATOM     93  C   UNL     1      -5.946   9.299  18.688  0.00  0.00    +0.007 C 
ATOM     94  H   UNL     1      -5.392   8.507  18.161  0.00  0.00    +0.034 HD
ATOM     95  H   UNL     1      -5.611   9.226  19.727  0.00  0.00    +0.034 HD
BRANCH  93  96
ATOM     96  C   UNL     1      -5.454  10.604  18.087  0.00  0.00    +0.139 C 
ATOM     97  O   UNL     1      -4.821  10.586  17.029  0.00  0.00    -0.297 OA
BRANCH  96  98
ATOM     98  C   UNL     1      -5.739  11.899  18.844  0.00  0.00    +0.041 C 
ATOM     99  H   UNL     1      -6.339  11.647  19.724  0.00  0.00    +0.040 HD
BRANCH  98 100
ATOM    100  C   UNL     1      -6.580  12.811  17.952  0.00  0.00    -0.053 C 
ATOM    101  H   UNL     1      -7.449  13.210  18.481  0.00  0.00    +0.024 HD
ATOM    102  H   UNL     1      -6.932  12.265  17.070  0.00  0.00    +0.024 HD
ATOM    103  H   UNL     1      -5.992  13.666  17.605  0.00  0.00    +0.024 HD
ENDBRANCH  98 100
BRANCH  98 104
ATOM    104  C   UNL     1      -4.446  12.598  19.340  0.00  0.00    +0.071 C 
ATOM    105  H   UNL     1      -3.619  11.893  19.166  0.00  0.00    +0.061 HD
BRANCH 104 106
ATOM    106  C   UNL     1      -4.136  13.918  18.594  0.00  0.00    -0.006 C 
ATOM    107  H   UNL     1      -4.681  13.958  17.643  0.00  0.00    +0.033 HD
ATOM    108  H   UNL     1      -4.531  14.765  19.170  0.00  0.00    +0.033 HD
BRANCH 106 109
ATOM    109  C   UNL     1      -2.665  14.124  18.327  0.00  0.00    -0.067 C 
ATOM    110  C   UNL     1      -1.937  15.073  18.932  0.00  0.00    -0.005 C 
ATOM    111  H   UNL     1      -2.223  13.452  17.601  0.00  0.00    +0.059 HD
ATOM    112  H   UNL     1      -2.435  15.738  19.640  0.00  0.00    +0.078 HD
BRANCH 110 113
ATOM    113  N   UNL     1      -0.581  15.321  18.780  0.00  0.00    -0.284 N 
ATOM    114  C   UNL     1       0.308  14.528  18.060  0.00  0.00    +0.206 C 
ATOM    115  O   UNL     1       1.516  14.711  17.952  0.00  0.00    -0.279 OA
ATOM    116  H   UNL     1      -0.163  13.671  17.559  0.00  0.00    +0.126 HD
BRANCH 113 117
ATOM    117  C   UNL     1      -0.040  16.497  19.452  0.00  0.00    +0.007 C 
ATOM    118  H   UNL     1       0.084  16.268  20.517  0.00  0.00    +0.043 HD
ATOM    119  H   UNL     1       0.933  16.751  19.015  0.00  0.00    +0.043 HD
ATOM    120  H   UNL     1      -0.696  17.367  19.360  0.00  0.00    +0.043 HD
ENDBRANCH 113 117
ENDBRANCH 110 113
ENDBRANCH 106 109
ENDBRANCH 104 106
BRANCH 104 121
ATOM    121  O   UNL     1      -4.541  12.836  20.750  0.00  0.00    -0.379 OA
BRANCH 121 122
ATOM    122  C   UNL     1      -5.124  14.086  21.087  0.00  0.00    +0.037 C 
ATOM    123  H   UNL     1      -5.643  14.038  22.048  0.00  0.00    +0.052 HD
ATOM    124  H   UNL     1      -5.813  14.409  20.303  0.00  0.00    +0.052 HD
ATOM    125  H   UNL     1      -4.322  14.826  21.167  0.00  0.00    +0.052 HD
ENDBRANCH 121 122
ENDBRANCH 104 121
ENDBRANCH  98 104
ENDBRANCH  96  98
ENDBRANCH  93  96
ENDBRANCH  90  93
ENDBRANCH  84  90
ENDBRANCH  82  84
BRANCH  82 126
ATOM    126  O   UNL     1      -9.146   6.911  18.690  0.00  0.00    -0.379 OA
BRANCH 126 127
ATOM    127  C   UNL     1     -10.427   6.461  19.104  0.00  0.00    +0.037 C 
ATOM    128  H   UNL     1     -10.559   5.414  18.818  0.00  0.00    +0.052 HD
ATOM    129  H   UNL     1     -10.559   6.580  20.184  0.00  0.00    +0.052 HD
ATOM    130  H   UNL     1     -11.185   7.059  18.589  0.00  0.00    +0.052 HD
ENDBRANCH 126 127
ENDBRANCH  82 126
ENDBRANCH  76  82
ENDBRANCH  25  76
BRANCH  31 131
ATOM    131  O   UNL     1     -13.112   0.661  19.829  0.00  0.00    -0.379 OA
BRANCH 131 132
ATOM    132  C   UNL     1     -14.115   1.193  20.687  0.00  0.00    +0.037 C 
ATOM    133  H   UNL     1     -15.103   1.090  20.226  0.00  0.00    +0.052 HD
ATOM    134  H   UNL     1     -13.918   2.243  20.920  0.00  0.00    +0.052 HD
ATOM    135  H   UNL     1     -14.104   0.624  21.618  0.00  0.00    +0.052 HD
ENDBRANCH 131 132
ENDBRANCH  31 131
BRANCH  29 136
ATOM    136  O   UNL     1     -14.266   5.041  18.326  0.00  0.00    -0.376 OA
BRANCH 136 137
ATOM    137  C   UNL     1     -15.665   5.221  18.140  0.00  0.00    +0.037 C 
ATOM    138  H   UNL     1     -15.884   6.231  17.780  0.00  0.00    +0.052 HD
ATOM    139  H   UNL     1     -16.006   4.498  17.395  0.00  0.00    +0.052 HD
ATOM    140  H   UNL     1     -16.204   5.027  19.075  0.00  0.00    +0.052 HD
ENDBRANCH 136 137
ENDBRANCH  29 136
BRANCH  16 141
ATOM    141  O   UNL     1      -6.081   1.747   7.890  0.00  0.00    -0.379 OA
BRANCH 141 142
ATOM    142  C   UNL     1      -7.064   1.118   7.078  0.00  0.00    +0.037 C 
ATOM    143  H   UNL     1      -7.905   1.806   6.963  0.00  0.00    +0.052 HD
ATOM    144  H   UNL     1      -6.647   0.906   6.088  0.00  0.00    +0.052 HD
ATOM    145  H   UNL     1      -7.428   0.192   7.536  0.00  0.00    +0.052 HD
ENDBRANCH 141 142
ENDBRANCH  16 141
BRANCH   6 146
ATOM    146  O   UNL     1      -8.263   1.294  14.043  0.00  0.00    -0.379 OA
BRANCH 146 147
ATOM    147  C   UNL     1      -7.468   2.149  14.855  0.00  0.00    +0.037 C 
ATOM    148  H   UNL     1      -7.929   3.139  14.856  0.00  0.00    +0.052 HD
ATOM    149  H   UNL     1      -7.441   1.778  15.885  0.00  0.00    +0.052 HD
ATOM    150  H   UNL     1      -6.453   2.243  14.460  0.00  0.00    +0.052 HD
ENDBRANCH 146 147
ENDBRANCH   6 146
BRANCH   4 151
ATOM    151  O   UNL     1     -11.541  -1.601  15.304  0.00  0.00    -0.376 OA
BRANCH 151 152
ATOM    152  C   UNL     1     -12.251  -0.897  14.293  0.00  0.00    +0.037 C 
ATOM    153  H   UNL     1     -12.488   0.102  14.673  0.00  0.00    +0.052 HD
ATOM    154  H   UNL     1     -13.189  -1.406  14.046  0.00  0.00    +0.052 HD
ATOM    155  H   UNL     1     -11.633  -0.788  13.397  0.00  0.00    +0.052 HD
ENDBRANCH 151 152
ENDBRANCH   4 151
TORSDOF 33
ENDMDL
MODEL 4
REMARK VINA RESULT:      -5.2     11.634     16.844
REMARK  Name = Reidispongiolide A_conf1
REMARK  33 active torsions:
REMARK  status: ('A' for Active; 'I' for Inactive)
REMARK    1  A    between atoms: C_1  and  C_2
REMARK    2  A    between atoms: C_5  and  O_67
REMARK    3  A    between atoms: C_7  and  O_65
REMARK    4  A    between atoms: C_8  and  C_64
REMARK    5  A    between atoms: C_17  and  O_62
REMARK    6  A    between atoms: C_19  and  C_61
REMARK    7  A    between atoms: C_26  and  C_38
REMARK    8  A    between atoms: C_27  and  C_37
REMARK    9  A    between atoms: C_30  and  O_35
REMARK   10  A    between atoms: C_32  and  O_33
REMARK   11  A    between atoms: O_33  and  C_34
REMARK   12  A    between atoms: O_35  and  C_36
REMARK   13  A    between atoms: C_38  and  C_39
REMARK   14  A    between atoms: C_38  and  C_40
REMARK   15  A    between atoms: C_40  and  C_41
REMARK   16  A    between atoms: C_40  and  O_59
REMARK   17  A    between atoms: C_41  and  C_42
REMARK   18  A    between atoms: C_41  and  C_43
REMARK   19  A    between atoms: C_43  and  C_44
REMARK   20  A    between atoms: C_44  and  C_45
REMARK   21  A    between atoms: C_45  and  C_47
REMARK   22  A    between atoms: C_47  and  C_48
REMARK   23  A    between atoms: C_47  and  C_49
REMARK   24  A    between atoms: C_49  and  C_50
REMARK   25  A    between atoms: C_49  and  O_57
REMARK   26  A    between atoms: C_50  and  C_51
REMARK   27  A    between atoms: C_52  and  N_53
REMARK   28  A    between atoms: N_53  and  C_54
REMARK   29  A    between atoms: O_57  and  C_58
REMARK   30  A    between atoms: O_59  and  C_60
REMARK   31  A    between atoms: O_62  and  C_63
REMARK   32  A    between atoms: O_65  and  C_66
REMARK   33  A    between atoms: O_67  and  C_68
REMARK                            x       y       z     vdW  Elec       q    Type
REMARK                         _______ _______ _______ _____ _____    ______ ____
ROOT
ATOM      1  C   UNL     1       8.843  18.746  26.164  0.00  0.00    +0.001 C 
ATOM      2  C   UNL     1       8.227  18.473  27.525  0.00  0.00    -0.080 C 
ATOM      3  C   UNL     1       7.050  18.973  27.936  0.00  0.00    -0.059 C 
ATOM      4  C   UNL     1       6.470  18.744  29.305  0.00  0.00    +0.079 C 
ATOM      5  C   UNL     1       4.947  18.954  29.382  0.00  0.00    +0.004 C 
ATOM      6  C   UNL     1       4.114  17.940  28.572  0.00  0.00    +0.067 C 
ATOM      7  C   UNL     1       2.948  17.301  29.395  0.00  0.00    +0.020 C 
ATOM      8  C   UNL     1       2.001  18.317  30.110  0.00  0.00    +0.112 C 
ATOM      9  C   UNL     1       1.068  19.143  29.212  0.00  0.00    +0.006 C 
ATOM     10  C   UNL     1      -0.167  18.376  28.818  0.00  0.00    -0.057 C 
ATOM     11  C   UNL     1      -0.561  17.324  29.551  0.00  0.00    +0.022 C 
ATOM     12  C   UNL     1       0.114  16.936  30.799  0.00  0.00    +0.332 C 
ATOM     13  O   UNL     1      -0.345  16.057  31.515  0.00  0.00    -0.246 OA
ATOM     14  O   UNL     1       1.227  17.633  31.129  0.00  0.00    -0.458 OA
ATOM     15  C   UNL     1      -0.947  18.841  27.604  0.00  0.00    -0.004 C 
ATOM     16  C   UNL     1      -1.557  20.257  27.768  0.00  0.00    +0.066 C 
ATOM     17  C   UNL     1      -2.140  20.792  26.432  0.00  0.00    -0.005 C 
ATOM     18  C   UNL     1      -1.188  21.089  25.275  0.00  0.00    -0.070 C 
ATOM     19  C   UNL     1       0.144  21.160  25.441  0.00  0.00    -0.062 C 
ATOM     20  C   UNL     1       1.180  21.285  24.452  0.00  0.00    -0.055 C 
ATOM     21  C   UNL     1       1.405  22.324  23.632  0.00  0.00    +0.023 C 
ATOM     22  C   UNL     1       2.662  22.424  22.849  0.00  0.00    +0.332 C 
ATOM     23  O   UNL     1       3.048  23.458  22.332  0.00  0.00    -0.246 OA
ATOM     24  O   UNL     1       3.336  21.254  22.897  0.00  0.00    -0.457 OA
ATOM     25  C   UNL     1       4.766  21.239  22.621  0.00  0.00    +0.114 C 
ATOM     26  C   UNL     1       5.474  21.818  23.900  0.00  0.00    +0.012 C 
ATOM     27  C   UNL     1       6.973  22.009  23.779  0.00  0.00    -0.079 C 
ATOM     28  C   UNL     1       7.888  21.721  24.725  0.00  0.00    -0.059 C 
ATOM     29  C   UNL     1       9.387  21.883  24.656  0.00  0.00    +0.079 C 
ATOM     30  C   UNL     1      10.145  20.554  24.876  0.00  0.00    +0.004 C 
ATOM     31  C   UNL     1       9.881  19.909  26.258  0.00  0.00    +0.067 C 
ATOM     32  H   UNL     1       8.037  19.043  25.485  0.00  0.00    +0.037 HD
ATOM     33  H   UNL     1       8.822  17.869  28.210  0.00  0.00    +0.057 HD
ATOM     34  H   UNL     1       6.478  19.621  27.279  0.00  0.00    +0.059 HD
ATOM     35  H   UNL     1       6.702  17.725  29.651  0.00  0.00    +0.064 HD
ATOM     36  H   UNL     1       4.704  19.981  29.078  0.00  0.00    +0.032 HD
ATOM     37  H   UNL     1       4.700  18.905  30.448  0.00  0.00    +0.032 HD
ATOM     38  H   UNL     1       4.774  17.132  28.227  0.00  0.00    +0.060 HD
ATOM     39  H   UNL     1       2.326  16.705  28.715  0.00  0.00    +0.036 HD
ATOM     40  H   UNL     1       2.610  19.033  30.671  0.00  0.00    +0.074 HD
ATOM     41  H   UNL     1       1.592  19.514  28.330  0.00  0.00    +0.035 HD
ATOM     42  H   UNL     1       0.735  20.028  29.773  0.00  0.00    +0.035 HD
ATOM     43  H   UNL     1      -1.451  16.752  29.313  0.00  0.00    +0.069 HD
ATOM     44  H   UNL     1      -0.271  18.793  26.744  0.00  0.00    +0.034 HD
ATOM     45  H   UNL     1      -1.759  18.131  27.398  0.00  0.00    +0.034 HD
ATOM     46  H   UNL     1      -0.802  20.953  28.152  0.00  0.00    +0.060 HD
ATOM     47  H   UNL     1      -2.889  20.061  26.091  0.00  0.00    +0.034 HD
ATOM     48  H   UNL     1      -2.709  21.710  26.634  0.00  0.00    +0.034 HD
ATOM     49  H   UNL     1       0.575  21.011  26.432  0.00  0.00    +0.062 HD
ATOM     50  H   UNL     1       1.890  20.461  24.501  0.00  0.00    +0.062 HD
ATOM     51  H   UNL     1       0.762  23.195  23.603  0.00  0.00    +0.069 HD
ATOM     52  H   UNL     1       4.962  21.887  21.759  0.00  0.00    +0.074 HD
ATOM     53  H   UNL     1       5.074  22.836  24.029  0.00  0.00    +0.038 HD
ATOM     54  H   UNL     1       7.320  22.451  22.847  0.00  0.00    +0.057 HD
ATOM     55  H   UNL     1       7.544  21.353  25.688  0.00  0.00    +0.059 HD
ATOM     56  H   UNL     1       9.668  22.595  25.446  0.00  0.00    +0.064 HD
ATOM     57  H   UNL     1       9.890  19.858  24.067  0.00  0.00    +0.032 HD
ATOM     58  H   UNL     1      11.217  20.737  24.739  0.00  0.00    +0.032 HD
ATOM     59  H   UNL     1       9.507  20.671  26.958  0.00  0.00    +0.060 HD
ENDROOT
BRANCH   1  60
ATOM     60  C   UNL     1       9.447  17.444  25.621  0.00  0.00    -0.057 C 
ATOM     61  H   UNL     1       8.762  16.927  24.939  0.00  0.00    +0.024 HD
ATOM     62  H   UNL     1      10.367  17.648  25.067  0.00  0.00    +0.024 HD
ATOM     63  H   UNL     1       9.694  16.751  26.431  0.00  0.00    +0.024 HD
ENDBRANCH   1  60
BRANCH  26  64
ATOM     64  C   UNL     1       5.047  21.062  25.172  0.00  0.00    -0.056 C 
ATOM     65  H   UNL     1       5.689  20.203  25.377  0.00  0.00    +0.024 HD
ATOM     66  H   UNL     1       5.069  21.712  26.054  0.00  0.00    +0.024 HD
ATOM     67  H   UNL     1       4.036  20.652  25.069  0.00  0.00    +0.024 HD
ENDBRANCH  26  64
BRANCH  18  68
ATOM     68  C   UNL     1      -1.888  21.246  23.950  0.00  0.00    -0.043 C 
ATOM     69  H   UNL     1      -2.586  22.088  23.995  0.00  0.00    +0.027 HD
ATOM     70  H   UNL     1      -2.461  20.341  23.715  0.00  0.00    +0.027 HD
ATOM     71  H   UNL     1      -1.207  21.427  23.116  0.00  0.00    +0.027 HD
ENDBRANCH  18  68
BRANCH   7  72
ATOM     72  C   UNL     1       3.554  16.299  30.396  0.00  0.00    -0.057 C 
ATOM     73  H   UNL     1       4.647  16.368  30.395  0.00  0.00    +0.023 HD
ATOM     74  H   UNL     1       3.202  16.481  31.416  0.00  0.00    +0.023 HD
ATOM     75  H   UNL     1       3.304  15.266  30.132  0.00  0.00    +0.023 HD
ENDBRANCH   7  72
BRANCH  25  76
ATOM     76  C   UNL     1       5.081  19.760  22.235  0.00  0.00    +0.020 C 
ATOM     77  H   UNL     1       5.927  19.437  22.859  0.00  0.00    +0.036 HD
BRANCH  76  78
ATOM     78  C   UNL     1       3.932  18.834  22.684  0.00  0.00    -0.057 C 
ATOM     79  H   UNL     1       3.866  18.810  23.777  0.00  0.00    +0.023 HD
ATOM     80  H   UNL     1       4.076  17.801  22.361  0.00  0.00    +0.023 HD
ATOM     81  H   UNL     1       2.964  19.185  22.317  0.00  0.00    +0.023 HD
ENDBRANCH  76  78
BRANCH  76  82
ATOM     82  C   UNL     1       5.518  19.514  20.765  0.00  0.00    +0.067 C 
ATOM     83  H   UNL     1       5.740  20.495  20.333  0.00  0.00    +0.060 HD
BRANCH  82  84
ATOM     84  C   UNL     1       4.512  18.796  19.809  0.00  0.00    -0.017 C 
ATOM     85  H   UNL     1       3.542  18.735  20.313  0.00  0.00    +0.032 HD
BRANCH  84  86
ATOM     86  C   UNL     1       4.324  19.695  18.572  0.00  0.00    -0.060 C 
ATOM     87  H   UNL     1       4.636  19.184  17.657  0.00  0.00    +0.023 HD
ATOM     88  H   UNL     1       3.281  19.997  18.448  0.00  0.00    +0.023 HD
ATOM     89  H   UNL     1       4.941  20.594  18.640  0.00  0.00    +0.023 HD
ENDBRANCH  84  86
BRANCH  84  90
ATOM     90  C   UNL     1       4.946  17.364  19.396  0.00  0.00    -0.041 C 
ATOM     91  H   UNL     1       6.035  17.331  19.304  0.00  0.00    +0.027 HD
ATOM     92  H   UNL     1       4.543  17.150  18.399  0.00  0.00    +0.027 HD
BRANCH  90  93
ATOM     93  C   UNL     1       4.514  16.206  20.299  0.00  0.00    +0.007 C 
ATOM     94  H   UNL     1       3.626  16.541  20.856  0.00  0.00    +0.034 HD
ATOM     95  H   UNL     1       5.242  15.940  21.071  0.00  0.00    +0.034 HD
BRANCH  93  96
ATOM     96  C   UNL     1       4.079  14.954  19.558  0.00  0.00    +0.139 C 
ATOM     97  O   UNL     1       4.042  14.960  18.324  0.00  0.00    -0.297 OA
BRANCH  96  98
ATOM     98  C   UNL     1       3.667  13.735  20.380  0.00  0.00    +0.041 C 
ATOM     99  H   UNL     1       4.447  13.557  21.127  0.00  0.00    +0.040 HD
BRANCH  98 100
ATOM    100  C   UNL     1       3.618  12.519  19.456  0.00  0.00    -0.053 C 
ATOM    101  H   UNL     1       2.991  11.723  19.864  0.00  0.00    +0.024 HD
ATOM    102  H   UNL     1       4.625  12.118  19.298  0.00  0.00    +0.024 HD
ATOM    103  H   UNL     1       3.206  12.787  18.480  0.00  0.00    +0.024 HD
ENDBRANCH  98 100
BRANCH  98 104
ATOM    104  C   UNL     1       2.331  13.950  21.137  0.00  0.00    +0.071 C 
ATOM    105  H   UNL     1       1.651  13.148  20.812  0.00  0.00    +0.061 HD
BRANCH 104 106
ATOM    106  C   UNL     1       2.479  13.879  22.676  0.00  0.00    -0.006 C 
ATOM    107  H   UNL     1       1.852  14.640  23.157  0.00  0.00    +0.033 HD
ATOM    108  H   UNL     1       2.077  12.924  23.039  0.00  0.00    +0.033 HD
BRANCH 106 109
ATOM    109  C   UNL     1       3.903  14.046  23.148  0.00  0.00    -0.067 C 
ATOM    110  C   UNL     1       4.333  15.133  23.806  0.00  0.00    -0.005 C 
ATOM    111  H   UNL     1       4.572  13.227  22.917  0.00  0.00    +0.059 HD
ATOM    112  H   UNL     1       3.623  15.940  23.996  0.00  0.00    +0.078 HD
BRANCH 110 113
ATOM    113  N   UNL     1       5.604  15.367  24.307  0.00  0.00    -0.284 N 
ATOM    114  C   UNL     1       6.152  14.761  25.434  0.00  0.00    +0.206 C 
ATOM    115  O   UNL     1       7.257  14.989  25.913  0.00  0.00    -0.279 OA
ATOM    116  H   UNL     1       5.494  14.016  25.905  0.00  0.00    +0.126 HD
BRANCH 113 117
ATOM    117  C   UNL     1       6.426  16.347  23.606  0.00  0.00    +0.007 C 
ATOM    118  H   UNL     1       7.335  15.851  23.245  0.00  0.00    +0.043 HD
ATOM    119  H   UNL     1       5.866  16.751  22.754  0.00  0.00    +0.043 HD
ATOM    120  H   UNL     1       6.720  17.181  24.251  0.00  0.00    +0.043 HD
ENDBRANCH 113 117
ENDBRANCH 110 113
ENDBRANCH 106 109
ENDBRANCH 104 106
BRANCH 104 121
ATOM    121  O   UNL     1       1.759  15.205  20.752  0.00  0.00    -0.379 OA
BRANCH 121 122
ATOM    122  C   UNL     1       0.505  15.094  20.095  0.00  0.00    +0.037 C 
ATOM    123  H   UNL     1      -0.317  15.386  20.753  0.00  0.00    +0.052 HD
ATOM    124  H   UNL     1       0.354  14.074  19.733  0.00  0.00    +0.052 HD
ATOM    125  H   UNL     1       0.511  15.767  19.232  0.00  0.00    +0.052 HD
ENDBRANCH 121 122
ENDBRANCH 104 121
ENDBRANCH  98 104
ENDBRANCH  96  98
ENDBRANCH  93  96
ENDBRANCH  90  93
ENDBRANCH  84  90
ENDBRANCH  82  84
BRANCH  82 126
ATOM    126  O   UNL     1       6.744  18.755  20.761  0.00  0.00    -0.379 OA
BRANCH 126 127
ATOM    127  C   UNL     1       7.876  19.511  21.160  0.00  0.00    +0.037 C 
ATOM    128  H   UNL     1       8.495  19.735  20.287  0.00  0.00    +0.052 HD
ATOM    129  H   UNL     1       7.578  20.436  21.663  0.00  0.00    +0.052 HD
ATOM    130  H   UNL     1       8.466  18.906  21.856  0.00  0.00    +0.052 HD
ENDBRANCH 126 127
ENDBRANCH  82 126
ENDBRANCH  76  82
ENDBRANCH  25  76
BRANCH  31 131
ATOM    131  O   UNL     1      11.113  19.380  26.789  0.00  0.00    -0.379 OA
BRANCH 131 132
ATOM    132  C   UNL     1      11.622  20.138  27.880  0.00  0.00    +0.037 C 
ATOM    133  H   UNL     1      12.215  20.982  27.511  0.00  0.00    +0.052 HD
ATOM    134  H   UNL     1      12.227  19.517  28.544  0.00  0.00    +0.052 HD
ATOM    135  H   UNL     1      10.775  20.530  28.447  0.00  0.00    +0.052 HD
ENDBRANCH 131 132
ENDBRANCH  31 131
BRANCH  29 136
ATOM    136  O   UNL     1       9.739  22.420  23.376  0.00  0.00    -0.376 OA
BRANCH 136 137
ATOM    137  C   UNL     1      10.304  23.723  23.468  0.00  0.00    +0.037 C 
ATOM    138  H   UNL     1      10.949  23.931  22.610  0.00  0.00    +0.052 HD
ATOM    139  H   UNL     1       9.487  24.449  23.480  0.00  0.00    +0.052 HD
ATOM    140  H   UNL     1      10.869  23.831  24.401  0.00  0.00    +0.052 HD
ENDBRANCH 136 137
ENDBRANCH  29 136
BRANCH  16 141
ATOM    141  O   UNL     1      -2.629  20.148  28.726  0.00  0.00    -0.379 OA
BRANCH 141 142
ATOM    142  C   UNL     1      -3.733  19.395  28.241  0.00  0.00    +0.037 C 
ATOM    143  H   UNL     1      -4.643  19.781  28.708  0.00  0.00    +0.052 HD
ATOM    144  H   UNL     1      -3.818  19.518  27.157  0.00  0.00    +0.052 HD
ATOM    145  H   UNL     1      -3.635  18.334  28.490  0.00  0.00    +0.052 HD
ENDBRANCH 141 142
ENDBRANCH  16 141
BRANCH   6 146
ATOM    146  O   UNL     1       3.600  18.627  27.419  0.00  0.00    -0.379 OA
BRANCH 146 147
ATOM    147  C   UNL     1       3.576  17.821  26.246  0.00  0.00    +0.037 C 
ATOM    148  H   UNL     1       3.339  16.798  26.544  0.00  0.00    +0.052 HD
ATOM    149  H   UNL     1       2.797  18.172  25.561  0.00  0.00    +0.052 HD
ATOM    150  H   UNL     1       4.547  17.818  25.745  0.00  0.00    +0.052 HD
ENDBRANCH 146 147
ENDBRANCH   6 146
BRANCH   4 151
ATOM    151  O   UNL     1       7.052  19.729  30.173  0.00  0.00    -0.376 OA
BRANCH 151 152
ATOM    152  C   UNL     1       7.661  19.155  31.323  0.00  0.00    +0.037 C 
ATOM    153  H   UNL     1       8.637  19.632  31.466  0.00  0.00    +0.052 HD
ATOM    154  H   UNL     1       7.817  18.080  31.189  0.00  0.00    +0.052 HD
ATOM    155  H   UNL     1       7.051  19.342  32.211  0.00  0.00    +0.052 HD
ENDBRANCH 151 152
ENDBRANCH   4 151
TORSDOF 33
ENDMDL
MODEL 5
REMARK VINA RESULT:      -5.2      3.179      7.843
REMARK  Name = Reidispongiolide A_conf1
REMARK  33 active torsions:
REMARK  status: ('A' for Active; 'I' for Inactive)
REMARK    1  A    between atoms: C_1  and  C_2
REMARK    2  A    between atoms: C_5  and  O_67
REMARK    3  A    between atoms: C_7  and  O_65
REMARK    4  A    between atoms: C_8  and  C_64
REMARK    5  A    between atoms: C_17  and  O_62
REMARK    6  A    between atoms: C_19  and  C_61
REMARK    7  A    between atoms: C_26  and  C_38
REMARK    8  A    between atoms: C_27  and  C_37
REMARK    9  A    between atoms: C_30  and  O_35
REMARK   10  A    between atoms: C_32  and  O_33
REMARK   11  A    between atoms: O_33  and  C_34
REMARK   12  A    between atoms: O_35  and  C_36
REMARK   13  A    between atoms: C_38  and  C_39
REMARK   14  A    between atoms: C_38  and  C_40
REMARK   15  A    between atoms: C_40  and  C_41
REMARK   16  A    between atoms: C_40  and  O_59
REMARK   17  A    between atoms: C_41  and  C_42
REMARK   18  A    between atoms: C_41  and  C_43
REMARK   19  A    between atoms: C_43  and  C_44
REMARK   20  A    between atoms: C_44  and  C_45
REMARK   21  A    between atoms: C_45  and  C_47
REMARK   22  A    between atoms: C_47  and  C_48
REMARK   23  A    between atoms: C_47  and  C_49
REMARK   24  A    between atoms: C_49  and  C_50
REMARK   25  A    between atoms: C_49  and  O_57
REMARK   26  A    between atoms: C_50  and  C_51
REMARK   27  A    between atoms: C_52  and  N_53
REMARK   28  A    between atoms: N_53  and  C_54
REMARK   29  A    between atoms: O_57  and  C_58
REMARK   30  A    between atoms: O_59  and  C_60
REMARK   31  A    between atoms: O_62  and  C_63
REMARK   32  A    between atoms: O_65  and  C_66
REMARK   33  A    between atoms: O_67  and  C_68
REMARK                            x       y       z     vdW  Elec       q    Type
REMARK                         _______ _______ _______ _____ _____    ______ ____
ROOT
ATOM      1  C   UNL     1      -9.109  10.338  17.975  0.00  0.00    +0.001 C 
ATOM      2  C   UNL     1     -10.037   9.991  19.126  0.00  0.00    -0.080 C 
ATOM      3  C   UNL     1      -9.854  10.398  20.393  0.00  0.00    -0.059 C 
ATOM      4  C   UNL     1     -10.746  10.008  21.540  0.00  0.00    +0.079 C 
ATOM      5  C   UNL     1     -10.670  10.962  22.745  0.00  0.00    +0.004 C 
ATOM      6  C   UNL     1     -11.199  12.386  22.475  0.00  0.00    +0.067 C 
ATOM      7  C   UNL     1     -12.210  12.885  23.559  0.00  0.00    +0.020 C 
ATOM      8  C   UNL     1     -11.714  12.773  25.036  0.00  0.00    +0.112 C 
ATOM      9  C   UNL     1     -10.600  13.738  25.466  0.00  0.00    +0.006 C 
ATOM     10  C   UNL     1     -11.133  15.100  25.822  0.00  0.00    -0.057 C 
ATOM     11  C   UNL     1     -12.425  15.246  26.151  0.00  0.00    +0.022 C 
ATOM     12  C   UNL     1     -13.340  14.100  26.275  0.00  0.00    +0.332 C 
ATOM     13  O   UNL     1     -14.477  14.247  26.704  0.00  0.00    -0.246 OA
ATOM     14  O   UNL     1     -12.841  12.886  25.941  0.00  0.00    -0.458 OA
ATOM     15  C   UNL     1     -10.173  16.273  25.821  0.00  0.00    -0.004 C 
ATOM     16  C   UNL     1      -9.045  16.148  26.877  0.00  0.00    +0.066 C 
ATOM     17  C   UNL     1      -7.955  17.238  26.689  0.00  0.00    -0.005 C 
ATOM     18  C   UNL     1      -7.090  17.211  25.431  0.00  0.00    -0.070 C 
ATOM     19  C   UNL     1      -7.047  16.146  24.611  0.00  0.00    -0.062 C 
ATOM     20  C   UNL     1      -6.411  16.007  23.330  0.00  0.00    -0.055 C 
ATOM     21  C   UNL     1      -5.095  16.041  23.064  0.00  0.00    +0.023 C 
ATOM     22  C   UNL     1      -4.570  15.624  21.740  0.00  0.00    +0.332 C 
ATOM     23  O   UNL     1      -3.398  15.352  21.540  0.00  0.00    -0.246 OA
ATOM     24  O   UNL     1      -5.584  15.491  20.856  0.00  0.00    -0.457 OA
ATOM     25  C   UNL     1      -5.397  14.666  19.670  0.00  0.00    +0.114 C 
ATOM     26  C   UNL     1      -5.481  13.171  20.149  0.00  0.00    +0.012 C 
ATOM     27  C   UNL     1      -5.187  12.132  19.084  0.00  0.00    -0.079 C 
ATOM     28  C   UNL     1      -5.857  10.980  18.894  0.00  0.00    -0.059 C 
ATOM     29  C   UNL     1      -5.614   9.918  17.849  0.00  0.00    +0.079 C 
ATOM     30  C   UNL     1      -6.846   9.667  16.950  0.00  0.00    +0.004 C 
ATOM     31  C   UNL     1      -8.093   9.179  17.726  0.00  0.00    +0.067 C 
ATOM     32  H   UNL     1      -8.557  11.242  18.250  0.00  0.00    +0.037 HD
ATOM     33  H   UNL     1     -10.870   9.329  18.891  0.00  0.00    +0.057 HD
ATOM     34  H   UNL     1      -8.996  11.013  20.646  0.00  0.00    +0.059 HD
ATOM     35  H   UNL     1     -11.793   9.949  21.204  0.00  0.00    +0.064 HD
ATOM     36  H   UNL     1      -9.637  11.001  23.116  0.00  0.00    +0.032 HD
ATOM     37  H   UNL     1     -11.242  10.473  23.540  0.00  0.00    +0.032 HD
ATOM     38  H   UNL     1     -11.706  12.398  21.500  0.00  0.00    +0.060 HD
ATOM     39  H   UNL     1     -12.427  13.944  23.372  0.00  0.00    +0.036 HD
ATOM     40  H   UNL     1     -11.334  11.760  25.205  0.00  0.00    +0.074 HD
ATOM     41  H   UNL     1      -9.823  13.813  24.704  0.00  0.00    +0.035 HD
ATOM     42  H   UNL     1     -10.115  13.334  26.367  0.00  0.00    +0.035 HD
ATOM     43  H   UNL     1     -12.850  16.204  26.428  0.00  0.00    +0.069 HD
ATOM     44  H   UNL     1      -9.765  16.361  24.808  0.00  0.00    +0.034 HD
ATOM     45  H   UNL     1     -10.729  17.201  26.010  0.00  0.00    +0.034 HD
ATOM     46  H   UNL     1      -8.590  15.152  26.829  0.00  0.00    +0.060 HD
ATOM     47  H   UNL     1      -8.461  18.214  26.746  0.00  0.00    +0.034 HD
ATOM     48  H   UNL     1      -7.278  17.218  27.554  0.00  0.00    +0.034 HD
ATOM     49  H   UNL     1      -7.640  15.259  24.843  0.00  0.00    +0.062 HD
ATOM     50  H   UNL     1      -7.121  15.738  22.549  0.00  0.00    +0.062 HD
ATOM     51  H   UNL     1      -4.350  16.234  23.826  0.00  0.00    +0.069 HD
ATOM     52  H   UNL     1      -4.403  14.871  19.256  0.00  0.00    +0.074 HD
ATOM     53  H   UNL     1      -4.674  13.046  20.888  0.00  0.00    +0.038 HD
ATOM     54  H   UNL     1      -4.332  12.342  18.443  0.00  0.00    +0.057 HD
ATOM     55  H   UNL     1      -6.662  10.726  19.579  0.00  0.00    +0.059 HD
ATOM     56  H   UNL     1      -5.364   8.991  18.386  0.00  0.00    +0.064 HD
ATOM     57  H   UNL     1      -7.072  10.582  16.388  0.00  0.00    +0.032 HD
ATOM     58  H   UNL     1      -6.570   8.942  16.175  0.00  0.00    +0.032 HD
ATOM     59  H   UNL     1      -7.785   8.754  18.693  0.00  0.00    +0.060 HD
ENDROOT
BRANCH   1  60
ATOM     60  C   UNL     1      -9.954  10.672  16.739  0.00  0.00    -0.057 C 
ATOM     61  H   UNL     1      -9.998  11.751  16.552  0.00  0.00    +0.024 HD
ATOM     62  H   UNL     1      -9.531  10.203  15.845  0.00  0.00    +0.024 HD
ATOM     63  H   UNL     1     -10.981  10.312  16.848  0.00  0.00    +0.024 HD
ENDBRANCH   1  60
BRANCH  26  64
ATOM     64  C   UNL     1      -6.779  12.901  20.933  0.00  0.00    -0.056 C 
ATOM     65  H   UNL     1      -7.561  12.472  20.304  0.00  0.00    +0.024 HD
ATOM     66  H   UNL     1      -6.610  12.214  21.770  0.00  0.00    +0.024 HD
ATOM     67  H   UNL     1      -7.203  13.831  21.330  0.00  0.00    +0.024 HD
ENDBRANCH  26  64
BRANCH  18  68
ATOM     68  C   UNL     1      -6.341  18.496  25.192  0.00  0.00    -0.043 C 
ATOM     69  H   UNL     1      -6.144  18.618  24.121  0.00  0.00    +0.027 HD
ATOM     70  H   UNL     1      -5.377  18.475  25.715  0.00  0.00    +0.027 HD
ATOM     71  H   UNL     1      -6.878  19.384  25.531  0.00  0.00    +0.027 HD
ENDBRANCH  18  68
BRANCH   7  72
ATOM     72  C   UNL     1     -13.543  12.140  23.356  0.00  0.00    -0.057 C 
ATOM     73  H   UNL     1     -13.538  11.187  23.895  0.00  0.00    +0.023 HD
ATOM     74  H   UNL     1     -14.394  12.729  23.712  0.00  0.00    +0.023 HD
ATOM     75  H   UNL     1     -13.715  11.904  22.301  0.00  0.00    +0.023 HD
ENDBRANCH   7  72
BRANCH  25  76
ATOM     76  C   UNL     1      -6.485  15.160  18.668  0.00  0.00    +0.020 C 
ATOM     77  H   UNL     1      -7.024  14.270  18.312  0.00  0.00    +0.036 HD
BRANCH  76  78
ATOM     78  C   UNL     1      -7.573  15.961  19.412  0.00  0.00    -0.057 C 
ATOM     79  H   UNL     1      -8.570  15.603  19.132  0.00  0.00    +0.023 HD
ATOM     80  H   UNL     1      -7.549  17.026  19.168  0.00  0.00    +0.023 HD
ATOM     81  H   UNL     1      -7.488  15.847  20.495  0.00  0.00    +0.023 HD
ENDBRANCH  76  78
BRANCH  76  82
ATOM     82  C   UNL     1      -5.966  15.881  17.394  0.00  0.00    +0.067 C 
ATOM     83  H   UNL     1      -6.773  15.837  16.655  0.00  0.00    +0.060 HD
BRANCH  82  84
ATOM     84  C   UNL     1      -4.674  15.330  16.711  0.00  0.00    -0.017 C 
ATOM     85  H   UNL     1      -4.645  14.245  16.854  0.00  0.00    +0.032 HD
BRANCH  84  86
ATOM     86  C   UNL     1      -4.804  15.584  15.197  0.00  0.00    -0.060 C 
ATOM     87  H   UNL     1      -4.948  14.650  14.648  0.00  0.00    +0.023 HD
ATOM     88  H   UNL     1      -5.648  16.240  14.969  0.00  0.00    +0.023 HD
ATOM     89  H   UNL     1      -3.894  16.034  14.793  0.00  0.00    +0.023 HD
ENDBRANCH  84  86
BRANCH  84  90
ATOM     90  C   UNL     1      -3.359  15.937  17.267  0.00  0.00    -0.041 C 
ATOM     91  H   UNL     1      -3.439  16.035  18.354  0.00  0.00    +0.027 HD
ATOM     92  H   UNL     1      -3.247  16.954  16.872  0.00  0.00    +0.027 HD
BRANCH  90  93
ATOM     93  C   UNL     1      -2.053  15.203  16.956  0.00  0.00    +0.007 C 
ATOM     94  H   UNL     1      -1.363  15.938  16.513  0.00  0.00    +0.034 HD
ATOM     95  H   UNL     1      -2.145  14.419  16.198  0.00  0.00    +0.034 HD
BRANCH  93  96
ATOM     96  C   UNL     1      -1.331  14.651  18.172  0.00  0.00    +0.139 C 
ATOM     97  O   UNL     1      -1.979  14.101  19.066  0.00  0.00    -0.297 OA
BRANCH  96  98
ATOM     98  C   UNL     1       0.183  14.833  18.257  0.00  0.00    +0.041 C 
ATOM     99  H   UNL     1       0.490  15.476  17.425  0.00  0.00    +0.040 HD
BRANCH  98 100
ATOM    100  C   UNL     1       0.849  13.472  18.065  0.00  0.00    -0.053 C 
ATOM    101  H   UNL     1       1.666  13.516  17.341  0.00  0.00    +0.024 HD
ATOM    102  H   UNL     1       0.118  12.734  17.717  0.00  0.00    +0.024 HD
ATOM    103  H   UNL     1       1.271  13.108  19.006  0.00  0.00    +0.024 HD
ENDBRANCH  98 100
BRANCH  98 104
ATOM    104  C   UNL     1       0.629  15.522  19.573  0.00  0.00    +0.071 C 
ATOM    105  H   UNL     1      -0.288  15.780  20.122  0.00  0.00    +0.061 HD
BRANCH 104 106
ATOM    106  C   UNL     1       1.507  14.618  20.472  0.00  0.00    -0.006 C 
ATOM    107  H   UNL     1       1.050  14.504  21.463  0.00  0.00    +0.033 HD
ATOM    108  H   UNL     1       1.525  13.600  20.061  0.00  0.00    +0.033 HD
BRANCH 106 109
ATOM    109  C   UNL     1       2.917  15.128  20.638  0.00  0.00    -0.067 C 
ATOM    110  C   UNL     1       3.468  15.383  21.833  0.00  0.00    -0.005 C 
ATOM    111  H   UNL     1       3.470  15.283  19.719  0.00  0.00    +0.059 HD
ATOM    112  H   UNL     1       2.862  15.230  22.728  0.00  0.00    +0.078 HD
BRANCH 110 113
ATOM    113  N   UNL     1       4.758  15.820  22.092  0.00  0.00    -0.284 N 
ATOM    114  C   UNL     1       5.631  16.358  21.150  0.00  0.00    +0.206 C 
ATOM    115  O   UNL     1       6.789  16.708  21.354  0.00  0.00    -0.279 OA
ATOM    116  H   UNL     1       5.199  16.456  20.144  0.00  0.00    +0.126 HD
BRANCH 113 117
ATOM    117  C   UNL     1       5.247  15.683  23.459  0.00  0.00    +0.007 C 
ATOM    118  H   UNL     1       5.890  16.540  23.691  0.00  0.00    +0.043 HD
ATOM    119  H   UNL     1       4.396  15.665  24.151  0.00  0.00    +0.043 HD
ATOM    120  H   UNL     1       5.827  14.767  23.604  0.00  0.00    +0.043 HD
ENDBRANCH 113 117
ENDBRANCH 110 113
ENDBRANCH 106 109
ENDBRANCH 104 106
BRANCH 104 121
ATOM    121  O   UNL     1       1.324  16.737  19.265  0.00  0.00    -0.379 OA
BRANCH 121 122
ATOM    122  C   UNL     1       0.567  17.914  19.508  0.00  0.00    +0.037 C 
ATOM    123  H   UNL     1       0.067  18.261  18.600  0.00  0.00    +0.052 HD
ATOM    124  H   UNL     1       1.208  18.703  19.908  0.00  0.00    +0.052 HD
ATOM    125  H   UNL     1      -0.198  17.681  20.254  0.00  0.00    +0.052 HD
ENDBRANCH 121 122
ENDBRANCH 104 121
ENDBRANCH  98 104
ENDBRANCH  96  98
ENDBRANCH  93  96
ENDBRANCH  90  93
ENDBRANCH  84  90
ENDBRANCH  82  84
BRANCH  82 126
ATOM    126  O   UNL     1      -5.741  17.271  17.701  0.00  0.00    -0.379 OA
BRANCH 126 127
ATOM    127  C   UNL     1      -6.401  18.160  16.813  0.00  0.00    +0.037 C 
ATOM    128  H   UNL     1      -7.107  18.781  17.372  0.00  0.00    +0.052 HD
ATOM    129  H   UNL     1      -5.684  18.788  16.276  0.00  0.00    +0.052 HD
ATOM    130  H   UNL     1      -6.963  17.565  16.086  0.00  0.00    +0.052 HD
ENDBRANCH 126 127
ENDBRANCH  82 126
ENDBRANCH  76  82
ENDBRANCH  25  76
BRANCH  31 131
ATOM    131  O   UNL     1      -8.756   8.143  16.974  0.00  0.00    -0.379 OA
BRANCH 131 132
ATOM    132  C   UNL     1      -7.869   7.127  16.520  0.00  0.00    +0.037 C 
ATOM    133  H   UNL     1      -8.414   6.386  15.926  0.00  0.00    +0.052 HD
ATOM    134  H   UNL     1      -7.367   6.638  17.359  0.00  0.00    +0.052 HD
ATOM    135  H   UNL     1      -7.112   7.593  15.887  0.00  0.00    +0.052 HD
ENDBRANCH 131 132
ENDBRANCH  31 131
BRANCH  29 136
ATOM    136  O   UNL     1      -4.507  10.314  17.031  0.00  0.00    -0.376 OA
BRANCH 136 137
ATOM    137  C   UNL     1      -4.429   9.569  15.821  0.00  0.00    +0.037 C 
ATOM    138  H   UNL     1      -3.439   9.120  15.702  0.00  0.00    +0.052 HD
ATOM    139  H   UNL     1      -5.176   8.772  15.862  0.00  0.00    +0.052 HD
ATOM    140  H   UNL     1      -4.661  10.209  14.962  0.00  0.00    +0.052 HD
ENDBRANCH 136 137
ENDBRANCH  29 136
BRANCH  16 141
ATOM    141  O   UNL     1      -9.655  16.327  28.172  0.00  0.00    -0.379 OA
BRANCH 141 142
ATOM    142  C   UNL     1      -9.664  17.683  28.598  0.00  0.00    +0.037 C 
ATOM    143  H   UNL     1     -10.521  17.827  29.261  0.00  0.00    +0.052 HD
ATOM    144  H   UNL     1      -8.749  17.903  29.156  0.00  0.00    +0.052 HD
ATOM    145  H   UNL     1      -9.760  18.369  27.750  0.00  0.00    +0.052 HD
ENDBRANCH 141 142
ENDBRANCH  16 141
BRANCH   6 146
ATOM    146  O   UNL     1     -10.062  13.262  22.404  0.00  0.00    -0.379 OA
BRANCH 146 147
ATOM    147  C   UNL     1     -10.353  14.516  21.796  0.00  0.00    +0.037 C 
ATOM    148  H   UNL     1     -10.575  14.337  20.742  0.00  0.00    +0.052 HD
ATOM    149  H   UNL     1     -11.233  14.970  22.263  0.00  0.00    +0.052 HD
ATOM    150  H   UNL     1      -9.499  15.195  21.857  0.00  0.00    +0.052 HD
ENDBRANCH 146 147
ENDBRANCH   6 146
BRANCH   4 151
ATOM    151  O   UNL     1     -10.282   8.734  22.012  0.00  0.00    -0.376 OA
BRANCH 151 152
ATOM    152  C   UNL     1     -10.250   8.653  23.431  0.00  0.00    +0.037 C 
ATOM    153  H   UNL     1     -10.616   9.603  23.836  0.00  0.00    +0.052 HD
ATOM    154  H   UNL     1      -9.229   8.493  23.791  0.00  0.00    +0.052 HD
ATOM    155  H   UNL     1     -10.906   7.852  23.783  0.00  0.00    +0.052 HD
ENDBRANCH 151 152
ENDBRANCH   4 151
TORSDOF 33
ENDMDL
MODEL 6
REMARK VINA RESULT:      -5.1      3.600     11.561
REMARK  Name = Reidispongiolide A_conf1
REMARK  33 active torsions:
REMARK  status: ('A' for Active; 'I' for Inactive)
REMARK    1  A    between atoms: C_1  and  C_2
REMARK    2  A    between atoms: C_5  and  O_67
REMARK    3  A    between atoms: C_7  and  O_65
REMARK    4  A    between atoms: C_8  and  C_64
REMARK    5  A    between atoms: C_17  and  O_62
REMARK    6  A    between atoms: C_19  and  C_61
REMARK    7  A    between atoms: C_26  and  C_38
REMARK    8  A    between atoms: C_27  and  C_37
REMARK    9  A    between atoms: C_30  and  O_35
REMARK   10  A    between atoms: C_32  and  O_33
REMARK   11  A    between atoms: O_33  and  C_34
REMARK   12  A    between atoms: O_35  and  C_36
REMARK   13  A    between atoms: C_38  and  C_39
REMARK   14  A    between atoms: C_38  and  C_40
REMARK   15  A    between atoms: C_40  and  C_41
REMARK   16  A    between atoms: C_40  and  O_59
REMARK   17  A    between atoms: C_41  and  C_42
REMARK   18  A    between atoms: C_41  and  C_43
REMARK   19  A    between atoms: C_43  and  C_44
REMARK   20  A    between atoms: C_44  and  C_45
REMARK   21  A    between atoms: C_45  and  C_47
REMARK   22  A    between atoms: C_47  and  C_48
REMARK   23  A    between atoms: C_47  and  C_49
REMARK   24  A    between atoms: C_49  and  C_50
REMARK   25  A    between atoms: C_49  and  O_57
REMARK   26  A    between atoms: C_50  and  C_51
REMARK   27  A    between atoms: C_52  and  N_53
REMARK   28  A    between atoms: N_53  and  C_54
REMARK   29  A    between atoms: O_57  and  C_58
REMARK   30  A    between atoms: O_59  and  C_60
REMARK   31  A    between atoms: O_62  and  C_63
REMARK   32  A    between atoms: O_65  and  C_66
REMARK   33  A    between atoms: O_67  and  C_68
REMARK                            x       y       z     vdW  Elec       q    Type
REMARK                         _______ _______ _______ _____ _____    ______ ____
ROOT
ATOM      1  C   UNL     1     -12.347   4.004  20.329  0.00  0.00    +0.001 C 
ATOM      2  C   UNL     1     -11.643   4.320  19.021  0.00  0.00    -0.080 C 
ATOM      3  C   UNL     1     -11.285   5.556  18.635  0.00  0.00    -0.059 C 
ATOM      4  C   UNL     1     -10.636   5.870  17.315  0.00  0.00    +0.079 C 
ATOM      5  C   UNL     1      -9.868   7.204  17.298  0.00  0.00    +0.004 C 
ATOM      6  C   UNL     1      -8.628   7.246  18.216  0.00  0.00    +0.067 C 
ATOM      7  C   UNL     1      -7.345   7.776  17.496  0.00  0.00    +0.020 C 
ATOM      8  C   UNL     1      -7.509   9.144  16.760  0.00  0.00    +0.112 C 
ATOM      9  C   UNL     1      -7.667  10.390  17.644  0.00  0.00    +0.006 C 
ATOM     10  C   UNL     1      -6.343  10.900  18.149  0.00  0.00    -0.057 C 
ATOM     11  C   UNL     1      -5.212  10.567  17.510  0.00  0.00    +0.022 C 
ATOM     12  C   UNL     1      -5.213   9.791  16.260  0.00  0.00    +0.332 C 
ATOM     13  O   UNL     1      -4.179   9.615  15.629  0.00  0.00    -0.246 OA
ATOM     14  O   UNL     1      -6.413   9.335  15.829  0.00  0.00    -0.458 OA
ATOM     15  C   UNL     1      -6.336  11.805  19.365  0.00  0.00    -0.004 C 
ATOM     16  C   UNL     1      -7.067  13.153  19.135  0.00  0.00    +0.066 C 
ATOM     17  C   UNL     1      -7.246  13.946  20.458  0.00  0.00    -0.005 C 
ATOM     18  C   UNL     1      -8.157  13.378  21.544  0.00  0.00    -0.070 C 
ATOM     19  C   UNL     1      -9.012  12.366  21.309  0.00  0.00    -0.062 C 
ATOM     20  C   UNL     1      -9.824  11.626  22.235  0.00  0.00    -0.055 C 
ATOM     21  C   UNL     1     -10.849  12.086  22.970  0.00  0.00    +0.023 C 
ATOM     22  C   UNL     1     -11.759  11.154  23.683  0.00  0.00    +0.332 C 
ATOM     23  O   UNL     1     -12.853  11.482  24.108  0.00  0.00    -0.246 OA
ATOM     24  O   UNL     1     -11.243   9.905  23.682  0.00  0.00    -0.457 OA
ATOM     25  C   UNL     1     -12.127   8.765  23.888  0.00  0.00    +0.114 C 
ATOM     26  C   UNL     1     -12.906   8.555  22.540  0.00  0.00    +0.012 C 
ATOM     27  C   UNL     1     -13.981   7.486  22.574  0.00  0.00    -0.079 C 
ATOM     28  C   UNL     1     -14.232   6.583  21.606  0.00  0.00    -0.059 C 
ATOM     29  C   UNL     1     -15.279   5.495  21.590  0.00  0.00    +0.079 C 
ATOM     30  C   UNL     1     -14.674   4.082  21.425  0.00  0.00    +0.004 C 
ATOM     31  C   UNL     1     -13.889   3.893  20.105  0.00  0.00    +0.067 C 
ATOM     32  H   UNL     1     -12.147   4.825  21.025  0.00  0.00    +0.037 HD
ATOM     33  H   UNL     1     -11.472   3.478  18.351  0.00  0.00    +0.057 HD
ATOM     34  H   UNL     1     -11.503   6.406  19.273  0.00  0.00    +0.059 HD
ATOM     35  H   UNL     1      -9.945   5.063  17.029  0.00  0.00    +0.064 HD
ATOM     36  H   UNL     1     -10.554   8.025  17.543  0.00  0.00    +0.032 HD
ATOM     37  H   UNL     1      -9.589   7.366  16.251  0.00  0.00    +0.032 HD
ATOM     38  H   UNL     1      -8.422   6.231  18.582  0.00  0.00    +0.060 HD
ATOM     39  H   UNL     1      -6.554   7.906  18.244  0.00  0.00    +0.036 HD
ATOM     40  H   UNL     1      -8.398   9.097  16.122  0.00  0.00    +0.074 HD
ATOM     41  H   UNL     1      -8.352  10.205  18.472  0.00  0.00    +0.035 HD
ATOM     42  H   UNL     1      -8.115  11.193  17.040  0.00  0.00    +0.035 HD
ATOM     43  H   UNL     1      -4.238  10.922  17.829  0.00  0.00    +0.069 HD
ATOM     44  H   UNL     1      -6.782  11.244  20.193  0.00  0.00    +0.034 HD
ATOM     45  H   UNL     1      -5.299  12.014  19.659  0.00  0.00    +0.034 HD
ATOM     46  H   UNL     1      -8.044  12.979  18.668  0.00  0.00    +0.060 HD
ATOM     47  H   UNL     1      -6.242  14.093  20.884  0.00  0.00    +0.034 HD
ATOM     48  H   UNL     1      -7.606  14.956  20.222  0.00  0.00    +0.034 HD
ATOM     49  H   UNL     1      -9.073  11.930  20.310  0.00  0.00    +0.062 HD
ATOM     50  H   UNL     1      -9.603  10.560  22.208  0.00  0.00    +0.062 HD
ATOM     51  H   UNL     1     -11.147  13.127  22.971  0.00  0.00    +0.069 HD
ATOM     52  H   UNL     1     -12.829   9.009  24.693  0.00  0.00    +0.074 HD
ATOM     53  H   UNL     1     -13.455   9.494  22.361  0.00  0.00    +0.038 HD
ATOM     54  H   UNL     1     -14.619   7.485  23.456  0.00  0.00    +0.057 HD
ATOM     55  H   UNL     1     -13.651   6.627  20.689  0.00  0.00    +0.059 HD
ATOM     56  H   UNL     1     -15.945   5.705  20.741  0.00  0.00    +0.064 HD
ATOM     57  H   UNL     1     -14.038   3.861  22.291  0.00  0.00    +0.032 HD
ATOM     58  H   UNL     1     -15.484   3.346  21.497  0.00  0.00    +0.032 HD
ATOM     59  H   UNL     1     -14.203   4.652  19.374  0.00  0.00    +0.060 HD
ENDROOT
BRANCH   1  60
ATOM     60  C   UNL     1     -11.734   2.732  20.930  0.00  0.00    -0.057 C 
ATOM     61  H   UNL     1     -12.489   2.103  21.415  0.00  0.00    +0.024 HD
ATOM     62  H   UNL     1     -11.258   2.128  20.151  0.00  0.00    +0.024 HD
ATOM     63  H   UNL     1     -10.971   2.972  21.676  0.00  0.00    +0.024 HD
ENDBRANCH   1  60
BRANCH  26  64
ATOM     64  C   UNL     1     -11.944   8.426  21.344  0.00  0.00    -0.056 C 
ATOM     65  H   UNL     1     -12.353   7.801  20.549  0.00  0.00    +0.024 HD
ATOM     66  H   UNL     1     -11.706   9.404  20.910  0.00  0.00    +0.024 HD
ATOM     67  H   UNL     1     -11.006   7.943  21.641  0.00  0.00    +0.024 HD
ENDBRANCH  26  64
BRANCH  18  68
ATOM     68  C   UNL     1      -7.966  14.031  22.888  0.00  0.00    -0.043 C 
ATOM     69  H   UNL     1      -7.669  15.077  22.754  0.00  0.00    +0.027 HD
ATOM     70  H   UNL     1      -7.172  13.522  23.447  0.00  0.00    +0.027 HD
ATOM     71  H   UNL     1      -8.863  14.021  23.510  0.00  0.00    +0.027 HD
ENDBRANCH  18  68
BRANCH   7  72
ATOM     72  C   UNL     1      -6.840   6.680  16.538  0.00  0.00    -0.057 C 
ATOM     73  H   UNL     1      -7.166   5.691  16.878  0.00  0.00    +0.023 HD
ATOM     74  H   UNL     1      -7.212   6.830  15.519  0.00  0.00    +0.023 HD
ATOM     75  H   UNL     1      -5.747   6.655  16.496  0.00  0.00    +0.023 HD
ENDBRANCH   7  72
BRANCH  25  76
ATOM     76  C   UNL     1     -11.184   7.614  24.358  0.00  0.00    +0.020 C 
ATOM     77  H   UNL     1     -11.184   6.853  23.564  0.00  0.00    +0.036 HD
BRANCH  76  78
ATOM     78  C   UNL     1      -9.720   8.099  24.389  0.00  0.00    -0.057 C 
ATOM     79  H   UNL     1      -9.289   8.076  23.383  0.00  0.00    +0.023 HD
ATOM     80  H   UNL     1      -9.083   7.467  25.012  0.00  0.00    +0.023 HD
ATOM     81  H   UNL     1      -9.645   9.130  24.742  0.00  0.00    +0.023 HD
ENDBRANCH  76  78
BRANCH  76  82
ATOM     82  C   UNL     1     -11.604   6.872  25.657  0.00  0.00    +0.067 C 
ATOM     83  H   UNL     1     -11.003   7.293  26.469  0.00  0.00    +0.060 HD
BRANCH  82  84
ATOM     84  C   UNL     1     -11.438   5.320  25.705  0.00  0.00    -0.017 C 
ATOM     85  H   UNL     1     -11.874   4.956  26.641  0.00  0.00    +0.032 HD
BRANCH  84  86
ATOM     86  C   UNL     1     -12.277   4.728  24.556  0.00  0.00    -0.060 C 
ATOM     87  H   UNL     1     -12.091   5.254  23.616  0.00  0.00    +0.023 HD
ATOM     88  H   UNL     1     -12.052   3.669  24.396  0.00  0.00    +0.023 HD
ATOM     89  H   UNL     1     -13.346   4.831  24.753  0.00  0.00    +0.023 HD
ENDBRANCH  84  86
BRANCH  84  90
ATOM     90  C   UNL     1      -9.965   4.839  25.625  0.00  0.00    -0.041 C 
ATOM     91  H   UNL     1      -9.385   5.556  25.037  0.00  0.00    +0.027 HD
ATOM     92  H   UNL     1      -9.936   3.891  25.075  0.00  0.00    +0.027 HD
BRANCH  90  93
ATOM     93  C   UNL     1      -9.225   4.603  26.943  0.00  0.00    +0.007 C 
ATOM     94  H   UNL     1      -8.456   3.838  26.752  0.00  0.00    +0.034 HD
ATOM     95  H   UNL     1      -9.844   4.180  27.739  0.00  0.00    +0.034 HD
BRANCH  93  96
ATOM     96  C   UNL     1      -8.472   5.811  27.472  0.00  0.00    +0.139 C 
ATOM     97  O   UNL     1      -7.819   6.509  26.692  0.00  0.00    -0.297 OA
BRANCH  96  98
ATOM     98  C   UNL     1      -8.528   6.096  28.971  0.00  0.00    +0.041 C 
ATOM     99  H   UNL     1      -7.570   5.793  29.405  0.00  0.00    +0.040 HD
BRANCH  98 100
ATOM    100  C   UNL     1      -9.618   5.224  29.593  0.00  0.00    -0.053 C 
ATOM    101  H   UNL     1      -9.206   4.319  30.046  0.00  0.00    +0.024 HD
ATOM    102  H   UNL     1     -10.351   4.928  28.834  0.00  0.00    +0.024 HD
ATOM    103  H   UNL     1     -10.149   5.767  30.379  0.00  0.00    +0.024 HD
ENDBRANCH  98 100
BRANCH  98 104
ATOM    104  C   UNL     1      -8.732   7.601  29.286  0.00  0.00    +0.071 C 
ATOM    105  H   UNL     1      -7.967   8.150  28.718  0.00  0.00    +0.061 HD
BRANCH 104 106
ATOM    106  C   UNL     1     -10.128   8.130  28.875  0.00  0.00    -0.006 C 
ATOM    107  H   UNL     1     -10.728   7.324  28.433  0.00  0.00    +0.033 HD
ATOM    108  H   UNL     1     -10.686   8.426  29.772  0.00  0.00    +0.033 HD
BRANCH 106 109
ATOM    109  C   UNL     1     -10.068   9.285  27.905  0.00  0.00    -0.067 C 
ATOM    110  C   UNL     1     -10.103  10.568  28.293  0.00  0.00    -0.005 C 
ATOM    111  H   UNL     1      -9.999   9.015  26.859  0.00  0.00    +0.059 HD
ATOM    112  H   UNL     1     -10.194  10.787  29.359  0.00  0.00    +0.078 HD
BRANCH 110 113
ATOM    113  N   UNL     1     -10.022  11.695  27.489  0.00  0.00    -0.284 N 
ATOM    114  C   UNL     1      -8.849  12.226  26.961  0.00  0.00    +0.206 C 
ATOM    115  O   UNL     1      -8.757  13.245  26.284  0.00  0.00    -0.279 OA
ATOM    116  H   UNL     1      -7.947  11.645  27.200  0.00  0.00    +0.126 HD
BRANCH 113 117
ATOM    117  C   UNL     1     -11.268  12.392  27.193  0.00  0.00    +0.007 C 
ATOM    118  H   UNL     1     -11.660  12.823  28.122  0.00  0.00    +0.043 HD
ATOM    119  H   UNL     1     -11.075  13.194  26.469  0.00  0.00    +0.043 HD
ATOM    120  H   UNL     1     -12.028  11.726  26.773  0.00  0.00    +0.043 HD
ENDBRANCH 113 117
ENDBRANCH 110 113
ENDBRANCH 106 109
ENDBRANCH 104 106
BRANCH 104 121
ATOM    121  O   UNL     1      -8.507   7.832  30.681  0.00  0.00    -0.379 OA
BRANCH 121 122
ATOM    122  C   UNL     1      -9.612   8.414  31.358  0.00  0.00    +0.037 C 
ATOM    123  H   UNL     1     -10.079   9.199  30.758  0.00  0.00    +0.052 HD
ATOM    124  H   UNL     1      -9.298   8.816  32.325  0.00  0.00    +0.052 HD
ATOM    125  H   UNL     1     -10.353   7.630  31.537  0.00  0.00    +0.052 HD
ENDBRANCH 121 122
ENDBRANCH 104 121
ENDBRANCH  98 104
ENDBRANCH  96  98
ENDBRANCH  93  96
ENDBRANCH  90  93
ENDBRANCH  84  90
ENDBRANCH  82  84
BRANCH  82 126
ATOM    126  O   UNL     1     -12.984   7.174  25.944  0.00  0.00    -0.379 OA
BRANCH 126 127
ATOM    127  C   UNL     1     -13.326   7.008  27.311  0.00  0.00    +0.037 C 
ATOM    128  H   UNL     1     -14.257   7.540  27.525  0.00  0.00    +0.052 HD
ATOM    129  H   UNL     1     -13.425   5.948  27.569  0.00  0.00    +0.052 HD
ATOM    130  H   UNL     1     -12.529   7.446  27.920  0.00  0.00    +0.052 HD
ENDBRANCH 126 127
ENDBRANCH  82 126
ENDBRANCH  76  82
ENDBRANCH  25  76
BRANCH  31 131
ATOM    131  O   UNL     1     -14.178   2.593  19.552  0.00  0.00    -0.379 OA
BRANCH 131 132
ATOM    132  C   UNL     1     -15.349   2.001  20.101  0.00  0.00    +0.037 C 
ATOM    133  H   UNL     1     -15.991   2.769  20.545  0.00  0.00    +0.052 HD
ATOM    134  H   UNL     1     -15.096   1.246  20.849  0.00  0.00    +0.052 HD
ATOM    135  H   UNL     1     -15.897   1.516  19.291  0.00  0.00    +0.052 HD
ENDBRANCH 131 132
ENDBRANCH  31 131
BRANCH  29 136
ATOM    136  O   UNL     1     -16.024   5.549  22.812  0.00  0.00    -0.376 OA
BRANCH 136 137
ATOM    137  C   UNL     1     -16.018   4.308  23.509  0.00  0.00    +0.037 C 
ATOM    138  H   UNL     1     -15.007   4.049  23.837  0.00  0.00    +0.052 HD
ATOM    139  H   UNL     1     -16.660   4.407  24.389  0.00  0.00    +0.052 HD
ATOM    140  H   UNL     1     -16.427   3.511  22.877  0.00  0.00    +0.052 HD
ENDBRANCH 136 137
ENDBRANCH  29 136
BRANCH  16 141
ATOM    141  O   UNL     1      -6.248  13.932  18.240  0.00  0.00    -0.379 OA
BRANCH 141 142
ATOM    142  C   UNL     1      -6.981  14.481  17.152  0.00  0.00    +0.037 C 
ATOM    143  H   UNL     1      -7.420  15.427  17.477  0.00  0.00    +0.052 HD
ATOM    144  H   UNL     1      -6.307  14.678  16.312  0.00  0.00    +0.052 HD
ATOM    145  H   UNL     1      -7.788  13.812  16.835  0.00  0.00    +0.052 HD
ENDBRANCH 141 142
ENDBRANCH  16 141
BRANCH   6 146
ATOM    146  O   UNL     1      -8.954   8.076  19.342  0.00  0.00    -0.379 OA
BRANCH 146 147
ATOM    147  C   UNL     1      -8.057   7.920  20.436  0.00  0.00    +0.037 C 
ATOM    148  H   UNL     1      -7.129   7.492  20.054  0.00  0.00    +0.052 HD
ATOM    149  H   UNL     1      -7.832   8.893  20.885  0.00  0.00    +0.052 HD
ATOM    150  H   UNL     1      -8.464   7.241  21.190  0.00  0.00    +0.052 HD
ENDBRANCH 146 147
ENDBRANCH   6 146
BRANCH   4 151
ATOM    151  O   UNL     1     -11.694   6.009  16.354  0.00  0.00    -0.376 OA
BRANCH 151 152
ATOM    152  C   UNL     1     -11.494   7.106  15.472  0.00  0.00    +0.037 C 
ATOM    153  H   UNL     1     -10.498   7.010  15.028  0.00  0.00    +0.052 HD
ATOM    154  H   UNL     1     -11.543   8.057  16.012  0.00  0.00    +0.052 HD
ATOM    155  H   UNL     1     -12.235   7.089  14.667  0.00  0.00    +0.052 HD
ENDBRANCH 151 152
ENDBRANCH   4 151
TORSDOF 33
ENDMDL
MODEL 7
REMARK VINA RESULT:      -5.1      5.939     12.067
REMARK  Name = Reidispongiolide A_conf1
REMARK  33 active torsions:
REMARK  status: ('A' for Active; 'I' for Inactive)
REMARK    1  A    between atoms: C_1  and  C_2
REMARK    2  A    between atoms: C_5  and  O_67
REMARK    3  A    between atoms: C_7  and  O_65
REMARK    4  A    between atoms: C_8  and  C_64
REMARK    5  A    between atoms: C_17  and  O_62
REMARK    6  A    between atoms: C_19  and  C_61
REMARK    7  A    between atoms: C_26  and  C_38
REMARK    8  A    between atoms: C_27  and  C_37
REMARK    9  A    between atoms: C_30  and  O_35
REMARK   10  A    between atoms: C_32  and  O_33
REMARK   11  A    between atoms: O_33  and  C_34
REMARK   12  A    between atoms: O_35  and  C_36
REMARK   13  A    between atoms: C_38  and  C_39
REMARK   14  A    between atoms: C_38  and  C_40
REMARK   15  A    between atoms: C_40  and  C_41
REMARK   16  A    between atoms: C_40  and  O_59
REMARK   17  A    between atoms: C_41  and  C_42
REMARK   18  A    between atoms: C_41  and  C_43
REMARK   19  A    between atoms: C_43  and  C_44
REMARK   20  A    between atoms: C_44  and  C_45
REMARK   21  A    between atoms: C_45  and  C_47
REMARK   22  A    between atoms: C_47  and  C_48
REMARK   23  A    between atoms: C_47  and  C_49
REMARK   24  A    between atoms: C_49  and  C_50
REMARK   25  A    between atoms: C_49  and  O_57
REMARK   26  A    between atoms: C_50  and  C_51
REMARK   27  A    between atoms: C_52  and  N_53
REMARK   28  A    between atoms: N_53  and  C_54
REMARK   29  A    between atoms: O_57  and  C_58
REMARK   30  A    between atoms: O_59  and  C_60
REMARK   31  A    between atoms: O_62  and  C_63
REMARK   32  A    between atoms: O_65  and  C_66
REMARK   33  A    between atoms: O_67  and  C_68
REMARK                            x       y       z     vdW  Elec       q    Type
REMARK                         _______ _______ _______ _____ _____    ______ ____
ROOT
ATOM      1  C   UNL     1     -11.305   1.642  18.459  0.00  0.00    +0.001 C 
ATOM      2  C   UNL     1     -10.899   0.391  17.701  0.00  0.00    -0.080 C 
ATOM      3  C   UNL     1     -10.661   0.351  16.380  0.00  0.00    -0.059 C 
ATOM      4  C   UNL     1     -10.311  -0.902  15.625  0.00  0.00    +0.079 C 
ATOM      5  C   UNL     1      -9.596  -0.647  14.286  0.00  0.00    +0.004 C 
ATOM      6  C   UNL     1      -8.193  -0.018  14.413  0.00  0.00    +0.067 C 
ATOM      7  C   UNL     1      -7.103  -0.767  13.579  0.00  0.00    +0.020 C 
ATOM      8  C   UNL     1      -7.451  -0.990  12.072  0.00  0.00    +0.112 C 
ATOM      9  C   UNL     1      -7.450   0.253  11.172  0.00  0.00    +0.006 C 
ATOM     10  C   UNL     1      -6.062   0.629  10.723  0.00  0.00    -0.057 C 
ATOM     11  C   UNL     1      -5.083  -0.287  10.746  0.00  0.00    +0.022 C 
ATOM     12  C   UNL     1      -5.328  -1.692  11.104  0.00  0.00    +0.332 C 
ATOM     13  O   UNL     1      -4.445  -2.533  10.989  0.00  0.00    -0.246 OA
ATOM     14  O   UNL     1      -6.580  -2.006  11.513  0.00  0.00    -0.458 OA
ATOM     15  C   UNL     1      -5.823   2.043  10.230  0.00  0.00    -0.004 C 
ATOM     16  C   UNL     1      -6.618   2.392   8.947  0.00  0.00    +0.066 C 
ATOM     17  C   UNL     1      -6.535   3.906   8.610  0.00  0.00    -0.005 C 
ATOM     18  C   UNL     1      -7.183   4.912   9.558  0.00  0.00    -0.070 C 
ATOM     19  C   UNL     1      -8.043   4.540  10.523  0.00  0.00    -0.062 C 
ATOM     20  C   UNL     1      -8.624   5.325  11.577  0.00  0.00    -0.055 C 
ATOM     21  C   UNL     1      -9.483   6.349  11.454  0.00  0.00    +0.023 C 
ATOM     22  C   UNL     1     -10.200   6.894  12.634  0.00  0.00    +0.332 C 
ATOM     23  O   UNL     1     -11.189   7.602  12.548  0.00  0.00    -0.246 OA
ATOM     24  O   UNL     1      -9.666   6.401  13.773  0.00  0.00    -0.457 OA
ATOM     25  C   UNL     1     -10.458   6.405  14.996  0.00  0.00    +0.114 C 
ATOM     26  C   UNL     1     -11.498   5.235  14.857  0.00  0.00    +0.012 C 
ATOM     27  C   UNL     1     -12.516   5.137  15.977  0.00  0.00    -0.079 C 
ATOM     28  C   UNL     1     -12.942   4.002  16.564  0.00  0.00    -0.059 C 
ATOM     29  C   UNL     1     -13.942   3.847  17.684  0.00  0.00    +0.079 C 
ATOM     30  C   UNL     1     -13.351   3.133  18.922  0.00  0.00    +0.004 C 
ATOM     31  C   UNL     1     -12.856   1.696  18.633  0.00  0.00    +0.067 C 
ATOM     32  H   UNL     1     -10.984   2.509  17.872  0.00  0.00    +0.037 HD
ATOM     33  H   UNL     1     -10.852  -0.530  18.282  0.00  0.00    +0.057 HD
ATOM     34  H   UNL     1     -10.760   1.254  15.785  0.00  0.00    +0.059 HD
ATOM     35  H   UNL     1      -9.676  -1.554  16.243  0.00  0.00    +0.064 HD
ATOM     36  H   UNL     1     -10.236  -0.029  13.641  0.00  0.00    +0.032 HD
ATOM     37  H   UNL     1      -9.548  -1.623  13.791  0.00  0.00    +0.032 HD
ATOM     38  H   UNL     1      -7.890  -0.036  15.469  0.00  0.00    +0.060 HD
ATOM     39  H   UNL     1      -6.175  -0.182  13.612  0.00  0.00    +0.036 HD
ATOM     40  H   UNL     1      -8.452  -1.427  12.003  0.00  0.00    +0.074 HD
ATOM     41  H   UNL     1      -7.942   1.097  11.658  0.00  0.00    +0.035 HD
ATOM     42  H   UNL     1      -8.035   0.030  10.267  0.00  0.00    +0.035 HD
ATOM     43  H   UNL     1      -4.073  -0.065  10.419  0.00  0.00    +0.069 HD
ATOM     44  H   UNL     1      -6.071   2.722  11.053  0.00  0.00    +0.034 HD
ATOM     45  H   UNL     1      -4.752   2.183  10.029  0.00  0.00    +0.034 HD
ATOM     46  H   UNL     1      -7.666   2.091   9.057  0.00  0.00    +0.060 HD
ATOM     47  H   UNL     1      -5.467   4.155   8.510  0.00  0.00    +0.034 HD
ATOM     48  H   UNL     1      -6.960   4.073   7.612  0.00  0.00    +0.034 HD
ATOM     49  H   UNL     1      -8.302   3.486  10.640  0.00  0.00    +0.062 HD
ATOM     50  H   UNL     1      -8.388   4.922  12.561  0.00  0.00    +0.062 HD
ATOM     51  H   UNL     1      -9.799   6.734  10.492  0.00  0.00    +0.069 HD
ATOM     52  H   UNL     1     -10.982   7.365  15.070  0.00  0.00    +0.074 HD
ATOM     53  H   UNL     1     -12.095   5.469  13.961  0.00  0.00    +0.038 HD
ATOM     54  H   UNL     1     -12.954   6.079  16.301  0.00  0.00    +0.057 HD
ATOM     55  H   UNL     1     -12.568   3.051  16.193  0.00  0.00    +0.059 HD
ATOM     56  H   UNL     1     -14.777   3.251  17.287  0.00  0.00    +0.064 HD
ATOM     57  H   UNL     1     -12.542   3.747  19.337  0.00  0.00    +0.032 HD
ATOM     58  H   UNL     1     -14.110   3.124  19.714  0.00  0.00    +0.032 HD
ATOM     59  H   UNL     1     -13.335   1.315  17.720  0.00  0.00    +0.060 HD
ENDROOT
BRANCH   1  60
ATOM     60  C   UNL     1     -10.549   1.684  19.793  0.00  0.00    -0.057 C 
ATOM     61  H   UNL     1      -9.849   0.847  19.894  0.00  0.00    +0.024 HD
ATOM     62  H   UNL     1      -9.968   2.607  19.878  0.00  0.00    +0.024 HD
ATOM     63  H   UNL     1     -11.238   1.645  20.643  0.00  0.00    +0.024 HD
ENDBRANCH   1  60
BRANCH  26  64
ATOM     64  C   UNL     1     -10.805   3.898  14.533  0.00  0.00    -0.056 C 
ATOM     65  H   UNL     1     -10.666   3.754  13.460  0.00  0.00    +0.024 HD
ATOM     66  H   UNL     1      -9.821   3.828  15.009  0.00  0.00    +0.024 HD
ATOM     67  H   UNL     1     -11.411   3.047  14.864  0.00  0.00    +0.024 HD
ENDBRANCH  26  64
BRANCH  18  68
ATOM     68  C   UNL     1      -6.730   6.330   9.327  0.00  0.00    -0.043 C 
ATOM     69  H   UNL     1      -7.431   7.027   9.799  0.00  0.00    +0.027 HD
ATOM     70  H   UNL     1      -6.704   6.549   8.253  0.00  0.00    +0.027 HD
ATOM     71  H   UNL     1      -5.736   6.542   9.727  0.00  0.00    +0.027 HD
ENDBRANCH  18  68
BRANCH   7  72
ATOM     72  C   UNL     1      -6.784  -2.099  14.285  0.00  0.00    -0.057 C 
ATOM     73  H   UNL     1      -5.739  -2.381  14.122  0.00  0.00    +0.023 HD
ATOM     74  H   UNL     1      -6.957  -2.037  15.364  0.00  0.00    +0.023 HD
ATOM     75  H   UNL     1      -7.396  -2.918  13.893  0.00  0.00    +0.023 HD
ENDBRANCH   7  72
BRANCH  25  76
ATOM     76  C   UNL     1      -9.411   6.300  16.148  0.00  0.00    +0.020 C 
ATOM     77  H   UNL     1      -9.810   5.585  16.882  0.00  0.00    +0.036 HD
BRANCH  76  78
ATOM     78  C   UNL     1      -8.126   5.612  15.641  0.00  0.00    -0.057 C 
ATOM     79  H   UNL     1      -7.274   6.297  15.709  0.00  0.00    +0.023 HD
ATOM     80  H   UNL     1      -8.198   5.313  14.593  0.00  0.00    +0.023 HD
ATOM     81  H   UNL     1      -7.875   4.734  16.241  0.00  0.00    +0.023 HD
ENDBRANCH  76  78
BRANCH  76  82
ATOM     82  C   UNL     1      -9.127   7.607  16.938  0.00  0.00    +0.067 C 
ATOM     83  H   UNL     1      -8.165   7.988  16.582  0.00  0.00    +0.060 HD
BRANCH  82  84
ATOM     84  C   UNL     1      -9.053   7.524  18.496  0.00  0.00    -0.017 C 
ATOM     85  H   UNL     1      -9.384   8.483  18.907  0.00  0.00    +0.032 HD
BRANCH  84  86
ATOM     86  C   UNL     1     -10.071   6.461  18.953  0.00  0.00    -0.060 C 
ATOM     87  H   UNL     1     -10.712   6.142  18.126  0.00  0.00    +0.023 HD
ATOM     88  H   UNL     1      -9.574   5.573  19.353  0.00  0.00    +0.023 HD
ATOM     89  H   UNL     1     -10.742   6.859  19.717  0.00  0.00    +0.023 HD
ENDBRANCH  84  86
BRANCH  84  90
ATOM     90  C   UNL     1      -7.637   7.211  19.045  0.00  0.00    -0.041 C 
ATOM     91  H   UNL     1      -7.232   6.340  18.521  0.00  0.00    +0.027 HD
ATOM     92  H   UNL     1      -7.725   6.925  20.100  0.00  0.00    +0.027 HD
BRANCH  90  93
ATOM     93  C   UNL     1      -6.591   8.326  18.981  0.00  0.00    +0.007 C 
ATOM     94  H   UNL     1      -5.716   7.986  19.557  0.00  0.00    +0.034 HD
ATOM     95  H   UNL     1      -6.895   9.259  19.465  0.00  0.00    +0.034 HD
BRANCH  93  96
ATOM     96  C   UNL     1      -6.067   8.624  17.588  0.00  0.00    +0.139 C 
ATOM     97  O   UNL     1      -5.717   7.693  16.858  0.00  0.00    -0.297 OA
BRANCH  96  98
ATOM     98  C   UNL     1      -5.961  10.084  17.154  0.00  0.00    +0.041 C 
ATOM     99  H   UNL     1      -6.891  10.350  16.641  0.00  0.00    +0.040 HD
BRANCH  98 100
ATOM    100  C   UNL     1      -4.820  10.211  16.145  0.00  0.00    -0.053 C 
ATOM    101  H   UNL     1      -5.069  10.898  15.332  0.00  0.00    +0.024 HD
ATOM    102  H   UNL     1      -4.583   9.234  15.710  0.00  0.00    +0.024 HD
ATOM    103  H   UNL     1      -3.916  10.593  16.626  0.00  0.00    +0.024 HD
ENDBRANCH  98 100
BRANCH  98 104
ATOM    104  C   UNL     1      -5.791  11.054  18.353  0.00  0.00    +0.071 C 
ATOM    105  H   UNL     1      -5.822  10.438  19.264  0.00  0.00    +0.061 HD
BRANCH 104 106
ATOM    106  C   UNL     1      -4.455  11.834  18.327  0.00  0.00    -0.006 C 
ATOM    107  H   UNL     1      -3.704  11.330  18.947  0.00  0.00    +0.033 HD
ATOM    108  H   UNL     1      -4.034  11.807  17.313  0.00  0.00    +0.033 HD
BRANCH 106 109
ATOM    109  C   UNL     1      -4.589  13.266  18.786  0.00  0.00    -0.067 C 
ATOM    110  C   UNL     1      -3.754  14.240  18.397  0.00  0.00    -0.005 C 
ATOM    111  H   UNL     1      -5.411  13.465  19.463  0.00  0.00    +0.059 HD
ATOM    112  H   UNL     1      -2.930  13.983  17.730  0.00  0.00    +0.078 HD
BRANCH 110 113
ATOM    113  N   UNL     1      -3.812  15.584  18.734  0.00  0.00    -0.284 N 
ATOM    114  C   UNL     1      -3.241  16.156  19.868  0.00  0.00    +0.206 C 
ATOM    115  O   UNL     1      -3.320  17.334  20.201  0.00  0.00    -0.279 OA
ATOM    116  H   UNL     1      -2.679  15.447  20.492  0.00  0.00    +0.126 HD
BRANCH 113 117
ATOM    117  C   UNL     1      -4.551  16.465  17.837  0.00  0.00    +0.007 C 
ATOM    118  H   UNL     1      -5.595  16.510  18.171  0.00  0.00    +0.043 HD
ATOM    119  H   UNL     1      -4.112  17.469  17.867  0.00  0.00    +0.043 HD
ATOM    120  H   UNL     1      -4.535  16.113  16.802  0.00  0.00    +0.043 HD
ENDBRANCH 113 117
ENDBRANCH 110 113
ENDBRANCH 106 109
ENDBRANCH 104 106
BRANCH 104 121
ATOM    121  O   UNL     1      -6.896  11.965  18.391  0.00  0.00    -0.379 OA
BRANCH 121 122
ATOM    122  C   UNL     1      -7.823  11.709  19.436  0.00  0.00    +0.037 C 
ATOM    123  H   UNL     1      -7.344  11.204  20.279  0.00  0.00    +0.052 HD
ATOM    124  H   UNL     1      -8.659  11.110  19.065  0.00  0.00    +0.052 HD
ATOM    125  H   UNL     1      -8.215  12.667  19.787  0.00  0.00    +0.052 HD
ENDBRANCH 121 122
ENDBRANCH 104 121
ENDBRANCH  98 104
ENDBRANCH  96  98
ENDBRANCH  93  96
ENDBRANCH  90  93
ENDBRANCH  84  90
ENDBRANCH  82  84
BRANCH  82 126
ATOM    126  O   UNL     1     -10.129   8.586  16.598  0.00  0.00    -0.379 OA
BRANCH 126 127
ATOM    127  C   UNL     1      -9.676   9.925  16.726  0.00  0.00    +0.037 C 
ATOM    128  H   UNL     1      -8.743   9.944  17.297  0.00  0.00    +0.052 HD
ATOM    129  H   UNL     1      -9.532  10.390  15.746  0.00  0.00    +0.052 HD
ATOM    130  H   UNL     1     -10.431  10.492  17.278  0.00  0.00    +0.052 HD
ENDBRANCH 126 127
ENDBRANCH  82 126
ENDBRANCH  76  82
ENDBRANCH  25  76
BRANCH  31 131
ATOM    131  O   UNL     1     -13.223   0.829  19.725  0.00  0.00    -0.379 OA
BRANCH 131 132
ATOM    132  C   UNL     1     -14.225   1.386  20.568  0.00  0.00    +0.037 C 
ATOM    133  H   UNL     1     -14.619   2.310  20.130  0.00  0.00    +0.052 HD
ATOM    134  H   UNL     1     -13.834   1.583  21.569  0.00  0.00    +0.052 HD
ATOM    135  H   UNL     1     -15.041   0.665  20.650  0.00  0.00    +0.052 HD
ENDBRANCH 131 132
ENDBRANCH  31 131
BRANCH  29 136
ATOM    136  O   UNL     1     -14.415   5.143  18.069  0.00  0.00    -0.376 OA
BRANCH 136 137
ATOM    137  C   UNL     1     -15.813   5.298  17.852  0.00  0.00    +0.037 C 
ATOM    138  H   UNL     1     -16.154   4.664  17.029  0.00  0.00    +0.052 HD
ATOM    139  H   UNL     1     -16.335   5.001  18.766  0.00  0.00    +0.052 HD
ATOM    140  H   UNL     1     -16.055   6.348  17.648  0.00  0.00    +0.052 HD
ENDBRANCH 136 137
ENDBRANCH  29 136
BRANCH  16 141
ATOM    141  O   UNL     1      -6.024   1.647   7.864  0.00  0.00    -0.379 OA
BRANCH 141 142
ATOM    142  C   UNL     1      -6.988   1.023   7.025  0.00  0.00    +0.037 C 
ATOM    143  H   UNL     1      -6.920  -0.058   7.171  0.00  0.00    +0.052 HD
ATOM    144  H   UNL     1      -7.993   1.352   7.306  0.00  0.00    +0.052 HD
ATOM    145  H   UNL     1      -6.803   1.246   5.969  0.00  0.00    +0.052 HD
ENDBRANCH 141 142
ENDBRANCH  16 141
BRANCH   6 146
ATOM    146  O   UNL     1      -8.295   1.353  13.995  0.00  0.00    -0.379 OA
BRANCH 146 147
ATOM    147  C   UNL     1      -7.472   2.235  14.748  0.00  0.00    +0.037 C 
ATOM    148  H   UNL     1      -8.122   2.901  15.319  0.00  0.00    +0.052 HD
ATOM    149  H   UNL     1      -6.852   1.669  15.452  0.00  0.00    +0.052 HD
ATOM    150  H   UNL     1      -6.842   2.846  14.096  0.00  0.00    +0.052 HD
ENDBRANCH 146 147
ENDBRANCH   6 146
BRANCH   4 151
ATOM    151  O   UNL     1     -11.551  -1.549  15.296  0.00  0.00    -0.376 OA
BRANCH 151 152
ATOM    152  C   UNL     1     -12.277  -0.861  14.287  0.00  0.00    +0.037 C 
ATOM    153  H   UNL     1     -12.337   0.196  14.567  0.00  0.00    +0.052 HD
ATOM    154  H   UNL     1     -13.295  -1.254  14.200  0.00  0.00    +0.052 HD
ATOM    155  H   UNL     1     -11.759  -0.935  13.326  0.00  0.00    +0.052 HD
ENDBRANCH 151 152
ENDBRANCH   4 151
TORSDOF 33
ENDMDL
MODEL 8
REMARK VINA RESULT:      -5.1      6.222     12.501
REMARK  Name = Reidispongiolide A_conf1
REMARK  33 active torsions:
REMARK  status: ('A' for Active; 'I' for Inactive)
REMARK    1  A    between atoms: C_1  and  C_2
REMARK    2  A    between atoms: C_5  and  O_67
REMARK    3  A    between atoms: C_7  and  O_65
REMARK    4  A    between atoms: C_8  and  C_64
REMARK    5  A    between atoms: C_17  and  O_62
REMARK    6  A    between atoms: C_19  and  C_61
REMARK    7  A    between atoms: C_26  and  C_38
REMARK    8  A    between atoms: C_27  and  C_37
REMARK    9  A    between atoms: C_30  and  O_35
REMARK   10  A    between atoms: C_32  and  O_33
REMARK   11  A    between atoms: O_33  and  C_34
REMARK   12  A    between atoms: O_35  and  C_36
REMARK   13  A    between atoms: C_38  and  C_39
REMARK   14  A    between atoms: C_38  and  C_40
REMARK   15  A    between atoms: C_40  and  C_41
REMARK   16  A    between atoms: C_40  and  O_59
REMARK   17  A    between atoms: C_41  and  C_42
REMARK   18  A    between atoms: C_41  and  C_43
REMARK   19  A    between atoms: C_43  and  C_44
REMARK   20  A    between atoms: C_44  and  C_45
REMARK   21  A    between atoms: C_45  and  C_47
REMARK   22  A    between atoms: C_47  and  C_48
REMARK   23  A    between atoms: C_47  and  C_49
REMARK   24  A    between atoms: C_49  and  C_50
REMARK   25  A    between atoms: C_49  and  O_57
REMARK   26  A    between atoms: C_50  and  C_51
REMARK   27  A    between atoms: C_52  and  N_53
REMARK   28  A    between atoms: N_53  and  C_54
REMARK   29  A    between atoms: O_57  and  C_58
REMARK   30  A    between atoms: O_59  and  C_60
REMARK   31  A    between atoms: O_62  and  C_63
REMARK   32  A    between atoms: O_65  and  C_66
REMARK   33  A    between atoms: O_67  and  C_68
REMARK                            x       y       z     vdW  Elec       q    Type
REMARK                         _______ _______ _______ _____ _____    ______ ____
ROOT
ATOM      1  C   UNL     1     -11.079   1.280  18.497  0.00  0.00    +0.001 C 
ATOM      2  C   UNL     1     -10.725   0.052  17.677  0.00  0.00    -0.080 C 
ATOM      3  C   UNL     1     -10.529   0.061  16.349  0.00  0.00    -0.059 C 
ATOM      4  C   UNL     1     -10.231  -1.168  15.533  0.00  0.00    +0.079 C 
ATOM      5  C   UNL     1      -9.552  -0.873  14.183  0.00  0.00    +0.004 C 
ATOM      6  C   UNL     1      -8.132  -0.280  14.290  0.00  0.00    +0.067 C 
ATOM      7  C   UNL     1      -7.086  -1.017  13.393  0.00  0.00    +0.020 C 
ATOM      8  C   UNL     1      -7.486  -1.172  11.890  0.00  0.00    +0.112 C 
ATOM      9  C   UNL     1      -7.485   0.107  11.040  0.00  0.00    +0.006 C 
ATOM     10  C   UNL     1      -6.105   0.471  10.562  0.00  0.00    -0.057 C 
ATOM     11  C   UNL     1      -5.146  -0.465  10.517  0.00  0.00    +0.022 C 
ATOM     12  C   UNL     1      -5.410  -1.878  10.827  0.00  0.00    +0.332 C 
ATOM     13  O   UNL     1      -4.550  -2.732  10.651  0.00  0.00    -0.246 OA
ATOM     14  O   UNL     1      -6.655  -2.182  11.263  0.00  0.00    -0.458 OA
ATOM     15  C   UNL     1      -5.849   1.898  10.119  0.00  0.00    -0.004 C 
ATOM     16  C   UNL     1      -6.677   2.316   8.876  0.00  0.00    +0.066 C 
ATOM     17  C   UNL     1      -6.570   3.840   8.597  0.00  0.00    -0.005 C 
ATOM     18  C   UNL     1      -7.166   4.820   9.605  0.00  0.00    -0.070 C 
ATOM     19  C   UNL     1      -8.004   4.427  10.581  0.00  0.00    -0.062 C 
ATOM     20  C   UNL     1      -8.534   5.181  11.684  0.00  0.00    -0.055 C 
ATOM     21  C   UNL     1      -9.374   6.227  11.630  0.00  0.00    +0.023 C 
ATOM     22  C   UNL     1     -10.041   6.739  12.853  0.00  0.00    +0.332 C 
ATOM     23  O   UNL     1     -11.016   7.470  12.827  0.00  0.00    -0.246 OA
ATOM     24  O   UNL     1      -9.482   6.190  13.954  0.00  0.00    -0.457 OA
ATOM     25  C   UNL     1     -10.236   6.160  15.200  0.00  0.00    +0.114 C 
ATOM     26  C   UNL     1     -11.305   5.018  15.048  0.00  0.00    +0.012 C 
ATOM     27  C   UNL     1     -12.289   4.897  16.196  0.00  0.00    -0.079 C 
ATOM     28  C   UNL     1     -12.722   3.748  16.751  0.00  0.00    -0.059 C 
ATOM     29  C   UNL     1     -13.689   3.569  17.896  0.00  0.00    +0.079 C 
ATOM     30  C   UNL     1     -13.076   2.793  19.084  0.00  0.00    +0.004 C 
ATOM     31  C   UNL     1     -12.622   1.359  18.723  0.00  0.00    +0.067 C 
ATOM     32  H   UNL     1     -10.757   2.163  17.935  0.00  0.00    +0.037 HD
ATOM     33  H   UNL     1     -10.680  -0.892  18.220  0.00  0.00    +0.057 HD
ATOM     34  H   UNL     1     -10.626   0.989  15.793  0.00  0.00    +0.059 HD
ATOM     35  H   UNL     1      -9.591  -1.857  16.105  0.00  0.00    +0.064 HD
ATOM     36  H   UNL     1     -10.198  -0.217  13.585  0.00  0.00    +0.032 HD
ATOM     37  H   UNL     1      -9.541  -1.830  13.649  0.00  0.00    +0.032 HD
ATOM     38  H   UNL     1      -7.797  -0.346  15.335  0.00  0.00    +0.060 HD
ATOM     39  H   UNL     1      -6.145  -0.454  13.419  0.00  0.00    +0.036 HD
ATOM     40  H   UNL     1      -8.498  -1.585  11.836  0.00  0.00    +0.074 HD
ATOM     41  H   UNL     1      -7.943   0.940  11.575  0.00  0.00    +0.035 HD
ATOM     42  H   UNL     1      -8.103  -0.067  10.146  0.00  0.00    +0.035 HD
ATOM     43  H   UNL     1      -4.142  -0.252  10.167  0.00  0.00    +0.069 HD
ATOM     44  H   UNL     1      -6.057   2.549  10.975  0.00  0.00    +0.034 HD
ATOM     45  H   UNL     1      -4.783   2.024   9.889  0.00  0.00    +0.034 HD
ATOM     46  H   UNL     1      -7.727   2.032   9.008  0.00  0.00    +0.060 HD
ATOM     47  H   UNL     1      -5.501   4.071   8.473  0.00  0.00    +0.034 HD
ATOM     48  H   UNL     1      -7.023   4.056   7.621  0.00  0.00    +0.034 HD
ATOM     49  H   UNL     1      -8.282   3.375  10.665  0.00  0.00    +0.062 HD
ATOM     50  H   UNL     1      -8.276   4.734  12.643  0.00  0.00    +0.062 HD
ATOM     51  H   UNL     1      -9.711   6.657  10.694  0.00  0.00    +0.069 HD
ATOM     52  H   UNL     1     -10.735   7.127  15.329  0.00  0.00    +0.074 HD
ATOM     53  H   UNL     1     -11.924   5.301  14.182  0.00  0.00    +0.038 HD
ATOM     54  H   UNL     1     -12.696   5.834  16.571  0.00  0.00    +0.057 HD
ATOM     55  H   UNL     1     -12.380   2.806  16.331  0.00  0.00    +0.059 HD
ATOM     56  H   UNL     1     -14.549   3.007  17.502  0.00  0.00    +0.064 HD
ATOM     57  H   UNL     1     -12.241   3.373  19.497  0.00  0.00    +0.032 HD
ATOM     58  H   UNL     1     -13.809   2.768  19.899  0.00  0.00    +0.032 HD
ATOM     59  H   UNL     1     -13.138   1.025  17.811  0.00  0.00    +0.060 HD
ENDROOT
BRANCH   1  60
ATOM     60  C   UNL     1     -10.280   1.252  19.807  0.00  0.00    -0.057 C 
ATOM     61  H   UNL     1     -10.423   2.167  20.394  0.00  0.00    +0.024 HD
ATOM     62  H   UNL     1     -10.595   0.411  20.432  0.00  0.00    +0.024 HD
ATOM     63  H   UNL     1      -9.208   1.142  19.618  0.00  0.00    +0.024 HD
ENDBRANCH   1  60
BRANCH  26  64
ATOM     64  C   UNL     1     -10.652   3.682  14.649  0.00  0.00    -0.056 C 
ATOM     65  H   UNL     1     -10.352   3.093  15.517  0.00  0.00    +0.024 HD
ATOM     66  H   UNL     1     -11.330   3.066  14.047  0.00  0.00    +0.024 HD
ATOM     67  H   UNL     1      -9.733   3.846  14.076  0.00  0.00    +0.024 HD
ENDBRANCH  26  64
BRANCH  18  68
ATOM     68  C   UNL     1      -6.689   6.237   9.416  0.00  0.00    -0.043 C 
ATOM     69  H   UNL     1      -5.595   6.257   9.364  0.00  0.00    +0.027 HD
ATOM     70  H   UNL     1      -7.001   6.858  10.264  0.00  0.00    +0.027 HD
ATOM     71  H   UNL     1      -7.070   6.708   8.507  0.00  0.00    +0.027 HD
ENDBRANCH  18  68
BRANCH   7  72
ATOM     72  C   UNL     1      -6.775  -2.383  14.034  0.00  0.00    -0.057 C 
ATOM     73  H   UNL     1      -6.963  -2.354  15.113  0.00  0.00    +0.023 HD
ATOM     74  H   UNL     1      -7.386  -3.182  13.603  0.00  0.00    +0.023 HD
ATOM     75  H   UNL     1      -5.723  -2.658  13.905  0.00  0.00    +0.023 HD
ENDBRANCH   7  72
BRANCH  25  76
ATOM     76  C   UNL     1      -9.155   5.987  16.313  0.00  0.00    +0.020 C 
ATOM     77  H   UNL     1      -9.555   5.267  17.041  0.00  0.00    +0.036 HD
BRANCH  76  78
ATOM     78  C   UNL     1      -7.914   5.268  15.745  0.00  0.00    -0.057 C 
ATOM     79  H   UNL     1      -8.098   4.191  15.667  0.00  0.00    +0.023 HD
ATOM     80  H   UNL     1      -7.035   5.384  16.383  0.00  0.00    +0.023 HD
ATOM     81  H   UNL     1      -7.668   5.621  14.741  0.00  0.00    +0.023 HD
ENDBRANCH  76  78
BRANCH  76  82
ATOM     82  C   UNL     1      -8.798   7.261  17.126  0.00  0.00    +0.067 C 
ATOM     83  H   UNL     1      -9.718   7.848  17.213  0.00  0.00    +0.060 HD
BRANCH  82  84
ATOM     84  C   UNL     1      -7.689   8.207  16.563  0.00  0.00    -0.017 C 
ATOM     85  H   UNL     1      -7.386   7.833  15.580  0.00  0.00    +0.032 HD
BRANCH  84  86
ATOM     86  C   UNL     1      -8.328   9.591  16.342  0.00  0.00    -0.060 C 
ATOM     87  H   UNL     1      -7.980  10.313  17.086  0.00  0.00    +0.023 HD
ATOM     88  H   UNL     1      -8.093   9.991  15.352  0.00  0.00    +0.023 HD
ATOM     89  H   UNL     1      -9.414   9.547  16.452  0.00  0.00    +0.023 HD
ENDBRANCH  84  86
BRANCH  84  90
ATOM     90  C   UNL     1      -6.431   8.310  17.463  0.00  0.00    -0.041 C 
ATOM     91  H   UNL     1      -5.545   8.050  16.876  0.00  0.00    +0.027 HD
ATOM     92  H   UNL     1      -6.507   7.560  18.260  0.00  0.00    +0.027 HD
BRANCH  90  93
ATOM     93  C   UNL     1      -6.161   9.650  18.151  0.00  0.00    +0.007 C 
ATOM     94  H   UNL     1      -5.690   9.430  19.122  0.00  0.00    +0.034 HD
ATOM     95  H   UNL     1      -7.061  10.218  18.404  0.00  0.00    +0.034 HD
BRANCH  93  96
ATOM     96  C   UNL     1      -5.181  10.551  17.421  0.00  0.00    +0.139 C 
ATOM     97  O   UNL     1      -4.650  10.154  16.380  0.00  0.00    -0.297 OA
BRANCH  96  98
ATOM     98  C   UNL     1      -4.861  11.914  18.031  0.00  0.00    +0.041 C 
ATOM     99  H   UNL     1      -3.811  12.137  17.818  0.00  0.00    +0.040 HD
BRANCH  98 100
ATOM    100  C   UNL     1      -5.020  11.819  19.547  0.00  0.00    -0.053 C 
ATOM    101  H   UNL     1      -5.735  12.553  19.929  0.00  0.00    +0.024 HD
ATOM    102  H   UNL     1      -4.058  11.982  20.044  0.00  0.00    +0.024 HD
ATOM    103  H   UNL     1      -5.385  10.830  19.839  0.00  0.00    +0.024 HD
ENDBRANCH  98 100
BRANCH  98 104
ATOM    104  C   UNL     1      -5.717  13.056  17.423  0.00  0.00    +0.071 C 
ATOM    105  H   UNL     1      -6.028  12.721  16.423  0.00  0.00    +0.061 HD
BRANCH 104 106
ATOM    106  C   UNL     1      -6.983  13.382  18.252  0.00  0.00    -0.006 C 
ATOM    107  H   UNL     1      -6.989  12.805  19.185  0.00  0.00    +0.033 HD
ATOM    108  H   UNL     1      -6.946  14.429  18.579  0.00  0.00    +0.033 HD
BRANCH 106 109
ATOM    109  C   UNL     1      -8.269  13.123  17.506  0.00  0.00    -0.067 C 
ATOM    110  C   UNL     1      -8.855  14.037  16.720  0.00  0.00    -0.005 C 
ATOM    111  H   UNL     1      -8.703  12.142  17.649  0.00  0.00    +0.059 HD
ATOM    112  H   UNL     1      -8.388  15.020  16.626  0.00  0.00    +0.078 HD
BRANCH 110 113
ATOM    113  N   UNL     1     -10.013  13.888  15.971  0.00  0.00    -0.284 N 
ATOM    114  C   UNL     1     -10.377  12.742  15.270  0.00  0.00    +0.206 C 
ATOM    115  O   UNL     1     -11.375  12.610  14.569  0.00  0.00    -0.279 OA
ATOM    116  H   UNL     1      -9.674  11.905  15.383  0.00  0.00    +0.126 HD
BRANCH 113 117
ATOM    117  C   UNL     1     -10.909  15.035  15.895  0.00  0.00    +0.007 C 
ATOM    118  H   UNL     1     -10.366  15.930  16.223  0.00  0.00    +0.043 HD
ATOM    119  H   UNL     1     -11.245  15.169  14.860  0.00  0.00    +0.043 HD
ATOM    120  H   UNL     1     -11.792  14.916  16.530  0.00  0.00    +0.043 HD
ENDBRANCH 113 117
ENDBRANCH 110 113
ENDBRANCH 106 109
ENDBRANCH 104 106
BRANCH 104 121
ATOM    121  O   UNL     1      -4.909  14.229  17.271  0.00  0.00    -0.379 OA
BRANCH 121 122
ATOM    122  C   UNL     1      -5.301  15.314  18.099  0.00  0.00    +0.037 C 
ATOM    123  H   UNL     1      -6.300  15.674  17.839  0.00  0.00    +0.052 HD
ATOM    124  H   UNL     1      -4.577  16.129  18.027  0.00  0.00    +0.052 HD
ATOM    125  H   UNL     1      -5.321  14.963  19.135  0.00  0.00    +0.052 HD
ENDBRANCH 121 122
ENDBRANCH 104 121
ENDBRANCH  98 104
ENDBRANCH  96  98
ENDBRANCH  93  96
ENDBRANCH  90  93
ENDBRANCH  84  90
ENDBRANCH  82  84
BRANCH  82 126
ATOM    126  O   UNL     1      -8.407   6.873  18.458  0.00  0.00    -0.379 OA
BRANCH 126 127
ATOM    127  C   UNL     1      -9.307   7.317  19.462  0.00  0.00    +0.037 C 
ATOM    128  H   UNL     1     -10.224   7.689  18.995  0.00  0.00    +0.052 HD
ATOM    129  H   UNL     1      -9.538   6.515  20.170  0.00  0.00    +0.052 HD
ATOM    130  H   UNL     1      -8.836   8.141  20.006  0.00  0.00    +0.052 HD
ENDBRANCH 126 127
ENDBRANCH  82 126
ENDBRANCH  76  82
ENDBRANCH  25  76
BRANCH  31 131
ATOM    131  O   UNL     1     -12.974   0.457  19.791  0.00  0.00    -0.379 OA
BRANCH 131 132
ATOM    132  C   UNL     1     -13.945   0.995  20.681  0.00  0.00    +0.037 C 
ATOM    133  H   UNL     1     -13.560   1.903  21.157  0.00  0.00    +0.052 HD
ATOM    134  H   UNL     1     -14.230   0.266  21.442  0.00  0.00    +0.052 HD
ATOM    135  H   UNL     1     -14.831   1.256  20.100  0.00  0.00    +0.052 HD
ENDBRANCH 131 132
ENDBRANCH  31 131
BRANCH  29 136
ATOM    136  O   UNL     1     -14.122   4.858  18.346  0.00  0.00    -0.376 OA
BRANCH 136 137
ATOM    137  C   UNL     1     -13.705   5.137  19.678  0.00  0.00    +0.037 C 
ATOM    138  H   UNL     1     -13.935   4.300  20.343  0.00  0.00    +0.052 HD
ATOM    139  H   UNL     1     -12.623   5.295  19.671  0.00  0.00    +0.052 HD
ATOM    140  H   UNL     1     -14.180   6.055  20.044  0.00  0.00    +0.052 HD
ENDBRANCH 136 137
ENDBRANCH  29 136
BRANCH  16 141
ATOM    141  O   UNL     1      -6.134   1.603   7.746  0.00  0.00    -0.379 OA
BRANCH 141 142
ATOM    142  C   UNL     1      -7.132   0.965   6.960  0.00  0.00    +0.037 C 
ATOM    143  H   UNL     1      -6.892   1.125   5.906  0.00  0.00    +0.052 HD
ATOM    144  H   UNL     1      -7.131  -0.110   7.160  0.00  0.00    +0.052 HD
ATOM    145  H   UNL     1      -8.125   1.382   7.159  0.00  0.00    +0.052 HD
ENDBRANCH 141 142
ENDBRANCH  16 141
BRANCH   6 146
ATOM    146  O   UNL     1      -8.217   1.109  13.930  0.00  0.00    -0.379 OA
BRANCH 146 147
ATOM    147  C   UNL     1      -7.425   1.955  14.756  0.00  0.00    +0.037 C 
ATOM    148  H   UNL     1      -6.439   1.499  14.860  0.00  0.00    +0.052 HD
ATOM    149  H   UNL     1      -7.305   2.938  14.288  0.00  0.00    +0.052 HD
ATOM    150  H   UNL     1      -7.862   2.061  15.752  0.00  0.00    +0.052 HD
ENDBRANCH 146 147
ENDBRANCH   6 146
BRANCH   4 151
ATOM    151  O   UNL     1     -11.494  -1.775  15.220  0.00  0.00    -0.376 OA
BRANCH 151 152
ATOM    152  C   UNL     1     -12.266  -0.997  14.314  0.00  0.00    +0.037 C 
ATOM    153  H   UNL     1     -12.248  -1.492  13.337  0.00  0.00    +0.052 HD
ATOM    154  H   UNL     1     -11.845   0.007  14.202  0.00  0.00    +0.052 HD
ATOM    155  H   UNL     1     -13.304  -0.937  14.652  0.00  0.00    +0.052 HD
ENDBRANCH 151 152
ENDBRANCH   4 151
TORSDOF 33
ENDMDL
MODEL 9
REMARK VINA RESULT:      -5.0      6.112     12.469
REMARK  Name = Reidispongiolide A_conf1
REMARK  33 active torsions:
REMARK  status: ('A' for Active; 'I' for Inactive)
REMARK    1  A    between atoms: C_1  and  C_2
REMARK    2  A    between atoms: C_5  and  O_67
REMARK    3  A    between atoms: C_7  and  O_65
REMARK    4  A    between atoms: C_8  and  C_64
REMARK    5  A    between atoms: C_17  and  O_62
REMARK    6  A    between atoms: C_19  and  C_61
REMARK    7  A    between atoms: C_26  and  C_38
REMARK    8  A    between atoms: C_27  and  C_37
REMARK    9  A    between atoms: C_30  and  O_35
REMARK   10  A    between atoms: C_32  and  O_33
REMARK   11  A    between atoms: O_33  and  C_34
REMARK   12  A    between atoms: O_35  and  C_36
REMARK   13  A    between atoms: C_38  and  C_39
REMARK   14  A    between atoms: C_38  and  C_40
REMARK   15  A    between atoms: C_40  and  C_41
REMARK   16  A    between atoms: C_40  and  O_59
REMARK   17  A    between atoms: C_41  and  C_42
REMARK   18  A    between atoms: C_41  and  C_43
REMARK   19  A    between atoms: C_43  and  C_44
REMARK   20  A    between atoms: C_44  and  C_45
REMARK   21  A    between atoms: C_45  and  C_47
REMARK   22  A    between atoms: C_47  and  C_48
REMARK   23  A    between atoms: C_47  and  C_49
REMARK   24  A    between atoms: C_49  and  C_50
REMARK   25  A    between atoms: C_49  and  O_57
REMARK   26  A    between atoms: C_50  and  C_51
REMARK   27  A    between atoms: C_52  and  N_53
REMARK   28  A    between atoms: N_53  and  C_54
REMARK   29  A    between atoms: O_57  and  C_58
REMARK   30  A    between atoms: O_59  and  C_60
REMARK   31  A    between atoms: O_62  and  C_63
REMARK   32  A    between atoms: O_65  and  C_66
REMARK   33  A    between atoms: O_67  and  C_68
REMARK                            x       y       z     vdW  Elec       q    Type
REMARK                         _______ _______ _______ _____ _____    ______ ____
ROOT
ATOM      1  C   UNL     1      -8.470   3.476  15.302  0.00  0.00    +0.001 C 
ATOM      2  C   UNL     1      -8.246   3.140  13.839  0.00  0.00    -0.080 C 
ATOM      3  C   UNL     1      -8.942   3.679  12.824  0.00  0.00    -0.059 C 
ATOM      4  C   UNL     1      -8.752   3.302  11.380  0.00  0.00    +0.079 C 
ATOM      5  C   UNL     1      -9.251   4.366  10.385  0.00  0.00    +0.004 C 
ATOM      6  C   UNL     1      -8.466   5.694  10.414  0.00  0.00    +0.067 C 
ATOM      7  C   UNL     1      -8.020   6.179   8.996  0.00  0.00    +0.020 C 
ATOM      8  C   UNL     1      -9.159   6.258   7.929  0.00  0.00    +0.112 C 
ATOM      9  C   UNL     1     -10.200   7.372   8.110  0.00  0.00    +0.006 C 
ATOM     10  C   UNL     1      -9.712   8.696   7.584  0.00  0.00    -0.057 C 
ATOM     11  C   UNL     1      -8.717   8.732   6.685  0.00  0.00    +0.022 C 
ATOM     12  C   UNL     1      -8.135   7.511   6.107  0.00  0.00    +0.332 C 
ATOM     13  O   UNL     1      -7.323   7.574   5.194  0.00  0.00    -0.246 OA
ATOM     14  O   UNL     1      -8.582   6.332   6.601  0.00  0.00    -0.458 OA
ATOM     15  C   UNL     1     -10.388   9.961   8.077  0.00  0.00    -0.004 C 
ATOM     16  C   UNL     1     -11.884  10.055   7.681  0.00  0.00    +0.066 C 
ATOM     17  C   UNL     1     -12.597  11.234   8.398  0.00  0.00    -0.005 C 
ATOM     18  C   UNL     1     -12.768  11.184   9.914  0.00  0.00    -0.070 C 
ATOM     19  C   UNL     1     -12.569  10.058  10.623  0.00  0.00    -0.062 C 
ATOM     20  C   UNL     1     -12.545   9.872  12.048  0.00  0.00    -0.055 C 
ATOM     21  C   UNL     1     -13.566  10.022  12.909  0.00  0.00    +0.023 C 
ATOM     22  C   UNL     1     -13.463   9.544  14.310  0.00  0.00    +0.332 C 
ATOM     23  O   UNL     1     -14.430   9.383  15.034  0.00  0.00    -0.246 OA
ATOM     24  O   UNL     1     -12.183   9.222  14.601  0.00  0.00    -0.457 OA
ATOM     25  C   UNL     1     -11.906   8.316  15.707  0.00  0.00    +0.114 C 
ATOM     26  C   UNL     1     -12.262   6.871  15.201  0.00  0.00    +0.012 C 
ATOM     27  C   UNL     1     -12.165   5.777  16.247  0.00  0.00    -0.079 C 
ATOM     28  C   UNL     1     -11.651   4.546  16.060  0.00  0.00    -0.059 C 
ATOM     29  C   UNL     1     -11.522   3.425  17.062  0.00  0.00    +0.079 C 
ATOM     30  C   UNL     1     -10.060   2.962  17.259  0.00  0.00    +0.004 C 
ATOM     31  C   UNL     1      -9.402   2.415  15.970  0.00  0.00    +0.067 C 
ATOM     32  H   UNL     1      -8.956   4.456  15.350  0.00  0.00    +0.037 HD
ATOM     33  H   UNL     1      -7.500   2.373  13.630  0.00  0.00    +0.057 HD
ATOM     34  H   UNL     1      -9.724   4.403  13.028  0.00  0.00    +0.059 HD
ATOM     35  H   UNL     1      -7.690   3.100  11.175  0.00  0.00    +0.064 HD
ATOM     36  H   UNL     1     -10.320   4.550  10.551  0.00  0.00    +0.032 HD
ATOM     37  H   UNL     1      -9.190   3.894   9.399  0.00  0.00    +0.032 HD
ATOM     38  H   UNL     1      -7.565   5.562  11.030  0.00  0.00    +0.060 HD
ATOM     39  H   UNL     1      -7.596   7.187   9.089  0.00  0.00    +0.036 HD
ATOM     40  H   UNL     1      -9.710   5.311   7.931  0.00  0.00    +0.074 HD
ATOM     41  H   UNL     1     -10.511   7.460   9.152  0.00  0.00    +0.035 HD
ATOM     42  H   UNL     1     -11.100   7.107   7.536  0.00  0.00    +0.035 HD
ATOM     43  H   UNL     1      -8.344   9.660   6.269  0.00  0.00    +0.069 HD
ATOM     44  H   UNL     1     -10.258   9.998   9.164  0.00  0.00    +0.034 HD
ATOM     45  H   UNL     1      -9.862  10.837   7.674  0.00  0.00    +0.034 HD
ATOM     46  H   UNL     1     -12.396   9.113   7.909  0.00  0.00    +0.060 HD
ATOM     47  H   UNL     1     -12.047  12.151   8.136  0.00  0.00    +0.034 HD
ATOM     48  H   UNL     1     -13.595  11.366   7.958  0.00  0.00    +0.034 HD
ATOM     49  H   UNL     1     -12.282   9.139  10.110  0.00  0.00    +0.062 HD
ATOM     50  H   UNL     1     -11.598   9.458  12.389  0.00  0.00    +0.062 HD
ATOM     51  H   UNL     1     -14.545  10.364  12.598  0.00  0.00    +0.069 HD
ATOM     52  H   UNL     1     -12.551   8.587  16.550  0.00  0.00    +0.074 HD
ATOM     53  H   UNL     1     -13.330   6.903  14.932  0.00  0.00    +0.038 HD
ATOM     54  H   UNL     1     -12.583   6.017  17.222  0.00  0.00    +0.057 HD
ATOM     55  H   UNL     1     -11.303   4.271  15.068  0.00  0.00    +0.059 HD
ATOM     56  H   UNL     1     -12.119   2.584  16.681  0.00  0.00    +0.064 HD
ATOM     57  H   UNL     1      -9.474   3.791  17.673  0.00  0.00    +0.032 HD
ATOM     58  H   UNL     1     -10.039   2.202  18.050  0.00  0.00    +0.032 HD
ATOM     59  H   UNL     1     -10.181   2.117  15.253  0.00  0.00    +0.060 HD
ENDROOT
BRANCH   1  60
ATOM     60  C   UNL     1      -7.108   3.603  15.998  0.00  0.00    -0.057 C 
ATOM     61  H   UNL     1      -7.029   2.940  16.867  0.00  0.00    +0.024 HD
ATOM     62  H   UNL     1      -6.299   3.339  15.311  0.00  0.00    +0.024 HD
ATOM     63  H   UNL     1      -6.931   4.627  16.343  0.00  0.00    +0.024 HD
ENDBRANCH   1  60
BRANCH  26  64
ATOM     64  C   UNL     1     -11.533   6.537  13.886  0.00  0.00    -0.056 C 
ATOM     65  H   UNL     1     -11.254   5.484  13.824  0.00  0.00    +0.024 HD
ATOM     66  H   UNL     1     -12.151   6.771  13.012  0.00  0.00    +0.024 HD
ATOM     67  H   UNL     1     -10.592   7.092  13.803  0.00  0.00    +0.024 HD
ENDBRANCH  26  64
BRANCH  18  68
ATOM     68  C   UNL     1     -13.133  12.515  10.520  0.00  0.00    -0.043 C 
ATOM     69  H   UNL     1     -12.646  13.323   9.962  0.00  0.00    +0.027 HD
ATOM     70  H   UNL     1     -12.789  12.564  11.560  0.00  0.00    +0.027 HD
ATOM     71  H   UNL     1     -14.206  12.715  10.520  0.00  0.00    +0.027 HD
ENDBRANCH  18  68
BRANCH   7  72
ATOM     72  C   UNL     1      -6.864   5.280   8.518  0.00  0.00    -0.057 C 
ATOM     73  H   UNL     1      -5.901   5.680   8.853  0.00  0.00    +0.023 HD
ATOM     74  H   UNL     1      -6.961   4.259   8.900  0.00  0.00    +0.023 HD
ATOM     75  H   UNL     1      -6.821   5.228   7.425  0.00  0.00    +0.023 HD
ENDBRANCH   7  72
BRANCH  25  76
ATOM     76  C   UNL     1     -10.418   8.596  16.086  0.00  0.00    +0.020 C 
ATOM     77  H   UNL     1      -9.835   7.719  15.770  0.00  0.00    +0.036 HD
BRANCH  76  78
ATOM     78  C   UNL     1      -9.850   9.736  15.216  0.00  0.00    -0.057 C 
ATOM     79  H   UNL     1      -9.193   9.333  14.439  0.00  0.00    +0.023 HD
ATOM     80  H   UNL     1      -9.248  10.442  15.793  0.00  0.00    +0.023 HD
ATOM     81  H   UNL     1     -10.644  10.287  14.705  0.00  0.00    +0.023 HD
ENDBRANCH  76  78
BRANCH  76  82
ATOM     82  C   UNL     1     -10.120   8.782  17.599  0.00  0.00    +0.067 C 
ATOM     83  H   UNL     1      -9.552   9.713  17.697  0.00  0.00    +0.060 HD
BRANCH  82  84
ATOM     84  C   UNL     1      -9.317   7.662  18.334  0.00  0.00    -0.017 C 
ATOM     85  H   UNL     1      -8.641   8.139  19.051  0.00  0.00    +0.032 HD
BRANCH  84  86
ATOM     86  C   UNL     1     -10.323   6.827  19.148  0.00  0.00    -0.060 C 
ATOM     87  H   UNL     1      -9.822   6.027  19.700  0.00  0.00    +0.023 HD
ATOM     88  H   UNL     1     -10.867   7.442  19.871  0.00  0.00    +0.023 HD
ATOM     89  H   UNL     1     -11.047   6.334  18.495  0.00  0.00    +0.023 HD
ENDBRANCH  84  86
BRANCH  84  90
ATOM     90  C   UNL     1      -8.480   6.761  17.388  0.00  0.00    -0.041 C 
ATOM     91  H   UNL     1      -9.021   6.628  16.447  0.00  0.00    +0.027 HD
ATOM     92  H   UNL     1      -8.393   5.765  17.840  0.00  0.00    +0.027 HD
BRANCH  90  93
ATOM     93  C   UNL     1      -7.057   7.214  17.054  0.00  0.00    +0.007 C 
ATOM     94  H   UNL     1      -7.092   7.693  16.063  0.00  0.00    +0.034 HD
ATOM     95  H   UNL     1      -6.338   6.397  16.941  0.00  0.00    +0.034 HD
BRANCH  93  96
ATOM     96  C   UNL     1      -6.490   8.264  17.992  0.00  0.00    +0.139 C 
ATOM     97  O   UNL     1      -6.303   7.982  19.179  0.00  0.00    -0.297 OA
BRANCH  96  98
ATOM     98  C   UNL     1      -6.203   9.654  17.430  0.00  0.00    +0.041 C 
ATOM     99  H   UNL     1      -7.131  10.037  16.994  0.00  0.00    +0.040 HD
BRANCH  98 100
ATOM    100  C   UNL     1      -5.178   9.523  16.305  0.00  0.00    -0.053 C 
ATOM    101  H   UNL     1      -4.172   9.795  16.635  0.00  0.00    +0.024 HD
ATOM    102  H   UNL     1      -5.451  10.167  15.461  0.00  0.00    +0.024 HD
ATOM    103  H   UNL     1      -5.131   8.493  15.940  0.00  0.00    +0.024 HD
ENDBRANCH  98 100
BRANCH  98 104
ATOM    104  C   UNL     1      -5.747  10.658  18.522  0.00  0.00    +0.071 C 
ATOM    105  H   UNL     1      -5.286  10.064  19.325  0.00  0.00    +0.061 HD
BRANCH 104 106
ATOM    106  C   UNL     1      -4.713  11.690  18.013  0.00  0.00    -0.006 C 
ATOM    107  H   UNL     1      -3.776  11.190  17.737  0.00  0.00    +0.033 HD
ATOM    108  H   UNL     1      -5.071  12.136  17.076  0.00  0.00    +0.033 HD
BRANCH 106 109
ATOM    109  C   UNL     1      -4.412  12.779  19.014  0.00  0.00    -0.067 C 
ATOM    110  C   UNL     1      -3.618  13.825  18.741  0.00  0.00    -0.005 C 
ATOM    111  H   UNL     1      -4.877  12.663  19.985  0.00  0.00    +0.059 HD
ATOM    112  H   UNL     1      -3.156  13.884  17.754  0.00  0.00    +0.078 HD
BRANCH 110 113
ATOM    113  N   UNL     1      -3.307  14.887  19.576  0.00  0.00    -0.284 N 
ATOM    114  C   UNL     1      -2.825  16.125  19.161  0.00  0.00    +0.206 C 
ATOM    115  O   UNL     1      -2.505  17.058  19.890  0.00  0.00    -0.279 OA
ATOM    116  H   UNL     1      -2.739  16.229  18.070  0.00  0.00    +0.126 HD
BRANCH 113 117
ATOM    117  C   UNL     1      -3.478  14.680  21.010  0.00  0.00    +0.007 C 
ATOM    118  H   UNL     1      -2.534  14.306  21.426  0.00  0.00    +0.043 HD
ATOM    119  H   UNL     1      -3.738  15.631  21.488  0.00  0.00    +0.043 HD
ATOM    120  H   UNL     1      -4.265  13.954  21.234  0.00  0.00    +0.043 HD
ENDBRANCH 113 117
ENDBRANCH 110 113
ENDBRANCH 106 109
ENDBRANCH 104 106
BRANCH 104 121
ATOM    121  O   UNL     1      -6.892  11.329  19.062  0.00  0.00    -0.379 OA
BRANCH 121 122
ATOM    122  C   UNL     1      -7.848  11.720  18.087  0.00  0.00    +0.037 C 
ATOM    123  H   UNL     1      -8.322  12.668  18.351  0.00  0.00    +0.052 HD
ATOM    124  H   UNL     1      -8.606  10.942  17.964  0.00  0.00    +0.052 HD
ATOM    125  H   UNL     1      -7.329  11.849  17.133  0.00  0.00    +0.052 HD
ENDBRANCH 121 122
ENDBRANCH 104 121
ENDBRANCH  98 104
ENDBRANCH  96  98
ENDBRANCH  93  96
ENDBRANCH  90  93
ENDBRANCH  84  90
ENDBRANCH  82  84
BRANCH  82 126
ATOM    126  O   UNL     1     -11.365   8.962  18.303  0.00  0.00    -0.379 OA
BRANCH 126 127
ATOM    127  C   UNL     1     -11.541  10.275  18.813  0.00  0.00    +0.037 C 
ATOM    128  H   UNL     1     -12.235  10.828  18.174  0.00  0.00    +0.052 HD
ATOM    129  H   UNL     1     -11.906  10.254  19.845  0.00  0.00    +0.052 HD
ATOM    130  H   UNL     1     -10.572  10.784  18.793  0.00  0.00    +0.052 HD
ENDBRANCH 126 127
ENDBRANCH  82 126
ENDBRANCH  76  82
ENDBRANCH  25  76
BRANCH  31 131
ATOM    131  O   UNL     1      -8.614   1.250  16.285  0.00  0.00    -0.379 OA
BRANCH 131 132
ATOM    132  C   UNL     1      -8.830   0.770  17.607  0.00  0.00    +0.037 C 
ATOM    133  H   UNL     1      -8.152  -0.062  17.824  0.00  0.00    +0.052 HD
ATOM    134  H   UNL     1      -9.866   0.454  17.747  0.00  0.00    +0.052 HD
ATOM    135  H   UNL     1      -8.618   1.584  18.303  0.00  0.00    +0.052 HD
ENDBRANCH 131 132
ENDBRANCH  31 131
BRANCH  29 136
ATOM    136  O   UNL     1     -12.051   3.861  18.320  0.00  0.00    -0.376 OA
BRANCH 136 137
ATOM    137  C   UNL     1     -11.535   3.115  19.416  0.00  0.00    +0.037 C 
ATOM    138  H   UNL     1     -12.335   2.834  20.108  0.00  0.00    +0.052 HD
ATOM    139  H   UNL     1     -11.073   2.206  19.023  0.00  0.00    +0.052 HD
ATOM    140  H   UNL     1     -10.764   3.690  19.942  0.00  0.00    +0.052 HD
ENDBRANCH 136 137
ENDBRANCH  29 136
BRANCH  16 141
ATOM    141  O   UNL     1     -11.932  10.286   6.258  0.00  0.00    -0.379 OA
BRANCH 141 142
ATOM    142  C   UNL     1     -11.457  11.574   5.888  0.00  0.00    +0.037 C 
ATOM    143  H   UNL     1     -12.278  12.287   6.001  0.00  0.00    +0.052 HD
ATOM    144  H   UNL     1     -10.640  11.873   6.553  0.00  0.00    +0.052 HD
ATOM    145  H   UNL     1     -11.118  11.592   4.847  0.00  0.00    +0.052 HD
ENDBRANCH 141 142
ENDBRANCH  16 141
BRANCH   6 146
ATOM    146  O   UNL     1      -9.303   6.677  11.044  0.00  0.00    -0.379 OA
BRANCH 146 147
ATOM    147  C   UNL     1      -8.662   7.935  11.222  0.00  0.00    +0.037 C 
ATOM    148  H   UNL     1      -7.585   7.762  11.268  0.00  0.00    +0.052 HD
ATOM    149  H   UNL     1      -8.872   8.592  10.372  0.00  0.00    +0.052 HD
ATOM    150  H   UNL     1      -8.974   8.412  12.155  0.00  0.00    +0.052 HD
ENDBRANCH 146 147
ENDBRANCH   6 146
BRANCH   4 151
ATOM    151  O   UNL     1      -9.554   2.134  11.147  0.00  0.00    -0.376 OA
BRANCH 151 152
ATOM    152  C   UNL     1      -8.793   1.032  10.670  0.00  0.00    +0.037 C 
ATOM    153  H   UNL     1      -9.464   0.367  10.116  0.00  0.00    +0.052 HD
ATOM    154  H   UNL     1      -8.356   0.470  11.501  0.00  0.00    +0.052 HD
ATOM    155  H   UNL     1      -8.008   1.376   9.990  0.00  0.00    +0.052 HD
ENDBRANCH 151 152
ENDBRANCH   4 151
TORSDOF 33
ENDMDL
MODEL 10
REMARK VINA RESULT:      -4.9      1.986      2.553
REMARK  Name = Reidispongiolide A_conf1
REMARK  33 active torsions:
REMARK  status: ('A' for Active; 'I' for Inactive)
REMARK    1  A    between atoms: C_1  and  C_2
REMARK    2  A    between atoms: C_5  and  O_67
REMARK    3  A    between atoms: C_7  and  O_65
REMARK    4  A    between atoms: C_8  and  C_64
REMARK    5  A    between atoms: C_17  and  O_62
REMARK    6  A    between atoms: C_19  and  C_61
REMARK    7  A    between atoms: C_26  and  C_38
REMARK    8  A    between atoms: C_27  and  C_37
REMARK    9  A    between atoms: C_30  and  O_35
REMARK   10  A    between atoms: C_32  and  O_33
REMARK   11  A    between atoms: O_33  and  C_34
REMARK   12  A    between atoms: O_35  and  C_36
REMARK   13  A    between atoms: C_38  and  C_39
REMARK   14  A    between atoms: C_38  and  C_40
REMARK   15  A    between atoms: C_40  and  C_41
REMARK   16  A    between atoms: C_40  and  O_59
REMARK   17  A    between atoms: C_41  and  C_42
REMARK   18  A    between atoms: C_41  and  C_43
REMARK   19  A    between atoms: C_43  and  C_44
REMARK   20  A    between atoms: C_44  and  C_45
REMARK   21  A    between atoms: C_45  and  C_47
REMARK   22  A    between atoms: C_47  and  C_48
REMARK   23  A    between atoms: C_47  and  C_49
REMARK   24  A    between atoms: C_49  and  C_50
REMARK   25  A    between atoms: C_49  and  O_57
REMARK   26  A    between atoms: C_50  and  C_51
REMARK   27  A    between atoms: C_52  and  N_53
REMARK   28  A    between atoms: N_53  and  C_54
REMARK   29  A    between atoms: O_57  and  C_58
REMARK   30  A    between atoms: O_59  and  C_60
REMARK   31  A    between atoms: O_62  and  C_63
REMARK   32  A    between atoms: O_65  and  C_66
REMARK   33  A    between atoms: O_67  and  C_68
REMARK                            x       y       z     vdW  Elec       q    Type
REMARK                         _______ _______ _______ _____ _____    ______ ____
ROOT
ATOM      1  C   UNL     1      -8.928  13.405  24.023  0.00  0.00    +0.001 C 
ATOM      2  C   UNL     1      -9.261  12.811  25.380  0.00  0.00    -0.080 C 
ATOM      3  C   UNL     1     -10.082  11.765  25.567  0.00  0.00    -0.059 C 
ATOM      4  C   UNL     1     -10.451  11.214  26.918  0.00  0.00    +0.079 C 
ATOM      5  C   UNL     1     -10.956   9.760  26.884  0.00  0.00    +0.004 C 
ATOM      6  C   UNL     1      -9.900   8.720  26.456  0.00  0.00    +0.067 C 
ATOM      7  C   UNL     1      -9.814   7.495  27.424  0.00  0.00    +0.020 C 
ATOM      8  C   UNL     1     -11.172   6.783  27.722  0.00  0.00    +0.112 C 
ATOM      9  C   UNL     1     -11.796   5.977  26.573  0.00  0.00    +0.006 C 
ATOM     10  C   UNL     1     -11.187   4.607  26.442  0.00  0.00    -0.057 C 
ATOM     11  C   UNL     1     -10.545   4.059  27.485  0.00  0.00    +0.022 C 
ATOM     12  C   UNL     1     -10.491   4.708  28.804  0.00  0.00    +0.332 C 
ATOM     13  O   UNL     1     -10.013   4.127  29.770  0.00  0.00    -0.246 OA
ATOM     14  O   UNL     1     -11.037   5.943  28.897  0.00  0.00    -0.458 OA
ATOM     15  C   UNL     1     -11.343   3.872  25.126  0.00  0.00    -0.004 C 
ATOM     16  C   UNL     1     -12.816   3.539  24.775  0.00  0.00    +0.066 C 
ATOM     17  C   UNL     1     -12.958   3.005  23.324  0.00  0.00    -0.005 C 
ATOM     18  C   UNL     1     -12.655   3.943  22.158  0.00  0.00    -0.070 C 
ATOM     19  C   UNL     1     -12.529   5.272  22.318  0.00  0.00    -0.062 C 
ATOM     20  C   UNL     1     -12.109   6.267  21.370  0.00  0.00    -0.055 C 
ATOM     21  C   UNL     1     -12.741   6.642  20.246  0.00  0.00    +0.023 C 
ATOM     22  C   UNL     1     -12.328   7.860  19.504  0.00  0.00    +0.332 C 
ATOM     23  O   UNL     1     -13.030   8.406  18.670  0.00  0.00    -0.246 OA
ATOM     24  O   UNL     1     -11.142   8.310  19.970  0.00  0.00    -0.457 OA
ATOM     25  C   UNL     1     -10.766   9.700  19.747  0.00  0.00    +0.114 C 
ATOM     26  C   UNL     1     -11.606  10.557  20.762  0.00  0.00    +0.012 C 
ATOM     27  C   UNL     1     -11.460  12.060  20.615  0.00  0.00    -0.079 C 
ATOM     28  C   UNL     1     -11.350  12.947  21.622  0.00  0.00    -0.059 C 
ATOM     29  C   UNL     1     -11.194  14.446  21.535  0.00  0.00    +0.079 C 
ATOM     30  C   UNL     1      -9.905  14.957  22.218  0.00  0.00    +0.004 C 
ATOM     31  C   UNL     1      -9.836  14.641  23.731  0.00  0.00    +0.067 C 
ATOM     32  H   UNL     1      -9.118  12.637  23.266  0.00  0.00    +0.037 HD
ATOM     33  H   UNL     1      -8.830  13.315  26.245  0.00  0.00    +0.057 HD
ATOM     34  H   UNL     1     -10.559  11.292  24.714  0.00  0.00    +0.059 HD
ATOM     35  H   UNL     1      -9.589  11.271  27.599  0.00  0.00    +0.064 HD
ATOM     36  H   UNL     1     -11.841   9.696  26.237  0.00  0.00    +0.032 HD
ATOM     37  H   UNL     1     -11.324   9.556  27.895  0.00  0.00    +0.032 HD
ATOM     38  H   UNL     1      -8.914   9.205  26.427  0.00  0.00    +0.060 HD
ATOM     39  H   UNL     1      -9.148   6.745  26.979  0.00  0.00    +0.036 HD
ATOM     40  H   UNL     1     -11.909   7.537  28.014  0.00  0.00    +0.074 HD
ATOM     41  H   UNL     1     -11.737   6.520  25.629  0.00  0.00    +0.035 HD
ATOM     42  H   UNL     1     -12.867   5.838  26.786  0.00  0.00    +0.035 HD
ATOM     43  H   UNL     1     -10.103   3.070  27.441  0.00  0.00    +0.069 HD
ATOM     44  H   UNL     1     -10.876   4.488  24.350  0.00  0.00    +0.034 HD
ATOM     45  H   UNL     1     -10.770   2.935  25.160  0.00  0.00    +0.034 HD
ATOM     46  H   UNL     1     -13.447   4.425  24.912  0.00  0.00    +0.060 HD
ATOM     47  H   UNL     1     -12.309   2.120  23.241  0.00  0.00    +0.034 HD
ATOM     48  H   UNL     1     -13.978   2.623  23.184  0.00  0.00    +0.034 HD
ATOM     49  H   UNL     1     -12.651   5.712  23.309  0.00  0.00    +0.062 HD
ATOM     50  H   UNL     1     -11.235   6.817  21.716  0.00  0.00    +0.062 HD
ATOM     51  H   UNL     1     -13.653   6.169  19.903  0.00  0.00    +0.069 HD
ATOM     52  H   UNL     1     -11.029   9.972  18.718  0.00  0.00    +0.074 HD
ATOM     53  H   UNL     1     -12.662  10.357  20.522  0.00  0.00    +0.038 HD
ATOM     54  H   UNL     1     -11.482  12.439  19.595  0.00  0.00    +0.057 HD
ATOM     55  H   UNL     1     -11.406  12.585  22.645  0.00  0.00    +0.059 HD
ATOM     56  H   UNL     1     -12.068  14.888  22.035  0.00  0.00    +0.064 HD
ATOM     57  H   UNL     1      -9.034  14.543  21.695  0.00  0.00    +0.032 HD
ATOM     58  H   UNL     1      -9.826  16.038  22.049  0.00  0.00    +0.032 HD
ATOM     59  H   UNL     1     -10.848  14.445  24.116  0.00  0.00    +0.060 HD
ENDROOT
BRANCH   1  60
ATOM     60  C   UNL     1      -7.430  13.735  23.978  0.00  0.00    -0.057 C 
ATOM     61  H   UNL     1      -7.125  14.370  24.818  0.00  0.00    +0.024 HD
ATOM     62  H   UNL     1      -6.832  12.820  24.025  0.00  0.00    +0.024 HD
ATOM     63  H   UNL     1      -7.166  14.258  23.053  0.00  0.00    +0.024 HD
ENDBRANCH   1  60
BRANCH  26  64
ATOM     64  C   UNL     1     -11.428  10.057  22.207  0.00  0.00    -0.056 C 
ATOM     65  H   UNL     1     -12.368  10.053  22.762  0.00  0.00    +0.024 HD
ATOM     66  H   UNL     1     -11.020   9.040  22.235  0.00  0.00    +0.024 HD
ATOM     67  H   UNL     1     -10.758  10.713  22.774  0.00  0.00    +0.024 HD
ENDBRANCH  26  64
BRANCH  18  68
ATOM     68  C   UNL     1     -12.474   3.225  20.845  0.00  0.00    -0.043 C 
ATOM     69  H   UNL     1     -11.427   2.927  20.725  0.00  0.00    +0.027 HD
ATOM     70  H   UNL     1     -12.737   3.888  20.012  0.00  0.00    +0.027 HD
ATOM     71  H   UNL     1     -13.086   2.325  20.752  0.00  0.00    +0.027 HD
ENDBRANCH  18  68
BRANCH   7  72
ATOM     72  C   UNL     1      -9.122   7.952  28.723  0.00  0.00    -0.057 C 
ATOM     73  H   UNL     1      -8.595   8.899  28.566  0.00  0.00    +0.023 HD
ATOM     74  H   UNL     1      -9.840   8.092  29.537  0.00  0.00    +0.023 HD
ATOM     75  H   UNL     1      -8.373   7.226  29.056  0.00  0.00    +0.023 HD
ENDBRANCH   7  72
BRANCH  25  76
ATOM     76  C   UNL     1      -9.214   9.721  19.904  0.00  0.00    +0.020 C 
ATOM     77  H   UNL     1      -8.978  10.471  20.672  0.00  0.00    +0.036 HD
BRANCH  76  78
ATOM     78  C   UNL     1      -8.722   8.400  20.532  0.00  0.00    -0.057 C 
ATOM     79  H   UNL     1      -8.249   8.591  21.501  0.00  0.00    +0.023 HD
ATOM     80  H   UNL     1      -7.972   7.899  19.916  0.00  0.00    +0.023 HD
ATOM     81  H   UNL     1      -9.547   7.708  20.713  0.00  0.00    +0.023 HD
ENDBRANCH  76  78
BRANCH  76  82
ATOM     82  C   UNL     1      -8.403  10.132  18.645  0.00  0.00    +0.067 C 
ATOM     83  H   UNL     1      -7.799   9.264  18.361  0.00  0.00    +0.060 HD
BRANCH  82  84
ATOM     84  C   UNL     1      -7.442  11.358  18.756  0.00  0.00    -0.017 C 
ATOM     85  H   UNL     1      -7.523  11.943  17.834  0.00  0.00    +0.032 HD
BRANCH  84  86
ATOM     86  C   UNL     1      -7.955  12.248  19.904  0.00  0.00    -0.060 C 
ATOM     87  H   UNL     1      -7.232  12.300  20.722  0.00  0.00    +0.023 HD
ATOM     88  H   UNL     1      -8.151  13.269  19.566  0.00  0.00    +0.023 HD
ATOM     89  H   UNL     1      -8.872  11.843  20.338  0.00  0.00    +0.023 HD
ENDBRANCH  84  86
BRANCH  84  90
ATOM     90  C   UNL     1      -5.953  10.976  18.970  0.00  0.00    -0.041 C 
ATOM     91  H   UNL     1      -5.785   9.962  18.595  0.00  0.00    +0.027 HD
ATOM     92  H   UNL     1      -5.751  10.947  20.048  0.00  0.00    +0.027 HD
BRANCH  90  93
ATOM     93  C   UNL     1      -4.892  11.889  18.351  0.00  0.00    +0.007 C 
ATOM     94  H   UNL     1      -5.289  12.243  17.387  0.00  0.00    +0.034 HD
ATOM     95  H   UNL     1      -3.955  11.384  18.097  0.00  0.00    +0.034 HD
BRANCH  93  96
ATOM     96  C   UNL     1      -4.593  13.144  19.151  0.00  0.00    +0.139 C 
ATOM     97  O   UNL     1      -4.072  13.045  20.266  0.00  0.00    -0.297 OA
BRANCH  96  98
ATOM     98  C   UNL     1      -4.984  14.493  18.552  0.00  0.00    +0.041 C 
ATOM     99  H   UNL     1      -5.822  14.888  19.135  0.00  0.00    +0.040 HD
BRANCH  98 100
ATOM    100  C   UNL     1      -5.475  14.266  17.123  0.00  0.00    -0.053 C 
ATOM    101  H   UNL     1      -4.913  14.862  16.399  0.00  0.00    +0.024 HD
ATOM    102  H   UNL     1      -6.536  14.527  17.037  0.00  0.00    +0.024 HD
ATOM    103  H   UNL     1      -5.363  13.218  16.834  0.00  0.00    +0.024 HD
ENDBRANCH  98 100
BRANCH  98 104
ATOM    104  C   UNL     1      -3.834  15.532  18.617  0.00  0.00    +0.071 C 
ATOM    105  H   UNL     1      -3.526  15.597  19.671  0.00  0.00    +0.061 HD
BRANCH 104 106
ATOM    106  C   UNL     1      -2.603  15.139  17.764  0.00  0.00    -0.006 C 
ATOM    107  H   UNL     1      -2.824  14.252  17.159  0.00  0.00    +0.033 HD
ATOM    108  H   UNL     1      -2.400  15.928  17.029  0.00  0.00    +0.033 HD
BRANCH 106 109
ATOM    109  C   UNL     1      -1.365  14.877  18.587  0.00  0.00    -0.067 C 
ATOM    110  C   UNL     1      -0.252  14.328  18.079  0.00  0.00    -0.005 C 
ATOM    111  H   UNL     1      -1.429  15.157  19.631  0.00  0.00    +0.059 HD
ATOM    112  H   UNL     1      -0.246  14.044  17.025  0.00  0.00    +0.078 HD
BRANCH 110 113
ATOM    113  N   UNL     1       0.941  14.077  18.739  0.00  0.00    -0.284 N 
ATOM    114  C   UNL     1       1.849  13.074  18.412  0.00  0.00    +0.206 C 
ATOM    115  O   UNL     1       2.887  12.813  19.012  0.00  0.00    -0.279 OA
ATOM    116  H   UNL     1       1.567  12.487  17.526  0.00  0.00    +0.126 HD
BRANCH 113 117
ATOM    117  C   UNL     1       1.257  14.920  19.887  0.00  0.00    +0.007 C 
ATOM    118  H   UNL     1       0.849  15.923  19.710  0.00  0.00    +0.043 HD
ATOM    119  H   UNL     1       0.805  14.494  20.790  0.00  0.00    +0.043 HD
ATOM    120  H   UNL     1       2.335  15.011  20.052  0.00  0.00    +0.043 HD
ENDBRANCH 113 117
ENDBRANCH 110 113
ENDBRANCH 106 109
ENDBRANCH 104 106
BRANCH 104 121
ATOM    121  O   UNL     1      -4.326  16.815  18.214  0.00  0.00    -0.379 OA
BRANCH 121 122
ATOM    122  C   UNL     1      -4.729  17.646  19.293  0.00  0.00    +0.037 C 
ATOM    123  H   UNL     1      -4.294  17.312  20.238  0.00  0.00    +0.052 HD
ATOM    124  H   UNL     1      -5.819  17.670  19.368  0.00  0.00    +0.052 HD
ATOM    125  H   UNL     1      -4.377  18.662  19.092  0.00  0.00    +0.052 HD
ENDBRANCH 121 122
ENDBRANCH 104 121
ENDBRANCH  98 104
ENDBRANCH  96  98
ENDBRANCH  93  96
ENDBRANCH  90  93
ENDBRANCH  84  90
ENDBRANCH  82  84
BRANCH  82 126
ATOM    126  O   UNL     1      -9.319  10.390  17.562  0.00  0.00    -0.379 OA
BRANCH 126 127
ATOM    127  C   UNL     1      -8.825   9.983  16.295  0.00  0.00    +0.037 C 
ATOM    128  H   UNL     1      -7.947   9.346  16.431  0.00  0.00    +0.052 HD
ATOM    129  H   UNL     1      -9.593   9.456  15.721  0.00  0.00    +0.052 HD
ATOM    130  H   UNL     1      -8.522  10.876  15.741  0.00  0.00    +0.052 HD
ENDBRANCH 126 127
ENDBRANCH  82 126
ENDBRANCH  76  82
ENDBRANCH  25  76
BRANCH  31 131
ATOM    131  O   UNL     1      -9.302  15.778  24.439  0.00  0.00    -0.379 OA
BRANCH 131 132
ATOM    132  C   UNL     1      -9.326  16.976  23.672  0.00  0.00    +0.037 C 
ATOM    133  H   UNL     1      -9.097  17.838  24.307  0.00  0.00    +0.052 HD
ATOM    134  H   UNL     1     -10.296  17.115  23.188  0.00  0.00    +0.052 HD
ATOM    135  H   UNL     1      -8.560  16.900  22.898  0.00  0.00    +0.052 HD
ENDBRANCH 131 132
ENDBRANCH  31 131
BRANCH  29 136
ATOM    136  O   UNL     1     -11.182  14.833  20.156  0.00  0.00    -0.376 OA
BRANCH 136 137
ATOM    137  C   UNL     1     -10.018  15.575  19.809  0.00  0.00    +0.037 C 
ATOM    138  H   UNL     1      -9.990  15.777  18.734  0.00  0.00    +0.052 HD
ATOM    139  H   UNL     1     -10.048  16.527  20.346  0.00  0.00    +0.052 HD
ATOM    140  H   UNL     1      -9.115  15.038  20.117  0.00  0.00    +0.052 HD
ENDBRANCH 136 137
ENDBRANCH  29 136
BRANCH  16 141
ATOM    141  O   UNL     1     -13.246   2.509  25.688  0.00  0.00    -0.379 OA
BRANCH 141 142
ATOM    142  C   UNL     1     -12.616   1.257  25.449  0.00  0.00    +0.037 C 
ATOM    143  H   UNL     1     -11.565   1.342  25.736  0.00  0.00    +0.052 HD
ATOM    144  H   UNL     1     -13.085   0.482  26.064  0.00  0.00    +0.052 HD
ATOM    145  H   UNL     1     -12.669   0.978  24.391  0.00  0.00    +0.052 HD
ENDBRANCH 141 142
ENDBRANCH  16 141
BRANCH   6 146
ATOM    146  O   UNL     1     -10.232   8.290  25.126  0.00  0.00    -0.379 OA
BRANCH 146 147
ATOM    147  C   UNL     1      -9.296   7.366  24.582  0.00  0.00    +0.037 C 
ATOM    148  H   UNL     1      -9.855   6.584  24.064  0.00  0.00    +0.052 HD
ATOM    149  H   UNL     1      -8.646   7.866  23.856  0.00  0.00    +0.052 HD
ATOM    150  H   UNL     1      -8.697   6.898  25.367  0.00  0.00    +0.052 HD
ENDBRANCH 146 147
ENDBRANCH   6 146
BRANCH   4 151
ATOM    151  O   UNL     1     -11.547  12.004  27.404  0.00  0.00    -0.376 OA
BRANCH 151 152
ATOM    152  C   UNL     1     -11.244  12.673  28.620  0.00  0.00    +0.037 C 
ATOM    153  H   UNL     1     -12.070  13.354  28.852  0.00  0.00    +0.052 HD
ATOM    154  H   UNL     1     -10.326  13.262  28.526  0.00  0.00    +0.052 HD
ATOM    155  H   UNL     1     -11.149  11.954  29.439  0.00  0.00    +0.052 HD
ENDBRANCH 151 152
ENDBRANCH   4 151
TORSDOF 33
ENDMDL
