MODEL 1
REMARK VINA RESULT:      -6.0      0.000      0.000
REMARK  Name = Reidispongiolide A_conf2
REMARK  33 active torsions:
REMARK  status: ('A' for Active; 'I' for Inactive)
REMARK    1  A    between atoms: C_1  and  C_2
REMARK    2  A    between atoms: C_5  and  O_67
REMARK    3  A    between atoms: C_7  and  O_65
REMARK    4  A    between atoms: C_8  and  C_64
REMARK    5  A    between atoms: C_17  and  O_62
REMARK    6  A    between atoms: C_19  and  C_61
REMARK    7  A    between atoms: C_26  and  C_38
REMARK    8  A    between atoms: C_27  and  C_37
REMARK    9  A    between atoms: C_30  and  O_35
REMARK   10  A    between atoms: C_32  and  O_33
REMARK   11  A    between atoms: O_33  and  C_34
REMARK   12  A    between atoms: O_35  and  C_36
REMARK   13  A    between atoms: C_38  and  C_39
REMARK   14  A    between atoms: C_38  and  C_40
REMARK   15  A    between atoms: C_40  and  C_41
REMARK   16  A    between atoms: C_40  and  O_59
REMARK   17  A    between atoms: C_41  and  C_42
REMARK   18  A    between atoms: C_41  and  C_43
REMARK   19  A    between atoms: C_43  and  C_44
REMARK   20  A    between atoms: C_44  and  C_45
REMARK   21  A    between atoms: C_45  and  C_47
REMARK   22  A    between atoms: C_47  and  C_48
REMARK   23  A    between atoms: C_47  and  C_49
REMARK   24  A    between atoms: C_49  and  C_50
REMARK   25  A    between atoms: C_49  and  O_57
REMARK   26  A    between atoms: C_50  and  C_51
REMARK   27  A    between atoms: C_52  and  N_53
REMARK   28  A    between atoms: N_53  and  C_54
REMARK   29  A    between atoms: O_57  and  C_58
REMARK   30  A    between atoms: O_59  and  C_60
REMARK   31  A    between atoms: O_62  and  C_63
REMARK   32  A    between atoms: O_65  and  C_66
REMARK   33  A    between atoms: O_67  and  C_68
REMARK                            x       y       z     vdW  Elec       q    Type
REMARK                         _______ _______ _______ _____ _____    ______ ____
ROOT
ATOM      1  C   UNL     1     -10.193  16.785  20.002  0.00  0.00    +0.001 C 
ATOM      2  C   UNL     1      -9.271  16.357  21.130  0.00  0.00    -0.080 C 
ATOM      3  C   UNL     1      -8.690  15.146  21.233  0.00  0.00    -0.059 C 
ATOM      4  C   UNL     1      -7.776  14.651  22.328  0.00  0.00    +0.079 C 
ATOM      5  C   UNL     1      -8.147  13.220  22.785  0.00  0.00    +0.004 C 
ATOM      6  C   UNL     1      -9.258  13.112  23.847  0.00  0.00    +0.067 C 
ATOM      7  C   UNL     1     -10.586  12.415  23.423  0.00  0.00    +0.020 C 
ATOM      8  C   UNL     1     -10.590  10.914  23.007  0.00  0.00    +0.112 C 
ATOM      9  C   UNL     1     -10.149  10.590  21.574  0.00  0.00    +0.006 C 
ATOM     10  C   UNL     1     -10.197   9.110  21.331  0.00  0.00    -0.057 C 
ATOM     11  C   UNL     1     -10.098   8.279  22.387  0.00  0.00    +0.022 C 
ATOM     12  C   UNL     1      -9.848   8.761  23.762  0.00  0.00    +0.332 C 
ATOM     13  O   UNL     1      -9.565   7.974  24.653  0.00  0.00    -0.246 OA
ATOM     14  O   UNL     1      -9.878  10.105  23.955  0.00  0.00    -0.458 OA
ATOM     15  C   UNL     1     -10.191   8.580  19.910  0.00  0.00    -0.004 C 
ATOM     16  C   UNL     1     -11.429   8.843  19.017  0.00  0.00    +0.066 C 
ATOM     17  C   UNL     1     -11.471  10.233  18.323  0.00  0.00    -0.005 C 
ATOM     18  C   UNL     1     -10.165  10.731  17.717  0.00  0.00    -0.070 C 
ATOM     19  C   UNL     1      -9.564  11.824  18.225  0.00  0.00    -0.062 C 
ATOM     20  C   UNL     1      -8.310  12.430  17.851  0.00  0.00    -0.055 C 
ATOM     21  C   UNL     1      -7.138  11.776  17.748  0.00  0.00    +0.023 C 
ATOM     22  C   UNL     1      -5.842  12.460  17.524  0.00  0.00    +0.332 C 
ATOM     23  O   UNL     1      -4.804  11.856  17.311  0.00  0.00    -0.246 OA
ATOM     24  O   UNL     1      -5.984  13.794  17.669  0.00  0.00    -0.457 OA
ATOM     25  C   UNL     1      -4.800  14.644  17.639  0.00  0.00    +0.114 C 
ATOM     26  C   UNL     1      -5.063  15.690  16.514  0.00  0.00    +0.012 C 
ATOM     27  C   UNL     1      -6.409  16.386  16.622  0.00  0.00    -0.079 C 
ATOM     28  C   UNL     1      -6.593  17.589  17.188  0.00  0.00    -0.059 C 
ATOM     29  C   UNL     1      -7.896  18.342  17.209  0.00  0.00    +0.079 C 
ATOM     30  C   UNL     1      -8.642  18.176  18.539  0.00  0.00    +0.004 C 
ATOM     31  C   UNL     1      -9.469  16.877  18.623  0.00  0.00    +0.067 C 
ATOM     32  H   UNL     1     -10.558  17.791  20.255  0.00  0.00    +0.037 HD
ATOM     33  H   UNL     1      -9.098  17.100  21.907  0.00  0.00    +0.057 HD
ATOM     34  H   UNL     1      -8.852  14.435  20.428  0.00  0.00    +0.059 HD
ATOM     35  H   UNL     1      -6.785  14.606  21.865  0.00  0.00    +0.064 HD
ATOM     36  H   UNL     1      -8.376  12.632  21.897  0.00  0.00    +0.032 HD
ATOM     37  H   UNL     1      -7.225  12.777  23.194  0.00  0.00    +0.032 HD
ATOM     38  H   UNL     1      -9.512  14.125  24.188  0.00  0.00    +0.060 HD
ATOM     39  H   UNL     1     -11.194  12.419  24.341  0.00  0.00    +0.036 HD
ATOM     40  H   UNL     1     -11.647  10.604  23.088  0.00  0.00    +0.074 HD
ATOM     41  H   UNL     1      -9.126  10.906  21.365  0.00  0.00    +0.035 HD
ATOM     42  H   UNL     1     -10.823  11.102  20.886  0.00  0.00    +0.035 HD
ATOM     43  H   UNL     1     -10.069   7.201  22.279  0.00  0.00    +0.069 HD
ATOM     44  H   UNL     1     -10.052   7.491  19.955  0.00  0.00    +0.034 HD
ATOM     45  H   UNL     1      -9.276   8.932  19.417  0.00  0.00    +0.034 HD
ATOM     46  H   UNL     1     -12.330   8.738  19.640  0.00  0.00    +0.060 HD
ATOM     47  H   UNL     1     -11.848  10.966  19.047  0.00  0.00    +0.034 HD
ATOM     48  H   UNL     1     -12.220  10.232  17.518  0.00  0.00    +0.034 HD
ATOM     49  H   UNL     1     -10.064  12.366  19.029  0.00  0.00    +0.062 HD
ATOM     50  H   UNL     1      -8.343  13.517  17.762  0.00  0.00    +0.062 HD
ATOM     51  H   UNL     1      -7.066  10.702  17.867  0.00  0.00    +0.069 HD
ATOM     52  H   UNL     1      -3.916  14.050  17.370  0.00  0.00    +0.074 HD
ATOM     53  H   UNL     1      -4.286  16.456  16.508  0.00  0.00    +0.038 HD
ATOM     54  H   UNL     1      -7.255  15.869  16.176  0.00  0.00    +0.057 HD
ATOM     55  H   UNL     1      -5.743  18.104  17.637  0.00  0.00    +0.059 HD
ATOM     56  H   UNL     1      -8.543  18.038  16.375  0.00  0.00    +0.064 HD
ATOM     57  H   UNL     1      -9.318  19.034  18.664  0.00  0.00    +0.032 HD
ATOM     58  H   UNL     1      -7.931  18.226  19.371  0.00  0.00    +0.032 HD
ATOM     59  H   UNL     1      -8.797  16.020  18.492  0.00  0.00    +0.060 HD
ENDROOT
BRANCH   1  60
ATOM     60  C   UNL     1     -11.449  15.905  19.977  0.00  0.00    -0.057 C 
ATOM     61  H   UNL     1     -11.542  15.386  19.017  0.00  0.00    +0.024 HD
ATOM     62  H   UNL     1     -12.357  16.490  20.134  0.00  0.00    +0.024 HD
ATOM     63  H   UNL     1     -11.405  15.131  20.751  0.00  0.00    +0.024 HD
ENDBRANCH   1  60
BRANCH  26  64
ATOM     64  C   UNL     1      -4.978  15.011  15.136  0.00  0.00    -0.056 C 
ATOM     65  H   UNL     1      -5.529  14.067  15.115  0.00  0.00    +0.024 HD
ATOM     66  H   UNL     1      -3.935  14.801  14.875  0.00  0.00    +0.024 HD
ATOM     67  H   UNL     1      -5.393  15.661  14.358  0.00  0.00    +0.024 HD
ENDBRANCH  26  64
BRANCH  18  68
ATOM     68  C   UNL     1      -9.664   9.945  16.536  0.00  0.00    -0.043 C 
ATOM     69  H   UNL     1     -10.471   9.801  15.806  0.00  0.00    +0.027 HD
ATOM     70  H   UNL     1      -8.849  10.447  16.000  0.00  0.00    +0.027 HD
ATOM     71  H   UNL     1      -9.302   8.960  16.850  0.00  0.00    +0.027 HD
ENDBRANCH  18  68
BRANCH   7  72
ATOM     72  C   UNL     1     -11.364  13.272  22.423  0.00  0.00    -0.057 C 
ATOM     73  H   UNL     1     -12.443  13.174  22.591  0.00  0.00    +0.023 HD
ATOM     74  H   UNL     1     -11.163  12.949  21.393  0.00  0.00    +0.023 HD
ATOM     75  H   UNL     1     -11.100  14.329  22.501  0.00  0.00    +0.023 HD
ENDBRANCH   7  72
BRANCH  25  76
ATOM     76  C   UNL     1      -4.576  15.206  19.084  0.00  0.00    +0.020 C 
ATOM     77  H   UNL     1      -5.425  15.857  19.314  0.00  0.00    +0.036 HD
BRANCH  76  78
ATOM     78  C   UNL     1      -4.627  14.047  20.105  0.00  0.00    -0.057 C 
ATOM     79  H   UNL     1      -3.718  14.004  20.710  0.00  0.00    +0.023 HD
ATOM     80  H   UNL     1      -5.482  14.161  20.783  0.00  0.00    +0.023 HD
ATOM     81  H   UNL     1      -4.719  13.072  19.622  0.00  0.00    +0.023 HD
ENDBRANCH  76  78
BRANCH  76  82
ATOM     82  C   UNL     1      -3.233  15.981  19.295  0.00  0.00    +0.067 C 
ATOM     83  H   UNL     1      -3.172  16.734  18.497  0.00  0.00    +0.060 HD
BRANCH  82  84
ATOM     84  C   UNL     1      -1.965  15.069  19.190  0.00  0.00    -0.017 C 
ATOM     85  H   UNL     1      -2.243  14.045  19.463  0.00  0.00    +0.032 HD
BRANCH  84  86
ATOM     86  C   UNL     1      -1.482  15.016  17.731  0.00  0.00    -0.060 C 
ATOM     87  H   UNL     1      -0.432  15.314  17.656  0.00  0.00    +0.023 HD
ATOM     88  H   UNL     1      -2.051  15.707  17.101  0.00  0.00    +0.023 HD
ATOM     89  H   UNL     1      -1.585  14.011  17.307  0.00  0.00    +0.023 HD
ENDBRANCH  84  86
BRANCH  84  90
ATOM     90  C   UNL     1      -0.817  15.525  20.121  0.00  0.00    -0.041 C 
ATOM     91  H   UNL     1      -0.321  14.657  20.566  0.00  0.00    +0.027 HD
ATOM     92  H   UNL     1      -1.220  16.105  20.961  0.00  0.00    +0.027 HD
BRANCH  90  93
ATOM     93  C   UNL     1       0.249  16.350  19.403  0.00  0.00    +0.007 C 
ATOM     94  H   UNL     1       0.222  16.170  18.324  0.00  0.00    +0.034 HD
ATOM     95  H   UNL     1       0.086  17.424  19.546  0.00  0.00    +0.034 HD
BRANCH  93  96
ATOM     96  C   UNL     1       1.631  16.038  19.943  0.00  0.00    +0.139 C 
ATOM     97  O   UNL     1       2.415  16.954  20.203  0.00  0.00    -0.297 OA
BRANCH  96  98
ATOM     98  C   UNL     1       1.991  14.573  20.176  0.00  0.00    +0.041 C 
ATOM     99  H   UNL     1       1.132  13.978  19.839  0.00  0.00    +0.040 HD
BRANCH  98 100
ATOM    100  C   UNL     1       2.118  14.289  21.679  0.00  0.00    -0.053 C 
ATOM    101  H   UNL     1       1.593  15.044  22.276  0.00  0.00    +0.024 HD
ATOM    102  H   UNL     1       3.170  14.308  21.984  0.00  0.00    +0.024 HD
ATOM    103  H   UNL     1       1.719  13.305  21.943  0.00  0.00    +0.024 HD
ENDBRANCH  98 100
BRANCH  98 104
ATOM    104  C   UNL     1       3.223  14.119  19.357  0.00  0.00    +0.071 C 
ATOM    105  H   UNL     1       3.396  14.869  18.572  0.00  0.00    +0.061 HD
BRANCH 104 106
ATOM    106  C   UNL     1       4.517  13.941  20.193  0.00  0.00    -0.006 C 
ATOM    107  H   UNL     1       4.288  13.519  21.180  0.00  0.00    +0.033 HD
ATOM    108  H   UNL     1       5.177  13.205  19.719  0.00  0.00    +0.033 HD
BRANCH 106 109
ATOM    109  C   UNL     1       5.289  15.224  20.307  0.00  0.00    -0.067 C 
ATOM    110  C   UNL     1       5.543  15.839  21.470  0.00  0.00    -0.005 C 
ATOM    111  H   UNL     1       5.635  15.643  19.367  0.00  0.00    +0.059 HD
ATOM    112  H   UNL     1       5.203  15.369  22.392  0.00  0.00    +0.078 HD
BRANCH 110 113
ATOM    113  N   UNL     1       6.195  17.048  21.644  0.00  0.00    -0.284 N 
ATOM    114  C   UNL     1       7.520  17.194  22.049  0.00  0.00    +0.206 C 
ATOM    115  O   UNL     1       8.365  16.330  22.244  0.00  0.00    -0.279 OA
ATOM    116  H   UNL     1       7.794  18.257  22.174  0.00  0.00    +0.126 HD
BRANCH 113 117
ATOM    117  C   UNL     1       5.456  18.243  21.254  0.00  0.00    +0.007 C 
ATOM    118  H   UNL     1       6.093  19.118  21.418  0.00  0.00    +0.043 HD
ATOM    119  H   UNL     1       5.179  18.175  20.198  0.00  0.00    +0.043 HD
ATOM    120  H   UNL     1       4.546  18.366  21.848  0.00  0.00    +0.043 HD
ENDBRANCH 113 117
ENDBRANCH 110 113
ENDBRANCH 106 109
ENDBRANCH 104 106
BRANCH 104 121
ATOM    121  O   UNL     1       2.896  12.871  18.717  0.00  0.00    -0.379 OA
BRANCH 121 122
ATOM    122  C   UNL     1       1.532  12.781  18.319  0.00  0.00    +0.037 C 
ATOM    123  H   UNL     1       1.424  12.024  17.537  0.00  0.00    +0.052 HD
ATOM    124  H   UNL     1       0.877  12.535  19.162  0.00  0.00    +0.052 HD
ATOM    125  H   UNL     1       1.233  13.748  17.910  0.00  0.00    +0.052 HD
ENDBRANCH 121 122
ENDBRANCH 104 121
ENDBRANCH  98 104
ENDBRANCH  96  98
ENDBRANCH  93  96
ENDBRANCH  90  93
ENDBRANCH  84  90
ENDBRANCH  82  84
BRANCH  82 126
ATOM    126  O   UNL     1      -3.195  16.630  20.565  0.00  0.00    -0.379 OA
BRANCH 126 127
ATOM    127  C   UNL     1      -4.292  17.509  20.783  0.00  0.00    +0.037 C 
ATOM    128  H   UNL     1      -3.957  18.529  20.579  0.00  0.00    +0.052 HD
ATOM    129  H   UNL     1      -5.121  17.272  20.113  0.00  0.00    +0.052 HD
ATOM    130  H   UNL     1      -4.625  17.454  21.824  0.00  0.00    +0.052 HD
ENDBRANCH 126 127
ENDBRANCH  82 126
ENDBRANCH  76  82
ENDBRANCH  25  76
BRANCH  31 131
ATOM    131  O   UNL     1     -10.436  16.913  17.561  0.00  0.00    -0.379 OA
BRANCH 131 132
ATOM    132  C   UNL     1     -10.386  15.775  16.709  0.00  0.00    +0.037 C 
ATOM    133  H   UNL     1     -10.913  15.958  15.768  0.00  0.00    +0.052 HD
ATOM    134  H   UNL     1      -9.336  15.563  16.483  0.00  0.00    +0.052 HD
ATOM    135  H   UNL     1     -10.812  14.903  17.211  0.00  0.00    +0.052 HD
ENDBRANCH 131 132
ENDBRANCH  31 131
BRANCH  29 136
ATOM    136  O   UNL     1      -7.572  19.734  17.076  0.00  0.00    -0.376 OA
BRANCH 136 137
ATOM    137  C   UNL     1      -6.301  19.939  16.469  0.00  0.00    +0.037 C 
ATOM    138  H   UNL     1      -5.498  19.553  17.107  0.00  0.00    +0.052 HD
ATOM    139  H   UNL     1      -6.155  21.014  16.334  0.00  0.00    +0.052 HD
ATOM    140  H   UNL     1      -6.265  19.456  15.486  0.00  0.00    +0.052 HD
ENDBRANCH 136 137
ENDBRANCH  29 136
BRANCH  16 141
ATOM    141  O   UNL     1     -11.449   7.793  18.028  0.00  0.00    -0.379 OA
BRANCH 141 142
ATOM    142  C   UNL     1     -10.544   6.727  18.294  0.00  0.00    +0.037 C 
ATOM    143  H   UNL     1     -10.146   6.310  17.365  0.00  0.00    +0.052 HD
ATOM    144  H   UNL     1      -9.708   7.127  18.871  0.00  0.00    +0.052 HD
ATOM    145  H   UNL     1     -11.024   5.942  18.885  0.00  0.00    +0.052 HD
ENDBRANCH 141 142
ENDBRANCH  16 141
BRANCH   6 146
ATOM    146  O   UNL     1      -8.668  12.410  24.956  0.00  0.00    -0.379 OA
BRANCH 146 147
ATOM    147  C   UNL     1      -8.658  13.153  26.169  0.00  0.00    +0.037 C 
ATOM    148  H   UNL     1      -7.719  13.697  26.300  0.00  0.00    +0.052 HD
ATOM    149  H   UNL     1      -9.475  13.876  26.133  0.00  0.00    +0.052 HD
ATOM    150  H   UNL     1      -8.825  12.488  27.023  0.00  0.00    +0.052 HD
ENDBRANCH 146 147
ENDBRANCH   6 146
BRANCH   4 151
ATOM    151  O   UNL     1      -7.722  15.590  23.401  0.00  0.00    -0.376 OA
BRANCH 151 152
ATOM    152  C   UNL     1      -6.431  16.167  23.573  0.00  0.00    +0.037 C 
ATOM    153  H   UNL     1      -5.983  15.838  24.516  0.00  0.00    +0.052 HD
ATOM    154  H   UNL     1      -5.793  15.828  22.752  0.00  0.00    +0.052 HD
ATOM    155  H   UNL     1      -6.483  17.258  23.538  0.00  0.00    +0.052 HD
ENDBRANCH 151 152
ENDBRANCH   4 151
TORSDOF 33
ENDMDL
MODEL 2
REMARK VINA RESULT:      -5.9      1.090      1.429
REMARK  Name = Reidispongiolide A_conf2
REMARK  33 active torsions:
REMARK  status: ('A' for Active; 'I' for Inactive)
REMARK    1  A    between atoms: C_1  and  C_2
REMARK    2  A    between atoms: C_5  and  O_67
REMARK    3  A    between atoms: C_7  and  O_65
REMARK    4  A    between atoms: C_8  and  C_64
REMARK    5  A    between atoms: C_17  and  O_62
REMARK    6  A    between atoms: C_19  and  C_61
REMARK    7  A    between atoms: C_26  and  C_38
REMARK    8  A    between atoms: C_27  and  C_37
REMARK    9  A    between atoms: C_30  and  O_35
REMARK   10  A    between atoms: C_32  and  O_33
REMARK   11  A    between atoms: O_33  and  C_34
REMARK   12  A    between atoms: O_35  and  C_36
REMARK   13  A    between atoms: C_38  and  C_39
REMARK   14  A    between atoms: C_38  and  C_40
REMARK   15  A    between atoms: C_40  and  C_41
REMARK   16  A    between atoms: C_40  and  O_59
REMARK   17  A    between atoms: C_41  and  C_42
REMARK   18  A    between atoms: C_41  and  C_43
REMARK   19  A    between atoms: C_43  and  C_44
REMARK   20  A    between atoms: C_44  and  C_45
REMARK   21  A    between atoms: C_45  and  C_47
REMARK   22  A    between atoms: C_47  and  C_48
REMARK   23  A    between atoms: C_47  and  C_49
REMARK   24  A    between atoms: C_49  and  C_50
REMARK   25  A    between atoms: C_49  and  O_57
REMARK   26  A    between atoms: C_50  and  C_51
REMARK   27  A    between atoms: C_52  and  N_53
REMARK   28  A    between atoms: N_53  and  C_54
REMARK   29  A    between atoms: O_57  and  C_58
REMARK   30  A    between atoms: O_59  and  C_60
REMARK   31  A    between atoms: O_62  and  C_63
REMARK   32  A    between atoms: O_65  and  C_66
REMARK   33  A    between atoms: O_67  and  C_68
REMARK                            x       y       z     vdW  Elec       q    Type
REMARK                         _______ _______ _______ _____ _____    ______ ____
ROOT
ATOM      1  C   UNL     1      -9.615  17.405  20.155  0.00  0.00    +0.001 C 
ATOM      2  C   UNL     1      -8.685  16.858  21.224  0.00  0.00    -0.080 C 
ATOM      3  C   UNL     1      -8.247  15.585  21.286  0.00  0.00    -0.059 C 
ATOM      4  C   UNL     1      -7.336  14.973  22.321  0.00  0.00    +0.079 C 
ATOM      5  C   UNL     1      -7.846  13.589  22.791  0.00  0.00    +0.004 C 
ATOM      6  C   UNL     1      -8.899  13.600  23.918  0.00  0.00    +0.067 C 
ATOM      7  C   UNL     1     -10.322  13.070  23.570  0.00  0.00    +0.020 C 
ATOM      8  C   UNL     1     -10.529  11.586  23.147  0.00  0.00    +0.112 C 
ATOM      9  C   UNL     1     -10.214  11.230  21.688  0.00  0.00    +0.006 C 
ATOM     10  C   UNL     1     -10.452   9.769  21.441  0.00  0.00    -0.057 C 
ATOM     11  C   UNL     1     -10.391   8.919  22.484  0.00  0.00    +0.022 C 
ATOM     12  C   UNL     1     -10.005   9.351  23.844  0.00  0.00    +0.332 C 
ATOM     13  O   UNL     1      -9.765   8.525  24.713  0.00  0.00    -0.246 OA
ATOM     14  O   UNL     1      -9.864  10.687  24.046  0.00  0.00    -0.458 OA
ATOM     15  C   UNL     1     -10.592   9.260  20.019  0.00  0.00    -0.004 C 
ATOM     16  C   UNL     1     -11.840   9.678  19.203  0.00  0.00    +0.066 C 
ATOM     17  C   UNL     1     -11.757  11.072  18.520  0.00  0.00    -0.005 C 
ATOM     18  C   UNL     1     -10.439  11.420  17.840  0.00  0.00    -0.070 C 
ATOM     19  C   UNL     1      -9.684  12.427  18.318  0.00  0.00    -0.062 C 
ATOM     20  C   UNL     1      -8.391  12.886  17.872  0.00  0.00    -0.055 C 
ATOM     21  C   UNL     1      -7.313  12.099  17.696  0.00  0.00    +0.023 C 
ATOM     22  C   UNL     1      -5.960  12.627  17.398  0.00  0.00    +0.332 C 
ATOM     23  O   UNL     1      -5.016  11.909  17.121  0.00  0.00    -0.246 OA
ATOM     24  O   UNL     1      -5.934  13.968  17.559  0.00  0.00    -0.457 OA
ATOM     25  C   UNL     1      -4.661  14.672  17.464  0.00  0.00    +0.114 C 
ATOM     26  C   UNL     1      -4.863  15.755  16.362  0.00  0.00    +0.012 C 
ATOM     27  C   UNL     1      -6.109  16.604  16.553  0.00  0.00    -0.079 C 
ATOM     28  C   UNL     1      -6.116  17.813  17.136  0.00  0.00    -0.059 C 
ATOM     29  C   UNL     1      -7.317  18.715  17.238  0.00  0.00    +0.079 C 
ATOM     30  C   UNL     1      -7.998  18.622  18.610  0.00  0.00    +0.004 C 
ATOM     31  C   UNL     1      -8.966  17.429  18.735  0.00  0.00    +0.067 C 
ATOM     32  H   UNL     1      -9.842  18.445  20.435  0.00  0.00    +0.037 HD
ATOM     33  H   UNL     1      -8.380  17.566  21.993  0.00  0.00    +0.057 HD
ATOM     34  H   UNL     1      -8.539  14.909  20.487  0.00  0.00    +0.059 HD
ATOM     35  H   UNL     1      -6.386  14.816  21.800  0.00  0.00    +0.064 HD
ATOM     36  H   UNL     1      -8.196  13.044  21.916  0.00  0.00    +0.032 HD
ATOM     37  H   UNL     1      -6.961  13.036  23.143  0.00  0.00    +0.032 HD
ATOM     38  H   UNL     1      -9.011  14.632  24.279  0.00  0.00    +0.060 HD
ATOM     39  H   UNL     1     -10.870  13.135  24.523  0.00  0.00    +0.036 HD
ATOM     40  H   UNL     1     -11.609  11.401  23.288  0.00  0.00    +0.074 HD
ATOM     41  H   UNL     1      -9.175  11.426  21.421  0.00  0.00    +0.035 HD
ATOM     42  H   UNL     1     -10.862  11.826  21.045  0.00  0.00    +0.035 HD
ATOM     43  H   UNL     1     -10.496   7.847  22.369  0.00  0.00    +0.069 HD
ATOM     44  H   UNL     1     -10.581   8.161  20.050  0.00  0.00    +0.034 HD
ATOM     45  H   UNL     1      -9.672   9.507  19.474  0.00  0.00    +0.034 HD
ATOM     46  H   UNL     1     -12.709   9.672  19.878  0.00  0.00    +0.060 HD
ATOM     47  H   UNL     1     -12.002  11.836  19.269  0.00  0.00    +0.034 HD
ATOM     48  H   UNL     1     -12.547  11.170  17.761  0.00  0.00    +0.034 HD
ATOM     49  H   UNL     1     -10.068  13.015  19.152  0.00  0.00    +0.062 HD
ATOM     50  H   UNL     1      -8.300  13.969  17.792  0.00  0.00    +0.062 HD
ATOM     51  H   UNL     1      -7.362  11.022  17.804  0.00  0.00    +0.069 HD
ATOM     52  H   UNL     1      -3.872  13.981  17.139  0.00  0.00    +0.074 HD
ATOM     53  H   UNL     1      -4.003  16.424  16.313  0.00  0.00    +0.038 HD
ATOM     54  H   UNL     1      -7.035  16.196  16.156  0.00  0.00    +0.057 HD
ATOM     55  H   UNL     1      -5.186  18.219  17.536  0.00  0.00    +0.059 HD
ATOM     56  H   UNL     1      -8.043  18.500  16.443  0.00  0.00    +0.064 HD
ATOM     57  H   UNL     1      -8.559  19.552  18.779  0.00  0.00    +0.032 HD
ATOM     58  H   UNL     1      -7.238  18.576  19.398  0.00  0.00    +0.032 HD
ATOM     59  H   UNL     1      -8.410  16.500  18.560  0.00  0.00    +0.060 HD
ENDROOT
BRANCH   1  60
ATOM     60  C   UNL     1     -10.965  16.680  20.200  0.00  0.00    -0.057 C 
ATOM     61  H   UNL     1     -11.700  17.261  20.767  0.00  0.00    +0.024 HD
ATOM     62  H   UNL     1     -10.881  15.695  20.663  0.00  0.00    +0.024 HD
ATOM     63  H   UNL     1     -11.376  16.547  19.193  0.00  0.00    +0.024 HD
ENDBRANCH   1  60
BRANCH  26  64
ATOM     64  C   UNL     1      -4.940  15.088  14.978  0.00  0.00    -0.056 C 
ATOM     65  H   UNL     1      -3.952  14.989  14.520  0.00  0.00    +0.024 HD
ATOM     66  H   UNL     1      -5.570  15.677  14.302  0.00  0.00    +0.024 HD
ATOM     67  H   UNL     1      -5.378  14.087  15.054  0.00  0.00    +0.024 HD
ENDBRANCH  26  64
BRANCH  18  68
ATOM     68  C   UNL     1     -10.105  10.595  16.627  0.00  0.00    -0.043 C 
ATOM     69  H   UNL     1     -10.819  10.801  15.819  0.00  0.00    +0.027 HD
ATOM     70  H   UNL     1      -9.109  10.811  16.221  0.00  0.00    +0.027 HD
ATOM     71  H   UNL     1     -10.147   9.525  16.861  0.00  0.00    +0.027 HD
ENDBRANCH  18  68
BRANCH   7  72
ATOM     72  C   UNL     1     -11.050  14.026  22.622  0.00  0.00    -0.057 C 
ATOM     73  H   UNL     1     -12.097  14.146  22.927  0.00  0.00    +0.023 HD
ATOM     74  H   UNL     1     -11.052  13.633  21.597  0.00  0.00    +0.023 HD
ATOM     75  H   UNL     1     -10.584  15.013  22.603  0.00  0.00    +0.023 HD
ENDBRANCH   7  72
BRANCH  25  76
ATOM     76  C   UNL     1      -4.288  15.185  18.895  0.00  0.00    +0.020 C 
ATOM     77  H   UNL     1      -5.138  15.767  19.263  0.00  0.00    +0.036 HD
BRANCH  76  78
ATOM     78  C   UNL     1      -4.136  13.983  19.854  0.00  0.00    -0.057 C 
ATOM     79  H   UNL     1      -4.064  13.039  19.308  0.00  0.00    +0.023 HD
ATOM     80  H   UNL     1      -3.235  14.087  20.472  0.00  0.00    +0.023 HD
ATOM     81  H   UNL     1      -4.987  13.881  20.530  0.00  0.00    +0.023 HD
ENDBRANCH  76  78
BRANCH  76  82
ATOM     82  C   UNL     1      -2.978  16.039  18.975  0.00  0.00    +0.067 C 
ATOM     83  H   UNL     1      -2.925  16.626  18.048  0.00  0.00    +0.060 HD
BRANCH  82  84
ATOM     84  C   UNL     1      -1.677  15.174  19.070  0.00  0.00    -0.017 C 
ATOM     85  H   UNL     1      -1.952  14.153  19.358  0.00  0.00    +0.032 HD
BRANCH  84  86
ATOM     86  C   UNL     1      -1.016  15.075  17.685  0.00  0.00    -0.060 C 
ATOM     87  H   UNL     1      -1.755  15.204  16.890  0.00  0.00    +0.023 HD
ATOM     88  H   UNL     1      -0.560  14.090  17.535  0.00  0.00    +0.023 HD
ATOM     89  H   UNL     1      -0.234  15.831  17.556  0.00  0.00    +0.023 HD
ENDBRANCH  84  86
BRANCH  84  90
ATOM     90  C   UNL     1      -0.669  15.717  20.110  0.00  0.00    -0.041 C 
ATOM     91  H   UNL     1      -1.164  15.871  21.074  0.00  0.00    +0.027 HD
ATOM     92  H   UNL     1      -0.302  16.703  19.801  0.00  0.00    +0.027 HD
BRANCH  90  93
ATOM     93  C   UNL     1       0.518  14.785  20.342  0.00  0.00    +0.007 C 
ATOM     94  H   UNL     1       0.481  14.346  21.344  0.00  0.00    +0.034 HD
ATOM     95  H   UNL     1       0.514  13.950  19.633  0.00  0.00    +0.034 HD
BRANCH  93  96
ATOM     96  C   UNL     1       1.830  15.520  20.150  0.00  0.00    +0.139 C 
ATOM     97  O   UNL     1       1.857  16.586  19.529  0.00  0.00    -0.297 OA
BRANCH  96  98
ATOM     98  C   UNL     1       3.084  14.914  20.773  0.00  0.00    +0.041 C 
ATOM     99  H   UNL     1       3.485  14.196  20.045  0.00  0.00    +0.040 HD
BRANCH  98 100
ATOM    100  C   UNL     1       2.716  14.079  22.007  0.00  0.00    -0.053 C 
ATOM    101  H   UNL     1       3.593  13.568  22.422  0.00  0.00    +0.024 HD
ATOM    102  H   UNL     1       1.984  13.307  21.742  0.00  0.00    +0.024 HD
ATOM    103  H   UNL     1       2.271  14.693  22.797  0.00  0.00    +0.024 HD
ENDBRANCH  98 100
BRANCH  98 104
ATOM    104  C   UNL     1       4.188  15.964  21.046  0.00  0.00    +0.071 C 
ATOM    105  H   UNL     1       3.888  16.899  20.553  0.00  0.00    +0.061 HD
BRANCH 104 106
ATOM    106  C   UNL     1       4.454  16.237  22.549  0.00  0.00    -0.006 C 
ATOM    107  H   UNL     1       3.820  17.055  22.914  0.00  0.00    +0.033 HD
ATOM    108  H   UNL     1       4.165  15.367  23.150  0.00  0.00    +0.033 HD
BRANCH 106 109
ATOM    109  C   UNL     1       5.908  16.503  22.820  0.00  0.00    -0.067 C 
ATOM    110  C   UNL     1       6.610  15.889  23.781  0.00  0.00    -0.005 C 
ATOM    111  H   UNL     1       6.370  17.248  22.179  0.00  0.00    +0.059 HD
ATOM    112  H   UNL     1       6.115  15.126  24.381  0.00  0.00    +0.078 HD
BRANCH 110 113
ATOM    113  N   UNL     1       7.931  16.126  24.122  0.00  0.00    -0.284 N 
ATOM    114  C   UNL     1       9.029  15.876  23.302  0.00  0.00    +0.206 C 
ATOM    115  O   UNL     1       9.050  15.495  22.138  0.00  0.00    -0.279 OA
ATOM    116  H   UNL     1       9.982  16.090  23.818  0.00  0.00    +0.126 HD
BRANCH 113 117
ATOM    117  C   UNL     1       8.160  16.797  25.396  0.00  0.00    +0.007 C 
ATOM    118  H   UNL     1       7.936  17.863  25.276  0.00  0.00    +0.043 HD
ATOM    119  H   UNL     1       7.511  16.363  26.162  0.00  0.00    +0.043 HD
ATOM    120  H   UNL     1       9.200  16.701  25.721  0.00  0.00    +0.043 HD
ENDBRANCH 113 117
ENDBRANCH 110 113
ENDBRANCH 106 109
ENDBRANCH 104 106
BRANCH 104 121
ATOM    121  O   UNL     1       5.404  15.504  20.426  0.00  0.00    -0.379 OA
BRANCH 121 122
ATOM    122  C   UNL     1       5.186  14.522  19.418  0.00  0.00    +0.037 C 
ATOM    123  H   UNL     1       5.063  15.009  18.446  0.00  0.00    +0.052 HD
ATOM    124  H   UNL     1       6.010  13.802  19.366  0.00  0.00    +0.052 HD
ATOM    125  H   UNL     1       4.264  13.988  19.658  0.00  0.00    +0.052 HD
ENDBRANCH 121 122
ENDBRANCH 104 121
ENDBRANCH  98 104
ENDBRANCH  96  98
ENDBRANCH  93  96
ENDBRANCH  90  93
ENDBRANCH  84  90
ENDBRANCH  82  84
BRANCH  82 126
ATOM    126  O   UNL     1      -2.994  16.921  20.096  0.00  0.00    -0.379 OA
BRANCH 126 127
ATOM    127  C   UNL     1      -4.185  17.695  20.189  0.00  0.00    +0.037 C 
ATOM    128  H   UNL     1      -5.037  17.027  20.043  0.00  0.00    +0.052 HD
ATOM    129  H   UNL     1      -4.271  18.162  21.172  0.00  0.00    +0.052 HD
ATOM    130  H   UNL     1      -4.205  18.461  19.407  0.00  0.00    +0.052 HD
ENDBRANCH 126 127
ENDBRANCH  82 126
ENDBRANCH  76  82
ENDBRANCH  25  76
BRANCH  31 131
ATOM    131  O   UNL     1      -9.983  17.592  17.734  0.00  0.00    -0.379 OA
BRANCH 131 132
ATOM    132  C   UNL     1     -10.193  16.428  16.943  0.00  0.00    +0.037 C 
ATOM    133  H   UNL     1     -11.174  15.986  17.136  0.00  0.00    +0.052 HD
ATOM    134  H   UNL     1     -10.143  16.717  15.889  0.00  0.00    +0.052 HD
ATOM    135  H   UNL     1      -9.409  15.691  17.135  0.00  0.00    +0.052 HD
ENDBRANCH 131 132
ENDBRANCH  31 131
BRANCH  29 136
ATOM    136  O   UNL     1      -6.837  20.060  17.094  0.00  0.00    -0.376 OA
BRANCH 136 137
ATOM    137  C   UNL     1      -5.647  20.131  16.317  0.00  0.00    +0.037 C 
ATOM    138  H   UNL     1      -5.850  20.568  15.333  0.00  0.00    +0.052 HD
ATOM    139  H   UNL     1      -5.267  19.116  16.178  0.00  0.00    +0.052 HD
ATOM    140  H   UNL     1      -4.885  20.721  16.840  0.00  0.00    +0.052 HD
ENDBRANCH 136 137
ENDBRANCH  29 136
BRANCH  16 141
ATOM    141  O   UNL     1     -12.043   8.651  18.211  0.00  0.00    -0.379 OA
BRANCH 141 142
ATOM    142  C   UNL     1     -11.258   7.481  18.418  0.00  0.00    +0.037 C 
ATOM    143  H   UNL     1     -11.085   6.954  17.476  0.00  0.00    +0.052 HD
ATOM    144  H   UNL     1     -10.290   7.788  18.818  0.00  0.00    +0.052 HD
ATOM    145  H   UNL     1     -11.732   6.812  19.142  0.00  0.00    +0.052 HD
ENDBRANCH 141 142
ENDBRANCH  16 141
BRANCH   6 146
ATOM    146  O   UNL     1      -8.332  12.820  24.986  0.00  0.00    -0.379 OA
BRANCH 146 147
ATOM    147  C   UNL     1      -8.746  13.231  26.283  0.00  0.00    +0.037 C 
ATOM    148  H   UNL     1      -7.895  13.520  26.905  0.00  0.00    +0.052 HD
ATOM    149  H   UNL     1      -9.404  14.095  26.173  0.00  0.00    +0.052 HD
ATOM    150  H   UNL     1      -9.310  12.430  26.773  0.00  0.00    +0.052 HD
ENDBRANCH 146 147
ENDBRANCH   6 146
BRANCH   4 151
ATOM    151  O   UNL     1      -7.108  15.884  23.394  0.00  0.00    -0.376 OA
BRANCH 151 152
ATOM    152  C   UNL     1      -5.809  16.469  23.364  0.00  0.00    +0.037 C 
ATOM    153  H   UNL     1      -5.851  17.519  23.671  0.00  0.00    +0.052 HD
ATOM    154  H   UNL     1      -5.176  15.928  24.074  0.00  0.00    +0.052 HD
ATOM    155  H   UNL     1      -5.363  16.380  22.371  0.00  0.00    +0.052 HD
ENDBRANCH 151 152
ENDBRANCH   4 151
TORSDOF 33
ENDMDL
MODEL 3
REMARK VINA RESULT:      -5.5      1.942      2.950
REMARK  Name = Reidispongiolide A_conf2
REMARK  33 active torsions:
REMARK  status: ('A' for Active; 'I' for Inactive)
REMARK    1  A    between atoms: C_1  and  C_2
REMARK    2  A    between atoms: C_5  and  O_67
REMARK    3  A    between atoms: C_7  and  O_65
REMARK    4  A    between atoms: C_8  and  C_64
REMARK    5  A    between atoms: C_17  and  O_62
REMARK    6  A    between atoms: C_19  and  C_61
REMARK    7  A    between atoms: C_26  and  C_38
REMARK    8  A    between atoms: C_27  and  C_37
REMARK    9  A    between atoms: C_30  and  O_35
REMARK   10  A    between atoms: C_32  and  O_33
REMARK   11  A    between atoms: O_33  and  C_34
REMARK   12  A    between atoms: O_35  and  C_36
REMARK   13  A    between atoms: C_38  and  C_39
REMARK   14  A    between atoms: C_38  and  C_40
REMARK   15  A    between atoms: C_40  and  C_41
REMARK   16  A    between atoms: C_40  and  O_59
REMARK   17  A    between atoms: C_41  and  C_42
REMARK   18  A    between atoms: C_41  and  C_43
REMARK   19  A    between atoms: C_43  and  C_44
REMARK   20  A    between atoms: C_44  and  C_45
REMARK   21  A    between atoms: C_45  and  C_47
REMARK   22  A    between atoms: C_47  and  C_48
REMARK   23  A    between atoms: C_47  and  C_49
REMARK   24  A    between atoms: C_49  and  C_50
REMARK   25  A    between atoms: C_49  and  O_57
REMARK   26  A    between atoms: C_50  and  C_51
REMARK   27  A    between atoms: C_52  and  N_53
REMARK   28  A    between atoms: N_53  and  C_54
REMARK   29  A    between atoms: O_57  and  C_58
REMARK   30  A    between atoms: O_59  and  C_60
REMARK   31  A    between atoms: O_62  and  C_63
REMARK   32  A    between atoms: O_65  and  C_66
REMARK   33  A    between atoms: O_67  and  C_68
REMARK                            x       y       z     vdW  Elec       q    Type
REMARK                         _______ _______ _______ _____ _____    ______ ____
ROOT
ATOM      1  C   UNL     1      -9.092  18.934  19.763  0.00  0.00    +0.001 C 
ATOM      2  C   UNL     1      -8.157  18.503  20.881  0.00  0.00    -0.080 C 
ATOM      3  C   UNL     1      -7.841  17.226  21.171  0.00  0.00    -0.059 C 
ATOM      4  C   UNL     1      -6.933  16.727  22.269  0.00  0.00    +0.079 C 
ATOM      5  C   UNL     1      -7.546  15.519  23.018  0.00  0.00    +0.004 C 
ATOM      6  C   UNL     1      -8.524  15.854  24.161  0.00  0.00    +0.067 C 
ATOM      7  C   UNL     1     -10.010  15.422  23.979  0.00  0.00    +0.020 C 
ATOM      8  C   UNL     1     -10.383  13.914  23.861  0.00  0.00    +0.112 C 
ATOM      9  C   UNL     1     -10.190  13.258  22.487  0.00  0.00    +0.006 C 
ATOM     10  C   UNL     1     -10.582  11.810  22.537  0.00  0.00    -0.057 C 
ATOM     11  C   UNL     1     -10.541  11.171  23.722  0.00  0.00    +0.022 C 
ATOM     12  C   UNL     1     -10.036  11.809  24.957  0.00  0.00    +0.332 C 
ATOM     13  O   UNL     1      -9.826  11.141  25.959  0.00  0.00    -0.246 OA
ATOM     14  O   UNL     1      -9.756  13.136  24.890  0.00  0.00    -0.458 OA
ATOM     15  C   UNL     1     -10.853  11.060  21.248  0.00  0.00    -0.004 C 
ATOM     16  C   UNL     1     -12.102  11.445  20.416  0.00  0.00    +0.066 C 
ATOM     17  C   UNL     1     -11.926  12.668  19.473  0.00  0.00    -0.005 C 
ATOM     18  C   UNL     1     -10.623  12.741  18.687  0.00  0.00    -0.070 C 
ATOM     19  C   UNL     1      -9.748  13.735  18.930  0.00  0.00    -0.062 C 
ATOM     20  C   UNL     1      -8.445  13.962  18.354  0.00  0.00    -0.055 C 
ATOM     21  C   UNL     1      -7.459  13.047  18.291  0.00  0.00    +0.023 C 
ATOM     22  C   UNL     1      -6.082  13.363  17.844  0.00  0.00    +0.332 C 
ATOM     23  O   UNL     1      -5.229  12.509  17.673  0.00  0.00    -0.246 OA
ATOM     24  O   UNL     1      -5.919  14.699  17.740  0.00  0.00    -0.457 OA
ATOM     25  C   UNL     1      -4.591  15.234  17.460  0.00  0.00    +0.114 C 
ATOM     26  C   UNL     1      -4.753  16.105  16.178  0.00  0.00    +0.012 C 
ATOM     27  C   UNL     1      -5.898  17.102  16.250  0.00  0.00    -0.079 C 
ATOM     28  C   UNL     1      -5.754  18.393  16.587  0.00  0.00    -0.059 C 
ATOM     29  C   UNL     1      -6.854  19.420  16.560  0.00  0.00    +0.079 C 
ATOM     30  C   UNL     1      -7.459  19.660  17.950  0.00  0.00    +0.004 C 
ATOM     31  C   UNL     1      -8.529  18.621  18.342  0.00  0.00    +0.067 C 
ATOM     32  H   UNL     1      -9.201  20.026  19.845  0.00  0.00    +0.037 HD
ATOM     33  H   UNL     1      -7.741  19.308  21.486  0.00  0.00    +0.057 HD
ATOM     34  H   UNL     1      -8.243  16.446  20.531  0.00  0.00    +0.059 HD
ATOM     35  H   UNL     1      -6.035  16.376  21.751  0.00  0.00    +0.064 HD
ATOM     36  H   UNL     1      -7.997  14.859  22.279  0.00  0.00    +0.032 HD
ATOM     37  H   UNL     1      -6.699  14.952  23.435  0.00  0.00    +0.032 HD
ATOM     38  H   UNL     1      -8.515  16.942  24.320  0.00  0.00    +0.060 HD
ATOM     39  H   UNL     1     -10.492  15.723  24.922  0.00  0.00    +0.036 HD
ATOM     40  H   UNL     1     -11.465  13.875  24.078  0.00  0.00    +0.074 HD
ATOM     41  H   UNL     1      -9.155  13.289  22.146  0.00  0.00    +0.035 HD
ATOM     42  H   UNL     1     -10.815  13.787  21.767  0.00  0.00    +0.035 HD
ATOM     43  H   UNL     1     -10.756  10.113  23.821  0.00  0.00    +0.069 HD
ATOM     44  H   UNL     1     -10.946   9.991  21.491  0.00  0.00    +0.034 HD
ATOM     45  H   UNL     1      -9.948  11.101  20.630  0.00  0.00    +0.034 HD
ATOM     46  H   UNL     1     -12.926  11.659  21.113  0.00  0.00    +0.060 HD
ATOM     47  H   UNL     1     -12.051  13.582  20.069  0.00  0.00    +0.034 HD
ATOM     48  H   UNL     1     -12.746  12.705  18.742  0.00  0.00    +0.034 HD
ATOM     49  H   UNL     1     -10.023  14.506  19.650  0.00  0.00    +0.062 HD
ATOM     50  H   UNL     1      -8.255  14.995  18.061  0.00  0.00    +0.062 HD
ATOM     51  H   UNL     1      -7.606  12.021  18.608  0.00  0.00    +0.069 HD
ATOM     52  H   UNL     1      -3.892  14.415  17.244  0.00  0.00    +0.074 HD
ATOM     53  H   UNL     1      -3.836  16.658  15.967  0.00  0.00    +0.038 HD
ATOM     54  H   UNL     1      -6.881  16.726  15.977  0.00  0.00    +0.057 HD
ATOM     55  H   UNL     1      -4.767  18.766  16.864  0.00  0.00    +0.059 HD
ATOM     56  H   UNL     1      -7.644  19.136  15.851  0.00  0.00    +0.064 HD
ATOM     57  H   UNL     1      -7.917  20.659  17.957  0.00  0.00    +0.032 HD
ATOM     58  H   UNL     1      -6.662  19.684  18.701  0.00  0.00    +0.032 HD
ATOM     59  H   UNL     1      -8.076  17.622  18.328  0.00  0.00    +0.060 HD
ENDROOT
BRANCH   1  60
ATOM     60  C   UNL     1     -10.500  18.378  20.001  0.00  0.00    -0.057 C 
ATOM     61  H   UNL     1     -10.661  18.164  21.064  0.00  0.00    +0.024 HD
ATOM     62  H   UNL     1     -10.672  17.456  19.441  0.00  0.00    +0.024 HD
ATOM     63  H   UNL     1     -11.267  19.102  19.705  0.00  0.00    +0.024 HD
ENDBRANCH   1  60
BRANCH  26  64
ATOM     64  C   UNL     1      -4.975  15.201  14.953  0.00  0.00    -0.056 C 
ATOM     65  H   UNL     1      -6.037  15.102  14.710  0.00  0.00    +0.024 HD
ATOM     66  H   UNL     1      -4.573  14.198  15.137  0.00  0.00    +0.024 HD
ATOM     67  H   UNL     1      -4.465  15.609  14.073  0.00  0.00    +0.024 HD
ENDBRANCH  26  64
BRANCH  18  68
ATOM     68  C   UNL     1     -10.442  11.671  17.644  0.00  0.00    -0.043 C 
ATOM     69  H   UNL     1     -11.130  10.836  17.833  0.00  0.00    +0.027 HD
ATOM     70  H   UNL     1     -10.654  12.022  16.627  0.00  0.00    +0.027 HD
ATOM     71  H   UNL     1      -9.416  11.284  17.660  0.00  0.00    +0.027 HD
ENDBRANCH  18  68
BRANCH   7  72
ATOM     72  C   UNL     1     -10.697  16.252  22.894  0.00  0.00    -0.057 C 
ATOM     73  H   UNL     1     -10.016  17.019  22.507  0.00  0.00    +0.023 HD
ATOM     74  H   UNL     1     -11.577  16.771  23.298  0.00  0.00    +0.023 HD
ATOM     75  H   UNL     1     -11.028  15.634  22.056  0.00  0.00    +0.023 HD
ENDBRANCH   7  72
BRANCH  25  76
ATOM     76  C   UNL     1      -4.086  15.966  18.749  0.00  0.00    +0.020 C 
ATOM     77  H   UNL     1      -4.775  16.795  18.942  0.00  0.00    +0.036 HD
BRANCH  76  78
ATOM     78  C   UNL     1      -4.199  15.016  19.963  0.00  0.00    -0.057 C 
ATOM     79  H   UNL     1      -4.699  14.082  19.697  0.00  0.00    +0.023 HD
ATOM     80  H   UNL     1      -3.206  14.769  20.358  0.00  0.00    +0.023 HD
ATOM     81  H   UNL     1      -4.778  15.452  20.778  0.00  0.00    +0.023 HD
ENDBRANCH  76  78
BRANCH  76  82
ATOM     82  C   UNL     1      -2.615  16.495  18.680  0.00  0.00    +0.067 C 
ATOM     83  H   UNL     1      -2.414  16.738  17.628  0.00  0.00    +0.060 HD
BRANCH  82  84
ATOM     84  C   UNL     1      -1.553  15.441  19.140  0.00  0.00    -0.017 C 
ATOM     85  H   UNL     1      -1.964  14.869  19.981  0.00  0.00    +0.032 HD
BRANCH  84  86
ATOM     86  C   UNL     1      -1.299  14.430  18.009  0.00  0.00    -0.060 C 
ATOM     87  H   UNL     1      -0.897  14.930  17.123  0.00  0.00    +0.023 HD
ATOM     88  H   UNL     1      -2.229  13.941  17.701  0.00  0.00    +0.023 HD
ATOM     89  H   UNL     1      -0.593  13.650  18.315  0.00  0.00    +0.023 HD
ENDBRANCH  84  86
BRANCH  84  90
ATOM     90  C   UNL     1      -0.223  16.086  19.595  0.00  0.00    -0.041 C 
ATOM     91  H   UNL     1      -0.420  16.963  20.219  0.00  0.00    +0.027 HD
ATOM     92  H   UNL     1       0.334  16.455  18.725  0.00  0.00    +0.027 HD
BRANCH  90  93
ATOM     93  C   UNL     1       0.664  15.137  20.397  0.00  0.00    +0.007 C 
ATOM     94  H   UNL     1       0.849  15.529  21.402  0.00  0.00    +0.034 HD
ATOM     95  H   UNL     1       0.187  14.158  20.526  0.00  0.00    +0.034 HD
BRANCH  93  96
ATOM     96  C   UNL     1       1.981  14.895  19.687  0.00  0.00    +0.139 C 
ATOM     97  O   UNL     1       2.020  14.847  18.455  0.00  0.00    -0.297 OA
BRANCH  96  98
ATOM     98  C   UNL     1       3.236  14.748  20.543  0.00  0.00    +0.041 C 
ATOM     99  H   UNL     1       3.819  13.924  20.112  0.00  0.00    +0.040 HD
BRANCH  98 100
ATOM    100  C   UNL     1       2.864  14.286  21.959  0.00  0.00    -0.053 C 
ATOM    101  H   UNL     1       3.715  14.369  22.644  0.00  0.00    +0.024 HD
ATOM    102  H   UNL     1       2.555  13.235  21.949  0.00  0.00    +0.024 HD
ATOM    103  H   UNL     1       2.033  14.867  22.372  0.00  0.00    +0.024 HD
ENDBRANCH  98 100
BRANCH  98 104
ATOM    104  C   UNL     1       4.130  16.012  20.522  0.00  0.00    +0.071 C 
ATOM    105  H   UNL     1       3.971  16.516  19.558  0.00  0.00    +0.061 HD
BRANCH 104 106
ATOM    106  C   UNL     1       3.856  17.009  21.677  0.00  0.00    -0.006 C 
ATOM    107  H   UNL     1       3.126  16.594  22.384  0.00  0.00    +0.033 HD
ATOM    108  H   UNL     1       4.766  17.164  22.269  0.00  0.00    +0.033 HD
BRANCH 106 109
ATOM    109  C   UNL     1       3.425  18.353  21.164  0.00  0.00    -0.067 C 
ATOM    110  C   UNL     1       2.769  18.534  20.009  0.00  0.00    -0.005 C 
ATOM    111  H   UNL     1       3.687  19.197  21.795  0.00  0.00    +0.059 HD
ATOM    112  H   UNL     1       2.499  17.657  19.422  0.00  0.00    +0.078 HD
BRANCH 110 113
ATOM    113  N   UNL     1       2.393  19.743  19.449  0.00  0.00    -0.284 N 
ATOM    114  C   UNL     1       1.096  20.250  19.431  0.00  0.00    +0.206 C 
ATOM    115  O   UNL     1       0.085  19.797  19.953  0.00  0.00    -0.279 OA
ATOM    116  H   UNL     1       1.038  21.202  18.875  0.00  0.00    +0.126 HD
BRANCH 113 117
ATOM    117  C   UNL     1       3.472  20.588  18.951  0.00  0.00    +0.007 C 
ATOM    118  H   UNL     1       4.400  20.007  18.950  0.00  0.00    +0.043 HD
ATOM    119  H   UNL     1       3.238  20.921  17.936  0.00  0.00    +0.043 HD
ATOM    120  H   UNL     1       3.620  21.467  19.585  0.00  0.00    +0.043 HD
ENDBRANCH 113 117
ENDBRANCH 110 113
ENDBRANCH 106 109
ENDBRANCH 104 106
BRANCH 104 121
ATOM    121  O   UNL     1       5.505  15.585  20.580  0.00  0.00    -0.379 OA
BRANCH 121 122
ATOM    122  C   UNL     1       6.184  16.024  21.751  0.00  0.00    +0.037 C 
ATOM    123  H   UNL     1       5.591  15.778  22.637  0.00  0.00    +0.052 HD
ATOM    124  H   UNL     1       7.179  15.576  21.838  0.00  0.00    +0.052 HD
ATOM    125  H   UNL     1       6.289  17.110  21.696  0.00  0.00    +0.052 HD
ENDBRANCH 121 122
ENDBRANCH 104 121
ENDBRANCH  98 104
ENDBRANCH  96  98
ENDBRANCH  93  96
ENDBRANCH  90  93
ENDBRANCH  84  90
ENDBRANCH  82  84
BRANCH  82 126
ATOM    126  O   UNL     1      -2.439  17.663  19.480  0.00  0.00    -0.379 OA
BRANCH 126 127
ATOM    127  C   UNL     1      -3.387  18.687  19.200  0.00  0.00    +0.037 C 
ATOM    128  H   UNL     1      -3.883  18.444  18.257  0.00  0.00    +0.052 HD
ATOM    129  H   UNL     1      -4.141  18.747  19.987  0.00  0.00    +0.052 HD
ATOM    130  H   UNL     1      -2.885  19.653  19.089  0.00  0.00    +0.052 HD
ENDBRANCH 126 127
ENDBRANCH  82 126
ENDBRANCH  76  82
ENDBRANCH  25  76
BRANCH  31 131
ATOM    131  O   UNL     1      -9.583  18.698  17.369  0.00  0.00    -0.379 OA
BRANCH 131 132
ATOM    132  C   UNL     1     -10.094  20.014  17.189  0.00  0.00    +0.037 C 
ATOM    133  H   UNL     1     -10.775  20.291  17.999  0.00  0.00    +0.052 HD
ATOM    134  H   UNL     1      -9.251  20.712  17.191  0.00  0.00    +0.052 HD
ATOM    135  H   UNL     1     -10.606  20.096  16.227  0.00  0.00    +0.052 HD
ENDBRANCH 131 132
ENDBRANCH  31 131
BRANCH  29 136
ATOM    136  O   UNL     1      -6.257  20.655  16.139  0.00  0.00    -0.376 OA
BRANCH 136 137
ATOM    137  C   UNL     1      -6.681  21.760  16.929  0.00  0.00    +0.037 C 
ATOM    138  H   UNL     1      -7.154  22.526  16.305  0.00  0.00    +0.052 HD
ATOM    139  H   UNL     1      -5.802  22.194  17.411  0.00  0.00    +0.052 HD
ATOM    140  H   UNL     1      -7.378  21.427  17.707  0.00  0.00    +0.052 HD
ENDBRANCH 136 137
ENDBRANCH  29 136
BRANCH  16 141
ATOM    141  O   UNL     1     -12.460  10.277  19.651  0.00  0.00    -0.379 OA
BRANCH 141 142
ATOM    142  C   UNL     1     -11.800   9.086  20.066  0.00  0.00    +0.037 C 
ATOM    143  H   UNL     1     -12.395   8.548  20.810  0.00  0.00    +0.052 HD
ATOM    144  H   UNL     1     -11.684   8.440  19.194  0.00  0.00    +0.052 HD
ATOM    145  H   UNL     1     -10.806   9.306  20.466  0.00  0.00    +0.052 HD
ENDBRANCH 141 142
ENDBRANCH  16 141
BRANCH   6 146
ATOM    146  O   UNL     1      -7.973  15.234  25.337  0.00  0.00    -0.379 OA
BRANCH 146 147
ATOM    147  C   UNL     1      -8.311  15.895  26.551  0.00  0.00    +0.037 C 
ATOM    148  H   UNL     1      -9.386  16.086  26.619  0.00  0.00    +0.052 HD
ATOM    149  H   UNL     1      -8.020  15.250  27.383  0.00  0.00    +0.052 HD
ATOM    150  H   UNL     1      -7.760  16.837  26.636  0.00  0.00    +0.052 HD
ENDBRANCH 146 147
ENDBRANCH   6 146
BRANCH   4 151
ATOM    151  O   UNL     1      -6.556  17.796  23.134  0.00  0.00    -0.376 OA
BRANCH 151 152
ATOM    152  C   UNL     1      -5.194  18.185  22.981  0.00  0.00    +0.037 C 
ATOM    153  H   UNL     1      -4.701  18.258  23.956  0.00  0.00    +0.052 HD
ATOM    154  H   UNL     1      -4.684  17.416  22.395  0.00  0.00    +0.052 HD
ATOM    155  H   UNL     1      -5.116  19.133  22.444  0.00  0.00    +0.052 HD
ENDBRANCH 151 152
ENDBRANCH   4 151
TORSDOF 33
ENDMDL
MODEL 4
REMARK VINA RESULT:      -5.5      2.631      6.175
REMARK  Name = Reidispongiolide A_conf2
REMARK  33 active torsions:
REMARK  status: ('A' for Active; 'I' for Inactive)
REMARK    1  A    between atoms: C_1  and  C_2
REMARK    2  A    between atoms: C_5  and  O_67
REMARK    3  A    between atoms: C_7  and  O_65
REMARK    4  A    between atoms: C_8  and  C_64
REMARK    5  A    between atoms: C_17  and  O_62
REMARK    6  A    between atoms: C_19  and  C_61
REMARK    7  A    between atoms: C_26  and  C_38
REMARK    8  A    between atoms: C_27  and  C_37
REMARK    9  A    between atoms: C_30  and  O_35
REMARK   10  A    between atoms: C_32  and  O_33
REMARK   11  A    between atoms: O_33  and  C_34
REMARK   12  A    between atoms: O_35  and  C_36
REMARK   13  A    between atoms: C_38  and  C_39
REMARK   14  A    between atoms: C_38  and  C_40
REMARK   15  A    between atoms: C_40  and  C_41
REMARK   16  A    between atoms: C_40  and  O_59
REMARK   17  A    between atoms: C_41  and  C_42
REMARK   18  A    between atoms: C_41  and  C_43
REMARK   19  A    between atoms: C_43  and  C_44
REMARK   20  A    between atoms: C_44  and  C_45
REMARK   21  A    between atoms: C_45  and  C_47
REMARK   22  A    between atoms: C_47  and  C_48
REMARK   23  A    between atoms: C_47  and  C_49
REMARK   24  A    between atoms: C_49  and  C_50
REMARK   25  A    between atoms: C_49  and  O_57
REMARK   26  A    between atoms: C_50  and  C_51
REMARK   27  A    between atoms: C_52  and  N_53
REMARK   28  A    between atoms: N_53  and  C_54
REMARK   29  A    between atoms: O_57  and  C_58
REMARK   30  A    between atoms: O_59  and  C_60
REMARK   31  A    between atoms: O_62  and  C_63
REMARK   32  A    between atoms: O_65  and  C_66
REMARK   33  A    between atoms: O_67  and  C_68
REMARK                            x       y       z     vdW  Elec       q    Type
REMARK                         _______ _______ _______ _____ _____    ______ ____
ROOT
ATOM      1  C   UNL     1      -9.978  11.662  21.565  0.00  0.00    +0.001 C 
ATOM      2  C   UNL     1      -9.023  11.058  20.550  0.00  0.00    -0.080 C 
ATOM      3  C   UNL     1      -8.899  11.463  19.272  0.00  0.00    -0.059 C 
ATOM      4  C   UNL     1      -7.983  10.903  18.211  0.00  0.00    +0.079 C 
ATOM      5  C   UNL     1      -8.712  10.723  16.857  0.00  0.00    +0.004 C 
ATOM      6  C   UNL     1      -9.501   9.410  16.681  0.00  0.00    +0.067 C 
ATOM      7  C   UNL     1     -11.049   9.520  16.543  0.00  0.00    +0.020 C 
ATOM      8  C   UNL     1     -11.681  10.271  15.334  0.00  0.00    +0.112 C 
ATOM      9  C   UNL     1     -11.740  11.802  15.423  0.00  0.00    +0.006 C 
ATOM     10  C   UNL     1     -12.362  12.377  14.184  0.00  0.00    -0.057 C 
ATOM     11  C   UNL     1     -12.312  11.661  13.045  0.00  0.00    +0.022 C 
ATOM     12  C   UNL     1     -11.585  10.377  12.939  0.00  0.00    +0.332 C 
ATOM     13  O   UNL     1     -11.392   9.861  11.848  0.00  0.00    -0.246 OA
ATOM     14  O   UNL     1     -11.093   9.855  14.093  0.00  0.00    -0.458 OA
ATOM     15  C   UNL     1     -12.884  13.801  14.196  0.00  0.00    -0.004 C 
ATOM     16  C   UNL     1     -14.127  14.126  15.062  0.00  0.00    +0.066 C 
ATOM     17  C   UNL     1     -13.842  14.393  16.566  0.00  0.00    -0.005 C 
ATOM     18  C   UNL     1     -12.631  15.260  16.887  0.00  0.00    -0.070 C 
ATOM     19  C   UNL     1     -11.581  14.728  17.541  0.00  0.00    -0.062 C 
ATOM     20  C   UNL     1     -10.323  15.341  17.893  0.00  0.00    -0.055 C 
ATOM     21  C   UNL     1      -9.517  15.994  17.035  0.00  0.00    +0.023 C 
ATOM     22  C   UNL     1      -8.158  16.465  17.393  0.00  0.00    +0.332 C 
ATOM     23  O   UNL     1      -7.483  17.160  16.654  0.00  0.00    -0.246 OA
ATOM     24  O   UNL     1      -7.783  15.950  18.584  0.00  0.00    -0.457 OA
ATOM     25  C   UNL     1      -6.419  16.165  19.054  0.00  0.00    +0.114 C 
ATOM     26  C   UNL     1      -6.559  16.835  20.454  0.00  0.00    +0.012 C 
ATOM     27  C   UNL     1      -7.506  16.108  21.393  0.00  0.00    -0.079 C 
ATOM     28  C   UNL     1      -7.114  15.231  22.330  0.00  0.00    -0.059 C 
ATOM     29  C   UNL     1      -8.023  14.582  23.340  0.00  0.00    +0.079 C 
ATOM     30  C   UNL     1      -8.436  13.165  22.924  0.00  0.00    +0.004 C 
ATOM     31  C   UNL     1      -9.621  13.135  21.937  0.00  0.00    +0.067 C 
ATOM     32  H   UNL     1      -9.893  11.057  22.480  0.00  0.00    +0.037 HD
ATOM     33  H   UNL     1      -8.418  10.225  20.907  0.00  0.00    +0.057 HD
ATOM     34  H   UNL     1      -9.489  12.317  18.951  0.00  0.00    +0.059 HD
ATOM     35  H   UNL     1      -7.213  11.670  18.073  0.00  0.00    +0.064 HD
ATOM     36  H   UNL     1      -9.340  11.597  16.694  0.00  0.00    +0.032 HD
ATOM     37  H   UNL     1      -7.936  10.774  16.078  0.00  0.00    +0.032 HD
ATOM     38  H   UNL     1      -9.292   8.760  17.543  0.00  0.00    +0.060 HD
ATOM     39  H   UNL     1     -11.376   8.480  16.387  0.00  0.00    +0.036 HD
ATOM     40  H   UNL     1     -12.727   9.919  15.300  0.00  0.00    +0.074 HD
ATOM     41  H   UNL     1     -10.753  12.258  15.515  0.00  0.00    +0.035 HD
ATOM     42  H   UNL     1     -12.335  12.069  16.297  0.00  0.00    +0.035 HD
ATOM     43  H   UNL     1     -12.691  12.038  12.102  0.00  0.00    +0.069 HD
ATOM     44  H   UNL     1     -13.131  14.079  13.162  0.00  0.00    +0.034 HD
ATOM     45  H   UNL     1     -12.052  14.469  14.447  0.00  0.00    +0.034 HD
ATOM     46  H   UNL     1     -14.829  13.282  14.985  0.00  0.00    +0.060 HD
ATOM     47  H   UNL     1     -13.752  13.425  17.076  0.00  0.00    +0.034 HD
ATOM     48  H   UNL     1     -14.713  14.870  17.038  0.00  0.00    +0.034 HD
ATOM     49  H   UNL     1     -11.649  13.694  17.882  0.00  0.00    +0.062 HD
ATOM     50  H   UNL     1      -9.992  15.137  18.912  0.00  0.00    +0.062 HD
ATOM     51  H   UNL     1      -9.802  16.180  16.006  0.00  0.00    +0.069 HD
ATOM     52  H   UNL     1      -5.893  16.857  18.382  0.00  0.00    +0.074 HD
ATOM     53  H   UNL     1      -5.588  16.912  20.945  0.00  0.00    +0.038 HD
ATOM     54  H   UNL     1      -8.561  16.355  21.300  0.00  0.00    +0.057 HD
ATOM     55  H   UNL     1      -6.056  14.982  22.419  0.00  0.00    +0.059 HD
ATOM     56  H   UNL     1      -8.915  15.195  23.521  0.00  0.00    +0.064 HD
ATOM     57  H   UNL     1      -8.716  12.608  23.829  0.00  0.00    +0.032 HD
ATOM     58  H   UNL     1      -7.575  12.638  22.496  0.00  0.00    +0.032 HD
ATOM     59  H   UNL     1      -9.347  13.695  21.036  0.00  0.00    +0.060 HD
ENDROOT
BRANCH   1  60
ATOM     60  C   UNL     1     -11.429  11.480  21.105  0.00  0.00    -0.057 C 
ATOM     61  H   UNL     1     -11.734  12.298  20.443  0.00  0.00    +0.024 HD
ATOM     62  H   UNL     1     -12.122  11.453  21.949  0.00  0.00    +0.024 HD
ATOM     63  H   UNL     1     -11.551  10.552  20.537  0.00  0.00    +0.024 HD
ENDBRANCH   1  60
BRANCH  26  64
ATOM     64  C   UNL     1      -7.052  18.284  20.296  0.00  0.00    -0.056 C 
ATOM     65  H   UNL     1      -8.088  18.324  19.947  0.00  0.00    +0.024 HD
ATOM     66  H   UNL     1      -6.430  18.825  19.575  0.00  0.00    +0.024 HD
ATOM     67  H   UNL     1      -6.997  18.818  21.251  0.00  0.00    +0.024 HD
ENDBRANCH  26  64
BRANCH  18  68
ATOM     68  C   UNL     1     -12.738  16.698  16.457  0.00  0.00    -0.043 C 
ATOM     69  H   UNL     1     -11.788  17.035  16.020  0.00  0.00    +0.027 HD
ATOM     70  H   UNL     1     -13.506  16.861  15.691  0.00  0.00    +0.027 HD
ATOM     71  H   UNL     1     -12.973  17.342  17.311  0.00  0.00    +0.027 HD
ENDBRANCH  18  68
BRANCH   7  72
ATOM     72  C   UNL     1     -11.691   9.950  17.863  0.00  0.00    -0.057 C 
ATOM     73  H   UNL     1     -12.199   9.101  18.337  0.00  0.00    +0.023 HD
ATOM     74  H   UNL     1     -12.446  10.729  17.694  0.00  0.00    +0.023 HD
ATOM     75  H   UNL     1     -10.953  10.343  18.565  0.00  0.00    +0.023 HD
ENDBRANCH   7  72
BRANCH  25  76
ATOM     76  C   UNL     1      -5.672  14.790  19.003  0.00  0.00    +0.020 C 
ATOM     77  H   UNL     1      -6.293  14.063  19.536  0.00  0.00    +0.036 HD
BRANCH  76  78
ATOM     78  C   UNL     1      -5.587  14.299  17.540  0.00  0.00    -0.057 C 
ATOM     79  H   UNL     1      -6.538  14.425  17.018  0.00  0.00    +0.023 HD
ATOM     80  H   UNL     1      -4.819  14.855  16.986  0.00  0.00    +0.023 HD
ATOM     81  H   UNL     1      -5.338  13.239  17.472  0.00  0.00    +0.023 HD
ENDBRANCH  76  78
BRANCH  76  82
ATOM     82  C   UNL     1      -4.224  14.798  19.598  0.00  0.00    +0.067 C 
ATOM     83  H   UNL     1      -4.255  15.426  20.499  0.00  0.00    +0.060 HD
BRANCH  82  84
ATOM     84  C   UNL     1      -3.156  15.403  18.627  0.00  0.00    -0.017 C 
ATOM     85  H   UNL     1      -3.634  15.617  17.665  0.00  0.00    +0.032 HD
BRANCH  84  86
ATOM     86  C   UNL     1      -2.658  16.750  19.176  0.00  0.00    -0.060 C 
ATOM     87  H   UNL     1      -2.732  16.778  20.267  0.00  0.00    +0.023 HD
ATOM     88  H   UNL     1      -3.264  17.579  18.797  0.00  0.00    +0.023 HD
ATOM     89  H   UNL     1      -1.615  16.940  18.896  0.00  0.00    +0.023 HD
ENDBRANCH  84  86
BRANCH  84  90
ATOM     90  C   UNL     1      -1.963  14.450  18.376  0.00  0.00    -0.041 C 
ATOM     91  H   UNL     1      -2.148  13.837  17.488  0.00  0.00    +0.027 HD
ATOM     92  H   UNL     1      -1.860  13.746  19.211  0.00  0.00    +0.027 HD
BRANCH  90  93
ATOM     93  C   UNL     1      -0.640  15.183  18.166  0.00  0.00    +0.007 C 
ATOM     94  H   UNL     1      -0.244  14.997  17.164  0.00  0.00    +0.034 HD
ATOM     95  H   UNL     1      -0.767  16.268  18.257  0.00  0.00    +0.034 HD
BRANCH  93  96
ATOM     96  C   UNL     1       0.380  14.769  19.208  0.00  0.00    +0.139 C 
ATOM     97  O   UNL     1       0.079  14.773  20.405  0.00  0.00    -0.297 OA
BRANCH  96  98
ATOM     98  C   UNL     1       1.757  14.325  18.722  0.00  0.00    +0.041 C 
ATOM     99  H   UNL     1       1.906  14.783  17.735  0.00  0.00    +0.040 HD
BRANCH  98 100
ATOM    100  C   UNL     1       1.771  12.811  18.474  0.00  0.00    -0.053 C 
ATOM    101  H   UNL     1       1.288  12.555  17.524  0.00  0.00    +0.024 HD
ATOM    102  H   UNL     1       1.226  12.288  19.268  0.00  0.00    +0.024 HD
ATOM    103  H   UNL     1       2.790  12.410  18.460  0.00  0.00    +0.024 HD
ENDBRANCH  98 100
BRANCH  98 104
ATOM    104  C   UNL     1       2.905  14.811  19.639  0.00  0.00    +0.071 C 
ATOM    105  H   UNL     1       2.548  15.702  20.175  0.00  0.00    +0.061 HD
BRANCH 104 106
ATOM    106  C   UNL     1       3.395  13.756  20.663  0.00  0.00    -0.006 C 
ATOM    107  H   UNL     1       2.733  12.881  20.668  0.00  0.00    +0.033 HD
ATOM    108  H   UNL     1       4.376  13.365  20.367  0.00  0.00    +0.033 HD
BRANCH 106 109
ATOM    109  C   UNL     1       3.547  14.340  22.039  0.00  0.00    -0.067 C 
ATOM    110  C   UNL     1       4.228  15.464  22.299  0.00  0.00    -0.005 C 
ATOM    111  H   UNL     1       3.064  13.783  22.836  0.00  0.00    +0.059 HD
ATOM    112  H   UNL     1       4.671  16.009  21.466  0.00  0.00    +0.078 HD
BRANCH 110 113
ATOM    113  N   UNL     1       4.456  16.026  23.544  0.00  0.00    -0.284 N 
ATOM    114  C   UNL     1       4.512  17.393  23.809  0.00  0.00    +0.206 C 
ATOM    115  O   UNL     1       4.300  18.333  23.053  0.00  0.00    -0.279 OA
ATOM    116  H   UNL     1       4.765  17.593  24.865  0.00  0.00    +0.126 HD
BRANCH 113 117
ATOM    117  C   UNL     1       4.520  15.101  24.669  0.00  0.00    +0.007 C 
ATOM    118  H   UNL     1       5.290  15.450  25.366  0.00  0.00    +0.043 HD
ATOM    119  H   UNL     1       3.550  15.066  25.171  0.00  0.00    +0.043 HD
ATOM    120  H   UNL     1       4.785  14.090  24.345  0.00  0.00    +0.043 HD
ENDBRANCH 113 117
ENDBRANCH 110 113
ENDBRANCH 106 109
ENDBRANCH 104 106
BRANCH 104 121
ATOM    121  O   UNL     1       4.007  15.207  18.801  0.00  0.00    -0.379 OA
BRANCH 121 122
ATOM    122  C   UNL     1       5.201  14.476  19.056  0.00  0.00    +0.037 C 
ATOM    123  H   UNL     1       6.060  15.014  18.644  0.00  0.00    +0.052 HD
ATOM    124  H   UNL     1       5.354  14.304  20.127  0.00  0.00    +0.052 HD
ATOM    125  H   UNL     1       5.122  13.511  18.551  0.00  0.00    +0.052 HD
ENDBRANCH 121 122
ENDBRANCH 104 121
ENDBRANCH  98 104
ENDBRANCH  96  98
ENDBRANCH  93  96
ENDBRANCH  90  93
ENDBRANCH  84  90
ENDBRANCH  82  84
BRANCH  82 126
ATOM    126  O   UNL     1      -3.794  13.484  19.949  0.00  0.00    -0.379 OA
BRANCH 126 127
ATOM    127  C   UNL     1      -4.628  12.856  20.917  0.00  0.00    +0.037 C 
ATOM    128  H   UNL     1      -5.546  12.537  20.420  0.00  0.00    +0.052 HD
ATOM    129  H   UNL     1      -4.138  11.979  21.345  0.00  0.00    +0.052 HD
ATOM    130  H   UNL     1      -4.890  13.563  21.712  0.00  0.00    +0.052 HD
ENDBRANCH 126 127
ENDBRANCH  82 126
ENDBRANCH  76  82
ENDBRANCH  25  76
BRANCH  31 131
ATOM    131  O   UNL     1     -10.739  13.761  22.587  0.00  0.00    -0.379 OA
BRANCH 131 132
ATOM    132  C   UNL     1     -11.231  14.902  21.894  0.00  0.00    +0.037 C 
ATOM    133  H   UNL     1     -10.845  14.946  20.872  0.00  0.00    +0.052 HD
ATOM    134  H   UNL     1     -12.323  14.831  21.850  0.00  0.00    +0.052 HD
ATOM    135  H   UNL     1     -10.968  15.817  22.431  0.00  0.00    +0.052 HD
ENDBRANCH 131 132
ENDBRANCH  31 131
BRANCH  29 136
ATOM    136  O   UNL     1      -7.271  14.464  24.557  0.00  0.00    -0.376 OA
BRANCH 136 137
ATOM    137  C   UNL     1      -7.784  15.293  25.594  0.00  0.00    +0.037 C 
ATOM    138  H   UNL     1      -7.522  16.342  25.419  0.00  0.00    +0.052 HD
ATOM    139  H   UNL     1      -7.339  14.974  26.540  0.00  0.00    +0.052 HD
ATOM    140  H   UNL     1      -8.873  15.184  25.666  0.00  0.00    +0.052 HD
ENDBRANCH 136 137
ENDBRANCH  29 136
BRANCH  16 141
ATOM    141  O   UNL     1     -14.752  15.279  14.463  0.00  0.00    -0.379 OA
BRANCH 141 142
ATOM    142  C   UNL     1     -14.253  15.603  13.170  0.00  0.00    +0.037 C 
ATOM    143  H   UNL     1     -13.545  16.435  13.220  0.00  0.00    +0.052 HD
ATOM    144  H   UNL     1     -13.723  14.732  12.781  0.00  0.00    +0.052 HD
ATOM    145  H   UNL     1     -15.069  15.844  12.482  0.00  0.00    +0.052 HD
ENDBRANCH 141 142
ENDBRANCH  16 141
BRANCH   6 146
ATOM    146  O   UNL     1      -8.947   8.779  15.512  0.00  0.00    -0.379 OA
BRANCH 146 147
ATOM    147  C   UNL     1      -8.825   7.366  15.622  0.00  0.00    +0.037 C 
ATOM    148  H   UNL     1      -7.816   7.028  15.368  0.00  0.00    +0.052 HD
ATOM    149  H   UNL     1      -9.034   7.086  16.656  0.00  0.00    +0.052 HD
ATOM    150  H   UNL     1      -9.557   6.870  14.976  0.00  0.00    +0.052 HD
ENDBRANCH 146 147
ENDBRANCH   6 146
BRANCH   4 151
ATOM    151  O   UNL     1      -7.346   9.714  18.672  0.00  0.00    -0.376 OA
BRANCH 151 152
ATOM    152  C   UNL     1      -6.040   9.534  18.134  0.00  0.00    +0.037 C 
ATOM    153  H   UNL     1      -5.616   8.579  18.459  0.00  0.00    +0.052 HD
ATOM    154  H   UNL     1      -6.119   9.522  17.043  0.00  0.00    +0.052 HD
ATOM    155  H   UNL     1      -5.382  10.359  18.419  0.00  0.00    +0.052 HD
ENDBRANCH 151 152
ENDBRANCH   4 151
TORSDOF 33
ENDMDL
MODEL 5
REMARK VINA RESULT:      -5.5      2.879      6.024
REMARK  Name = Reidispongiolide A_conf2
REMARK  33 active torsions:
REMARK  status: ('A' for Active; 'I' for Inactive)
REMARK    1  A    between atoms: C_1  and  C_2
REMARK    2  A    between atoms: C_5  and  O_67
REMARK    3  A    between atoms: C_7  and  O_65
REMARK    4  A    between atoms: C_8  and  C_64
REMARK    5  A    between atoms: C_17  and  O_62
REMARK    6  A    between atoms: C_19  and  C_61
REMARK    7  A    between atoms: C_26  and  C_38
REMARK    8  A    between atoms: C_27  and  C_37
REMARK    9  A    between atoms: C_30  and  O_35
REMARK   10  A    between atoms: C_32  and  O_33
REMARK   11  A    between atoms: O_33  and  C_34
REMARK   12  A    between atoms: O_35  and  C_36
REMARK   13  A    between atoms: C_38  and  C_39
REMARK   14  A    between atoms: C_38  and  C_40
REMARK   15  A    between atoms: C_40  and  C_41
REMARK   16  A    between atoms: C_40  and  O_59
REMARK   17  A    between atoms: C_41  and  C_42
REMARK   18  A    between atoms: C_41  and  C_43
REMARK   19  A    between atoms: C_43  and  C_44
REMARK   20  A    between atoms: C_44  and  C_45
REMARK   21  A    between atoms: C_45  and  C_47
REMARK   22  A    between atoms: C_47  and  C_48
REMARK   23  A    between atoms: C_47  and  C_49
REMARK   24  A    between atoms: C_49  and  C_50
REMARK   25  A    between atoms: C_49  and  O_57
REMARK   26  A    between atoms: C_50  and  C_51
REMARK   27  A    between atoms: C_52  and  N_53
REMARK   28  A    between atoms: N_53  and  C_54
REMARK   29  A    between atoms: O_57  and  C_58
REMARK   30  A    between atoms: O_59  and  C_60
REMARK   31  A    between atoms: O_62  and  C_63
REMARK   32  A    between atoms: O_65  and  C_66
REMARK   33  A    between atoms: O_67  and  C_68
REMARK                            x       y       z     vdW  Elec       q    Type
REMARK                         _______ _______ _______ _____ _____    ______ ____
ROOT
ATOM      1  C   UNL     1     -12.972  12.513  19.019  0.00  0.00    +0.001 C 
ATOM      2  C   UNL     1     -11.747  12.586  19.913  0.00  0.00    -0.080 C 
ATOM      3  C   UNL     1     -11.114  11.522  20.443  0.00  0.00    -0.059 C 
ATOM      4  C   UNL     1      -9.904  11.522  21.345  0.00  0.00    +0.079 C 
ATOM      5  C   UNL     1     -10.071  10.543  22.533  0.00  0.00    +0.004 C 
ATOM      6  C   UNL     1     -10.823  11.089  23.763  0.00  0.00    +0.067 C 
ATOM      7  C   UNL     1     -12.188  10.426  24.117  0.00  0.00    +0.020 C 
ATOM      8  C   UNL     1     -12.253   8.923  24.520  0.00  0.00    +0.112 C 
ATOM      9  C   UNL     1     -12.233   7.898  23.379  0.00  0.00    +0.006 C 
ATOM     10  C   UNL     1     -12.291   6.502  23.926  0.00  0.00    -0.057 C 
ATOM     11  C   UNL     1     -11.859   6.283  25.183  0.00  0.00    +0.022 C 
ATOM     12  C   UNL     1     -11.241   7.340  26.011  0.00  0.00    +0.332 C 
ATOM     13  O   UNL     1     -10.682   7.059  27.060  0.00  0.00    -0.246 OA
ATOM     14  O   UNL     1     -11.267   8.603  25.511  0.00  0.00    -0.458 OA
ATOM     15  C   UNL     1     -12.675   5.352  23.014  0.00  0.00    -0.004 C 
ATOM     16  C   UNL     1     -14.128   5.284  22.481  0.00  0.00    +0.066 C 
ATOM     17  C   UNL     1     -14.423   6.158  21.230  0.00  0.00    -0.005 C 
ATOM     18  C   UNL     1     -13.369   6.151  20.130  0.00  0.00    -0.070 C 
ATOM     19  C   UNL     1     -12.690   7.278  19.846  0.00  0.00    -0.062 C 
ATOM     20  C   UNL     1     -11.622   7.483  18.897  0.00  0.00    -0.055 C 
ATOM     21  C   UNL     1     -10.505   6.736  18.820  0.00  0.00    +0.023 C 
ATOM     22  C   UNL     1      -9.357   7.075  17.947  0.00  0.00    +0.332 C 
ATOM     23  O   UNL     1      -8.403   6.333  17.791  0.00  0.00    -0.246 OA
ATOM     24  O   UNL     1      -9.504   8.319  17.443  0.00  0.00    -0.457 OA
ATOM     25  C   UNL     1      -8.413   8.910  16.677  0.00  0.00    +0.114 C 
ATOM     26  C   UNL     1      -9.030   9.300  15.301  0.00  0.00    +0.012 C 
ATOM     27  C   UNL     1     -10.314  10.106  15.407  0.00  0.00    -0.079 C 
ATOM     28  C   UNL     1     -10.374  11.444  15.327  0.00  0.00    -0.059 C 
ATOM     29  C   UNL     1     -11.644  12.253  15.322  0.00  0.00    +0.079 C 
ATOM     30  C   UNL     1     -11.966  12.837  16.703  0.00  0.00    +0.004 C 
ATOM     31  C   UNL     1     -12.682  11.843  17.639  0.00  0.00    +0.067 C 
ATOM     32  H   UNL     1     -13.287  13.549  18.827  0.00  0.00    +0.037 HD
ATOM     33  H   UNL     1     -11.386  13.589  20.139  0.00  0.00    +0.057 HD
ATOM     34  H   UNL     1     -11.474  10.533  20.175  0.00  0.00    +0.059 HD
ATOM     35  H   UNL     1      -9.088  11.148  20.719  0.00  0.00    +0.064 HD
ATOM     36  H   UNL     1     -10.524   9.629  22.154  0.00  0.00    +0.032 HD
ATOM     37  H   UNL     1      -9.053  10.256  22.842  0.00  0.00    +0.032 HD
ATOM     38  H   UNL     1     -11.007  12.162  23.610  0.00  0.00    +0.060 HD
ATOM     39  H   UNL     1     -12.504  10.944  25.036  0.00  0.00    +0.036 HD
ATOM     40  H   UNL     1     -13.229   8.811  25.025  0.00  0.00    +0.074 HD
ATOM     41  H   UNL     1     -11.327   7.957  22.774  0.00  0.00    +0.035 HD
ATOM     42  H   UNL     1     -13.097   8.083  22.739  0.00  0.00    +0.035 HD
ATOM     43  H   UNL     1     -11.820   5.292  25.621  0.00  0.00    +0.069 HD
ATOM     44  H   UNL     1     -12.487   4.414  23.555  0.00  0.00    +0.034 HD
ATOM     45  H   UNL     1     -11.957   5.316  22.186  0.00  0.00    +0.034 HD
ATOM     46  H   UNL     1     -14.805   5.596  23.290  0.00  0.00    +0.060 HD
ATOM     47  H   UNL     1     -14.603   7.187  21.565  0.00  0.00    +0.034 HD
ATOM     48  H   UNL     1     -15.372   5.850  20.768  0.00  0.00    +0.034 HD
ATOM     49  H   UNL     1     -12.957   8.194  20.374  0.00  0.00    +0.062 HD
ATOM     50  H   UNL     1     -11.722   8.386  18.294  0.00  0.00    +0.062 HD
ATOM     51  H   UNL     1     -10.360   5.853  19.432  0.00  0.00    +0.069 HD
ATOM     52  H   UNL     1      -7.622   8.166  16.511  0.00  0.00    +0.074 HD
ATOM     53  H   UNL     1      -8.319   9.875  14.706  0.00  0.00    +0.038 HD
ATOM     54  H   UNL     1     -11.232   9.535  15.524  0.00  0.00    +0.057 HD
ATOM     55  H   UNL     1      -9.451  12.015  15.213  0.00  0.00    +0.059 HD
ATOM     56  H   UNL     1     -12.491  11.656  14.959  0.00  0.00    +0.064 HD
ATOM     57  H   UNL     1     -12.610  13.717  16.562  0.00  0.00    +0.032 HD
ATOM     58  H   UNL     1     -11.047  13.205  17.173  0.00  0.00    +0.032 HD
ATOM     59  H   UNL     1     -12.044  10.962  17.776  0.00  0.00    +0.060 HD
ENDROOT
BRANCH   1  60
ATOM     60  C   UNL     1     -14.146  11.877  19.773  0.00  0.00    -0.057 C 
ATOM     61  H   UNL     1     -15.022  11.782  19.123  0.00  0.00    +0.024 HD
ATOM     62  H   UNL     1     -14.435  12.467  20.646  0.00  0.00    +0.024 HD
ATOM     63  H   UNL     1     -13.895  10.867  20.116  0.00  0.00    +0.024 HD
ENDBRANCH   1  60
BRANCH  26  64
ATOM     64  C   UNL     1      -9.321   8.034  14.477  0.00  0.00    -0.056 C 
ATOM     65  H   UNL     1      -8.467   7.350  14.471  0.00  0.00    +0.024 HD
ATOM     66  H   UNL     1      -9.554   8.295  13.439  0.00  0.00    +0.024 HD
ATOM     67  H   UNL     1     -10.181   7.494  14.888  0.00  0.00    +0.024 HD
ENDBRANCH  26  64
BRANCH  18  68
ATOM     68  C   UNL     1     -13.200   4.840  19.410  0.00  0.00    -0.043 C 
ATOM     69  H   UNL     1     -13.109   5.010  18.329  0.00  0.00    +0.027 HD
ATOM     70  H   UNL     1     -12.298   4.296  19.715  0.00  0.00    +0.027 HD
ATOM     71  H   UNL     1     -14.062   4.187  19.586  0.00  0.00    +0.027 HD
ENDBRANCH  18  68
BRANCH   7  72
ATOM     72  C   UNL     1     -13.255  10.771  23.076  0.00  0.00    -0.057 C 
ATOM     73  H   UNL     1     -14.169  10.193  23.257  0.00  0.00    +0.023 HD
ATOM     74  H   UNL     1     -12.907  10.525  22.064  0.00  0.00    +0.023 HD
ATOM     75  H   UNL     1     -13.512  11.832  23.094  0.00  0.00    +0.023 HD
ENDBRANCH   7  72
BRANCH  25  76
ATOM     76  C   UNL     1      -7.803  10.073  17.530  0.00  0.00    +0.020 C 
ATOM     77  H   UNL     1      -7.670  10.930  16.862  0.00  0.00    +0.036 HD
BRANCH  76  78
ATOM     78  C   UNL     1      -8.819  10.515  18.607  0.00  0.00    -0.057 C 
ATOM     79  H   UNL     1      -8.348  11.131  19.376  0.00  0.00    +0.023 HD
ATOM     80  H   UNL     1      -9.635  11.096  18.158  0.00  0.00    +0.023 HD
ATOM     81  H   UNL     1      -9.268   9.667  19.126  0.00  0.00    +0.023 HD
ENDBRANCH  76  78
BRANCH  76  82
ATOM     82  C   UNL     1      -6.452   9.736  18.245  0.00  0.00    +0.067 C 
ATOM     83  H   UNL     1      -6.470  10.251  19.216  0.00  0.00    +0.060 HD
BRANCH  82  84
ATOM     84  C   UNL     1      -5.192  10.235  17.461  0.00  0.00    -0.017 C 
ATOM     85  H   UNL     1      -4.292   9.911  17.995  0.00  0.00    +0.032 HD
BRANCH  84  86
ATOM     86  C   UNL     1      -5.143   9.567  16.077  0.00  0.00    -0.060 C 
ATOM     87  H   UNL     1      -4.110   9.449  15.737  0.00  0.00    +0.023 HD
ATOM     88  H   UNL     1      -5.654  10.177  15.326  0.00  0.00    +0.023 HD
ATOM     89  H   UNL     1      -5.616   8.579  16.088  0.00  0.00    +0.023 HD
ENDBRANCH  84  86
BRANCH  84  90
ATOM     90  C   UNL     1      -5.144  11.775  17.317  0.00  0.00    -0.041 C 
ATOM     91  H   UNL     1      -6.099  12.150  16.936  0.00  0.00    +0.027 HD
ATOM     92  H   UNL     1      -4.390  12.061  16.574  0.00  0.00    +0.027 HD
BRANCH  90  93
ATOM     93  C   UNL     1      -4.857  12.494  18.633  0.00  0.00    +0.007 C 
ATOM     94  H   UNL     1      -5.407  12.033  19.459  0.00  0.00    +0.034 HD
ATOM     95  H   UNL     1      -3.794  12.437  18.895  0.00  0.00    +0.034 HD
BRANCH  93  96
ATOM     96  C   UNL     1      -5.210  13.964  18.536  0.00  0.00    +0.139 C 
ATOM     97  O   UNL     1      -6.378  14.332  18.691  0.00  0.00    -0.297 OA
BRANCH  96  98
ATOM     98  C   UNL     1      -4.077  14.954  18.275  0.00  0.00    +0.041 C 
ATOM     99  H   UNL     1      -4.276  15.835  18.900  0.00  0.00    +0.040 HD
BRANCH  98 100
ATOM    100  C   UNL     1      -4.136  15.461  16.827  0.00  0.00    -0.053 C 
ATOM    101  H   UNL     1      -4.574  16.464  16.772  0.00  0.00    +0.024 HD
ATOM    102  H   UNL     1      -4.760  14.799  16.216  0.00  0.00    +0.024 HD
ATOM    103  H   UNL     1      -3.145  15.493  16.366  0.00  0.00    +0.024 HD
ENDBRANCH  98 100
BRANCH  98 104
ATOM    104  C   UNL     1      -2.689  14.400  18.678  0.00  0.00    +0.071 C 
ATOM    105  H   UNL     1      -2.681  13.324  18.450  0.00  0.00    +0.061 HD
BRANCH 104 106
ATOM    106  C   UNL     1      -1.495  15.086  17.966  0.00  0.00    -0.006 C 
ATOM    107  H   UNL     1      -1.776  15.402  16.953  0.00  0.00    +0.033 HD
ATOM    108  H   UNL     1      -1.224  16.012  18.485  0.00  0.00    +0.033 HD
BRANCH 106 109
ATOM    109  C   UNL     1      -0.275  14.210  17.952  0.00  0.00    -0.067 C 
ATOM    110  C   UNL     1       0.890  14.547  18.521  0.00  0.00    -0.005 C 
ATOM    111  H   UNL     1      -0.390  13.262  17.435  0.00  0.00    +0.059 HD
ATOM    112  H   UNL     1       0.953  15.494  19.056  0.00  0.00    +0.078 HD
BRANCH 110 113
ATOM    113  N   UNL     1       2.066  13.818  18.497  0.00  0.00    -0.284 N 
ATOM    114  C   UNL     1       3.338  14.336  18.734  0.00  0.00    +0.206 C 
ATOM    115  O   UNL     1       3.656  15.468  19.077  0.00  0.00    -0.279 OA
ATOM    116  H   UNL     1       4.122  13.570  18.600  0.00  0.00    +0.126 HD
BRANCH 113 117
ATOM    117  C   UNL     1       1.929  12.376  18.327  0.00  0.00    +0.007 C 
ATOM    118  H   UNL     1       2.876  11.976  17.949  0.00  0.00    +0.043 HD
ATOM    119  H   UNL     1       1.685  11.914  19.288  0.00  0.00    +0.043 HD
ATOM    120  H   UNL     1       1.143  12.128  17.608  0.00  0.00    +0.043 HD
ENDBRANCH 113 117
ENDBRANCH 110 113
ENDBRANCH 106 109
ENDBRANCH 104 106
BRANCH 104 121
ATOM    121  O   UNL     1      -2.545  14.554  20.102  0.00  0.00    -0.379 OA
BRANCH 121 122
ATOM    122  C   UNL     1      -2.946  15.836  20.574  0.00  0.00    +0.037 C 
ATOM    123  H   UNL     1      -4.003  16.000  20.349  0.00  0.00    +0.052 HD
ATOM    124  H   UNL     1      -2.778  15.944  21.651  0.00  0.00    +0.052 HD
ATOM    125  H   UNL     1      -2.358  16.591  20.047  0.00  0.00    +0.052 HD
ENDBRANCH 121 122
ENDBRANCH 104 121
ENDBRANCH  98 104
ENDBRANCH  96  98
ENDBRANCH  93  96
ENDBRANCH  90  93
ENDBRANCH  84  90
ENDBRANCH  82  84
BRANCH  82 126
ATOM    126  O   UNL     1      -6.304   8.333  18.454  0.00  0.00    -0.379 OA
BRANCH 126 127
ATOM    127  C   UNL     1      -6.321   7.961  19.827  0.00  0.00    +0.037 C 
ATOM    128  H   UNL     1      -7.251   8.326  20.268  0.00  0.00    +0.052 HD
ATOM    129  H   UNL     1      -6.283   6.876  19.938  0.00  0.00    +0.052 HD
ATOM    130  H   UNL     1      -5.481   8.421  20.358  0.00  0.00    +0.052 HD
ENDBRANCH 126 127
ENDBRANCH  82 126
ENDBRANCH  76  82
ENDBRANCH  25  76
BRANCH  31 131
ATOM    131  O   UNL     1     -13.915  11.467  17.007  0.00  0.00    -0.379 OA
BRANCH 131 132
ATOM    132  C   UNL     1     -14.015  10.073  16.742  0.00  0.00    +0.037 C 
ATOM    133  H   UNL     1     -14.799   9.860  16.010  0.00  0.00    +0.052 HD
ATOM    134  H   UNL     1     -13.058   9.732  16.334  0.00  0.00    +0.052 HD
ATOM    135  H   UNL     1     -14.210   9.522  17.666  0.00  0.00    +0.052 HD
ENDBRANCH 131 132
ENDBRANCH  31 131
BRANCH  29 136
ATOM    136  O   UNL     1     -11.426  13.359  14.434  0.00  0.00    -0.376 OA
BRANCH 136 137
ATOM    137  C   UNL     1     -11.418  14.608  15.115  0.00  0.00    +0.037 C 
ATOM    138  H   UNL     1     -10.408  15.031  15.140  0.00  0.00    +0.052 HD
ATOM    139  H   UNL     1     -11.753  14.441  16.142  0.00  0.00    +0.052 HD
ATOM    140  H   UNL     1     -12.108  15.310  14.632  0.00  0.00    +0.052 HD
ENDBRANCH 136 137
ENDBRANCH  29 136
BRANCH  16 141
ATOM    141  O   UNL     1     -14.392   3.897  22.191  0.00  0.00    -0.379 OA
BRANCH 141 142
ATOM    142  C   UNL     1     -13.419   2.999  22.713  0.00  0.00    +0.037 C 
ATOM    143  H   UNL     1     -13.885   2.243  23.351  0.00  0.00    +0.052 HD
ATOM    144  H   UNL     1     -12.944   2.487  21.874  0.00  0.00    +0.052 HD
ATOM    145  H   UNL     1     -12.645   3.537  23.269  0.00  0.00    +0.052 HD
ENDBRANCH 141 142
ENDBRANCH  16 141
BRANCH   6 146
ATOM    146  O   UNL     1      -9.910  10.953  24.867  0.00  0.00    -0.379 OA
BRANCH 146 147
ATOM    147  C   UNL     1     -10.071  11.945  25.874  0.00  0.00    +0.037 C 
ATOM    148  H   UNL     1      -9.135  12.131  26.409  0.00  0.00    +0.052 HD
ATOM    149  H   UNL     1     -10.383  12.873  25.391  0.00  0.00    +0.052 HD
ATOM    150  H   UNL     1     -10.851  11.645  26.581  0.00  0.00    +0.052 HD
ENDBRANCH 146 147
ENDBRANCH   6 146
BRANCH   4 151
ATOM    151  O   UNL     1      -9.579  12.851  21.750  0.00  0.00    -0.376 OA
BRANCH 151 152
ATOM    152  C   UNL     1      -8.233  13.211  21.454  0.00  0.00    +0.037 C 
ATOM    153  H   UNL     1      -8.192  13.865  20.577  0.00  0.00    +0.052 HD
ATOM    154  H   UNL     1      -7.831  13.760  22.311  0.00  0.00    +0.052 HD
ATOM    155  H   UNL     1      -7.616  12.324  21.296  0.00  0.00    +0.052 HD
ENDBRANCH 151 152
ENDBRANCH   4 151
TORSDOF 33
ENDMDL
MODEL 6
REMARK VINA RESULT:      -5.4      2.561      6.966
REMARK  Name = Reidispongiolide A_conf2
REMARK  33 active torsions:
REMARK  status: ('A' for Active; 'I' for Inactive)
REMARK    1  A    between atoms: C_1  and  C_2
REMARK    2  A    between atoms: C_5  and  O_67
REMARK    3  A    between atoms: C_7  and  O_65
REMARK    4  A    between atoms: C_8  and  C_64
REMARK    5  A    between atoms: C_17  and  O_62
REMARK    6  A    between atoms: C_19  and  C_61
REMARK    7  A    between atoms: C_26  and  C_38
REMARK    8  A    between atoms: C_27  and  C_37
REMARK    9  A    between atoms: C_30  and  O_35
REMARK   10  A    between atoms: C_32  and  O_33
REMARK   11  A    between atoms: O_33  and  C_34
REMARK   12  A    between atoms: O_35  and  C_36
REMARK   13  A    between atoms: C_38  and  C_39
REMARK   14  A    between atoms: C_38  and  C_40
REMARK   15  A    between atoms: C_40  and  C_41
REMARK   16  A    between atoms: C_40  and  O_59
REMARK   17  A    between atoms: C_41  and  C_42
REMARK   18  A    between atoms: C_41  and  C_43
REMARK   19  A    between atoms: C_43  and  C_44
REMARK   20  A    between atoms: C_44  and  C_45
REMARK   21  A    between atoms: C_45  and  C_47
REMARK   22  A    between atoms: C_47  and  C_48
REMARK   23  A    between atoms: C_47  and  C_49
REMARK   24  A    between atoms: C_49  and  C_50
REMARK   25  A    between atoms: C_49  and  O_57
REMARK   26  A    between atoms: C_50  and  C_51
REMARK   27  A    between atoms: C_52  and  N_53
REMARK   28  A    between atoms: N_53  and  C_54
REMARK   29  A    between atoms: O_57  and  C_58
REMARK   30  A    between atoms: O_59  and  C_60
REMARK   31  A    between atoms: O_62  and  C_63
REMARK   32  A    between atoms: O_65  and  C_66
REMARK   33  A    between atoms: O_67  and  C_68
REMARK                            x       y       z     vdW  Elec       q    Type
REMARK                         _______ _______ _______ _____ _____    ______ ____
ROOT
ATOM      1  C   UNL     1     -12.369  11.515  16.308  0.00  0.00    +0.001 C 
ATOM      2  C   UNL     1     -11.117  12.345  16.534  0.00  0.00    -0.080 C 
ATOM      3  C   UNL     1     -10.279  12.207  17.580  0.00  0.00    -0.059 C 
ATOM      4  C   UNL     1      -9.030  13.001  17.872  0.00  0.00    +0.079 C 
ATOM      5  C   UNL     1      -8.949  13.421  19.359  0.00  0.00    +0.004 C 
ATOM      6  C   UNL     1      -9.699  14.712  19.743  0.00  0.00    +0.067 C 
ATOM      7  C   UNL     1     -10.905  14.574  20.719  0.00  0.00    +0.020 C 
ATOM      8  C   UNL     1     -10.689  14.056  22.171  0.00  0.00    +0.112 C 
ATOM      9  C   UNL     1     -10.571  12.537  22.355  0.00  0.00    +0.006 C 
ATOM     10  C   UNL     1     -10.356  12.198  23.801  0.00  0.00    -0.057 C 
ATOM     11  C   UNL     1      -9.811  13.129  24.608  0.00  0.00    +0.022 C 
ATOM     12  C   UNL     1      -9.326  14.434  24.109  0.00  0.00    +0.332 C 
ATOM     13  O   UNL     1      -8.659  15.164  24.827  0.00  0.00    -0.246 OA
ATOM     14  O   UNL     1      -9.599  14.733  22.813  0.00  0.00    -0.458 OA
ATOM     15  C   UNL     1     -10.600  10.782  24.286  0.00  0.00    -0.004 C 
ATOM     16  C   UNL     1     -12.053  10.244  24.299  0.00  0.00    +0.066 C 
ATOM     17  C   UNL     1     -12.574   9.693  22.942  0.00  0.00    -0.005 C 
ATOM     18  C   UNL     1     -11.609   8.826  22.144  0.00  0.00    -0.070 C 
ATOM     19  C   UNL     1     -11.151   9.255  20.952  0.00  0.00    -0.062 C 
ATOM     20  C   UNL     1     -10.199   8.632  20.065  0.00  0.00    -0.055 C 
ATOM     21  C   UNL     1      -8.979   8.194  20.428  0.00  0.00    +0.023 C 
ATOM     22  C   UNL     1      -7.966   7.712  19.460  0.00  0.00    +0.332 C 
ATOM     23  O   UNL     1      -6.912   7.204  19.803  0.00  0.00    -0.246 OA
ATOM     24  O   UNL     1      -8.354   7.993  18.198  0.00  0.00    -0.457 OA
ATOM     25  C   UNL     1      -7.431   7.740  17.097  0.00  0.00    +0.114 C 
ATOM     26  C   UNL     1      -8.196   6.799  16.117  0.00  0.00    +0.012 C 
ATOM     27  C   UNL     1      -9.588   7.288  15.753  0.00  0.00    -0.079 C 
ATOM     28  C   UNL     1      -9.878   7.975  14.637  0.00  0.00    -0.059 C 
ATOM     29  C   UNL     1     -11.264   8.374  14.206  0.00  0.00    +0.079 C 
ATOM     30  C   UNL     1     -11.588   9.830  14.566  0.00  0.00    +0.004 C 
ATOM     31  C   UNL     1     -12.061  10.012  16.022  0.00  0.00    +0.067 C 
ATOM     32  H   UNL     1     -12.867  11.928  15.418  0.00  0.00    +0.037 HD
ATOM     33  H   UNL     1     -10.917  13.112  15.786  0.00  0.00    +0.057 HD
ATOM     34  H   UNL     1     -10.484  11.413  18.292  0.00  0.00    +0.059 HD
ATOM     35  H   UNL     1      -8.205  12.307  17.678  0.00  0.00    +0.064 HD
ATOM     36  H   UNL     1      -9.265  12.574  19.966  0.00  0.00    +0.032 HD
ATOM     37  H   UNL     1      -7.879  13.556  19.585  0.00  0.00    +0.032 HD
ATOM     38  H   UNL     1     -10.071  15.184  18.823  0.00  0.00    +0.060 HD
ATOM     39  H   UNL     1     -11.243  15.611  20.873  0.00  0.00    +0.036 HD
ATOM     40  H   UNL     1     -11.595  14.369  22.719  0.00  0.00    +0.074 HD
ATOM     41  H   UNL     1      -9.731  12.109  21.807  0.00  0.00    +0.035 HD
ATOM     42  H   UNL     1     -11.494  12.079  21.999  0.00  0.00    +0.035 HD
ATOM     43  H   UNL     1      -9.576  12.933  25.648  0.00  0.00    +0.069 HD
ATOM     44  H   UNL     1     -10.220  10.706  25.315  0.00  0.00    +0.034 HD
ATOM     45  H   UNL     1      -9.942  10.109  23.723  0.00  0.00    +0.034 HD
ATOM     46  H   UNL     1     -12.717  11.059  24.621  0.00  0.00    +0.060 HD
ATOM     47  H   UNL     1     -12.903  10.542  22.330  0.00  0.00    +0.034 HD
ATOM     48  H   UNL     1     -13.486   9.099  23.099  0.00  0.00    +0.034 HD
ATOM     49  H   UNL     1     -11.533  10.197  20.557  0.00  0.00    +0.062 HD
ATOM     50  H   UNL     1     -10.490   8.640  19.014  0.00  0.00    +0.062 HD
ATOM     51  H   UNL     1      -8.647   8.207  21.460  0.00  0.00    +0.069 HD
ATOM     52  H   UNL     1      -6.539   7.215  17.465  0.00  0.00    +0.074 HD
ATOM     53  H   UNL     1      -7.633   6.662  15.193  0.00  0.00    +0.038 HD
ATOM     54  H   UNL     1     -10.386   7.025  16.443  0.00  0.00    +0.057 HD
ATOM     55  H   UNL     1      -9.075   8.241  13.949  0.00  0.00    +0.059 HD
ATOM     56  H   UNL     1     -12.021   7.704  14.634  0.00  0.00    +0.064 HD
ATOM     57  H   UNL     1     -12.380  10.184  13.890  0.00  0.00    +0.032 HD
ATOM     58  H   UNL     1     -10.715  10.463  14.371  0.00  0.00    +0.032 HD
ATOM     59  H   UNL     1     -11.276   9.653  16.698  0.00  0.00    +0.060 HD
ENDROOT
BRANCH   1  60
ATOM     60  C   UNL     1     -13.365  11.730  17.453  0.00  0.00    -0.057 C 
ATOM     61  H   UNL     1     -13.895  12.681  17.335  0.00  0.00    +0.024 HD
ATOM     62  H   UNL     1     -12.869  11.738  18.426  0.00  0.00    +0.024 HD
ATOM     63  H   UNL     1     -14.127  10.943  17.468  0.00  0.00    +0.024 HD
ENDBRANCH   1  60
BRANCH  26  64
ATOM     64  C   UNL     1      -8.322   5.394  16.730  0.00  0.00    -0.056 C 
ATOM     65  H   UNL     1      -9.048   5.372  17.548  0.00  0.00    +0.024 HD
ATOM     66  H   UNL     1      -7.356   5.057  17.123  0.00  0.00    +0.024 HD
ATOM     67  H   UNL     1      -8.645   4.669  15.974  0.00  0.00    +0.024 HD
ENDBRANCH  26  64
BRANCH  18  68
ATOM     68  C   UNL     1     -11.269   7.499  22.768  0.00  0.00    -0.043 C 
ATOM     69  H   UNL     1     -10.209   7.475  23.055  0.00  0.00    +0.027 HD
ATOM     70  H   UNL     1     -11.840   7.296  23.682  0.00  0.00    +0.027 HD
ATOM     71  H   UNL     1     -11.457   6.680  22.065  0.00  0.00    +0.027 HD
ENDBRANCH  18  68
BRANCH   7  72
ATOM     72  C   UNL     1     -12.082  13.866  20.044  0.00  0.00    -0.057 C 
ATOM     73  H   UNL     1     -12.280  14.303  19.059  0.00  0.00    +0.023 HD
ATOM     74  H   UNL     1     -12.997  13.976  20.641  0.00  0.00    +0.023 HD
ATOM     75  H   UNL     1     -11.893  12.798  19.913  0.00  0.00    +0.023 HD
ENDBRANCH   7  72
BRANCH  25  76
ATOM     76  C   UNL     1      -6.972   9.124  16.528  0.00  0.00    +0.020 C 
ATOM     77  H   UNL     1      -6.778   8.988  15.459  0.00  0.00    +0.036 HD
BRANCH  76  78
ATOM     78  C   UNL     1      -8.133  10.139  16.632  0.00  0.00    -0.057 C 
ATOM     79  H   UNL     1      -8.035  10.939  15.895  0.00  0.00    +0.023 HD
ATOM     80  H   UNL     1      -9.099   9.645  16.471  0.00  0.00    +0.023 HD
ATOM     81  H   UNL     1      -8.172  10.625  17.609  0.00  0.00    +0.023 HD
ENDBRANCH  76  78
BRANCH  76  82
ATOM     82  C   UNL     1      -5.717   9.747  17.226  0.00  0.00    +0.067 C 
ATOM     83  H   UNL     1      -5.314   8.978  17.900  0.00  0.00    +0.060 HD
BRANCH  82  84
ATOM     84  C   UNL     1      -6.048  11.012  18.086  0.00  0.00    -0.017 C 
ATOM     85  H   UNL     1      -7.104  11.270  17.943  0.00  0.00    +0.032 HD
BRANCH  84  86
ATOM     86  C   UNL     1      -5.877  10.686  19.579  0.00  0.00    -0.060 C 
ATOM     87  H   UNL     1      -5.666   9.623  19.724  0.00  0.00    +0.023 HD
ATOM     88  H   UNL     1      -6.792  10.905  20.138  0.00  0.00    +0.023 HD
ATOM     89  H   UNL     1      -5.062  11.264  20.028  0.00  0.00    +0.023 HD
ENDBRANCH  84  86
BRANCH  84  90
ATOM     90  C   UNL     1      -5.191  12.241  17.702  0.00  0.00    -0.041 C 
ATOM     91  H   UNL     1      -5.826  13.124  17.578  0.00  0.00    +0.027 HD
ATOM     92  H   UNL     1      -4.711  12.078  16.729  0.00  0.00    +0.027 HD
BRANCH  90  93
ATOM     93  C   UNL     1      -4.125  12.580  18.741  0.00  0.00    +0.007 C 
ATOM     94  H   UNL     1      -4.059  11.799  19.504  0.00  0.00    +0.034 HD
ATOM     95  H   UNL     1      -3.131  12.656  18.284  0.00  0.00    +0.034 HD
BRANCH  93  96
ATOM     96  C   UNL     1      -4.412  13.917  19.396  0.00  0.00    +0.139 C 
ATOM     97  O   UNL     1      -5.563  14.206  19.735  0.00  0.00    -0.297 OA
BRANCH  96  98
ATOM     98  C   UNL     1      -3.236  14.858  19.641  0.00  0.00    +0.041 C 
ATOM     99  H   UNL     1      -2.353  14.226  19.807  0.00  0.00    +0.040 HD
BRANCH  98 100
ATOM    100  C   UNL     1      -3.436  15.630  20.952  0.00  0.00    -0.053 C 
ATOM    101  H   UNL     1      -2.678  15.360  21.696  0.00  0.00    +0.024 HD
ATOM    102  H   UNL     1      -4.415  15.398  21.386  0.00  0.00    +0.024 HD
ATOM    103  H   UNL     1      -3.395  16.713  20.799  0.00  0.00    +0.024 HD
ENDBRANCH  98 100
BRANCH  98 104
ATOM    104  C   UNL     1      -2.932  15.771  18.429  0.00  0.00    +0.071 C 
ATOM    105  H   UNL     1      -2.621  16.751  18.819  0.00  0.00    +0.061 HD
BRANCH 104 106
ATOM    106  C   UNL     1      -1.839  15.225  17.474  0.00  0.00    -0.006 C 
ATOM    107  H   UNL     1      -2.268  14.512  16.759  0.00  0.00    +0.033 HD
ATOM    108  H   UNL     1      -1.435  16.036  16.856  0.00  0.00    +0.033 HD
BRANCH 106 109
ATOM    109  C   UNL     1      -0.688  14.624  18.229  0.00  0.00    -0.067 C 
ATOM    110  C   UNL     1       0.570  14.595  17.769  0.00  0.00    -0.005 C 
ATOM    111  H   UNL     1      -0.939  14.196  19.195  0.00  0.00    +0.059 HD
ATOM    112  H   UNL     1       0.784  15.063  16.809  0.00  0.00    +0.078 HD
BRANCH 110 113
ATOM    113  N   UNL     1       1.664  14.009  18.383  0.00  0.00    -0.284 N 
ATOM    114  C   UNL     1       2.608  14.683  19.155  0.00  0.00    +0.206 C 
ATOM    115  O   UNL     1       2.620  15.857  19.504  0.00  0.00    -0.279 OA
ATOM    116  H   UNL     1       3.419  14.011  19.487  0.00  0.00    +0.126 HD
BRANCH 113 117
ATOM    117  C   UNL     1       1.750  12.556  18.300  0.00  0.00    +0.007 C 
ATOM    118  H   UNL     1       2.627  12.291  17.701  0.00  0.00    +0.043 HD
ATOM    119  H   UNL     1       1.844  12.136  19.305  0.00  0.00    +0.043 HD
ATOM    120  H   UNL     1       0.866  12.126  17.820  0.00  0.00    +0.043 HD
ENDBRANCH 113 117
ENDBRANCH 110 113
ENDBRANCH 106 109
ENDBRANCH 104 106
BRANCH 104 121
ATOM    121  O   UNL     1      -4.156  15.955  17.692  0.00  0.00    -0.379 OA
BRANCH 121 122
ATOM    122  C   UNL     1      -4.764  17.223  17.914  0.00  0.00    +0.037 C 
ATOM    123  H   UNL     1      -4.485  17.913  17.112  0.00  0.00    +0.052 HD
ATOM    124  H   UNL     1      -5.855  17.148  17.972  0.00  0.00    +0.052 HD
ATOM    125  H   UNL     1      -4.386  17.620  18.859  0.00  0.00    +0.052 HD
ENDBRANCH 121 122
ENDBRANCH 104 121
ENDBRANCH  98 104
ENDBRANCH  96  98
ENDBRANCH  93  96
ENDBRANCH  90  93
ENDBRANCH  84  90
ENDBRANCH  82  84
BRANCH  82 126
ATOM    126  O   UNL     1      -4.718  10.118  16.277  0.00  0.00    -0.379 OA
BRANCH 126 127
ATOM    127  C   UNL     1      -4.069   9.004  15.675  0.00  0.00    +0.037 C 
ATOM    128  H   UNL     1      -4.712   8.129  15.797  0.00  0.00    +0.052 HD
ATOM    129  H   UNL     1      -3.909   9.175  14.609  0.00  0.00    +0.052 HD
ATOM    130  H   UNL     1      -3.114   8.804  16.170  0.00  0.00    +0.052 HD
ENDBRANCH 126 127
ENDBRANCH  82 126
ENDBRANCH  76  82
ENDBRANCH  25  76
BRANCH  31 131
ATOM    131  O   UNL     1     -13.253   9.227  16.189  0.00  0.00    -0.379 OA
BRANCH 131 132
ATOM    132  C   UNL     1     -13.133   8.219  17.187  0.00  0.00    +0.037 C 
ATOM    133  H   UNL     1     -13.486   7.251  16.821  0.00  0.00    +0.052 HD
ATOM    134  H   UNL     1     -12.076   8.125  17.454  0.00  0.00    +0.052 HD
ATOM    135  H   UNL     1     -13.690   8.503  18.084  0.00  0.00    +0.052 HD
ENDBRANCH 131 132
ENDBRANCH  31 131
BRANCH  29 136
ATOM    136  O   UNL     1     -11.296   8.275  12.774  0.00  0.00    -0.376 OA
BRANCH 136 137
ATOM    137  C   UNL     1     -12.614   8.391  12.252  0.00  0.00    +0.037 C 
ATOM    138  H   UNL     1     -13.266   7.612  12.661  0.00  0.00    +0.052 HD
ATOM    139  H   UNL     1     -12.565   8.272  11.166  0.00  0.00    +0.052 HD
ATOM    140  H   UNL     1     -13.027   9.382  12.475  0.00  0.00    +0.052 HD
ENDBRANCH 136 137
ENDBRANCH  29 136
BRANCH  16 141
ATOM    141  O   UNL     1     -12.097   9.211  25.304  0.00  0.00    -0.379 OA
BRANCH 141 142
ATOM    142  C   UNL     1     -10.948   9.168  26.143  0.00  0.00    +0.037 C 
ATOM    143  H   UNL     1     -10.275   8.359  25.845  0.00  0.00    +0.052 HD
ATOM    144  H   UNL     1     -10.411  10.112  26.033  0.00  0.00    +0.052 HD
ATOM    145  H   UNL     1     -11.231   9.055  27.193  0.00  0.00    +0.052 HD
ENDBRANCH 141 142
ENDBRANCH  16 141
BRANCH   6 146
ATOM    146  O   UNL     1      -8.705  15.584  20.311  0.00  0.00    -0.379 OA
BRANCH 146 147
ATOM    147  C   UNL     1      -8.704  16.896  19.761  0.00  0.00    +0.037 C 
ATOM    148  H   UNL     1      -7.696  17.216  19.485  0.00  0.00    +0.052 HD
ATOM    149  H   UNL     1      -9.324  16.887  18.861  0.00  0.00    +0.052 HD
ATOM    150  H   UNL     1      -9.140  17.606  20.471  0.00  0.00    +0.052 HD
ENDBRANCH 146 147
ENDBRANCH   6 146
BRANCH   4 151
ATOM    151  O   UNL     1      -8.907  14.098  16.968  0.00  0.00    -0.376 OA
BRANCH 151 152
ATOM    152  C   UNL     1      -7.600  14.663  16.948  0.00  0.00    +0.037 C 
ATOM    153  H   UNL     1      -6.864  13.948  17.332  0.00  0.00    +0.052 HD
ATOM    154  H   UNL     1      -7.345  14.895  15.910  0.00  0.00    +0.052 HD
ATOM    155  H   UNL     1      -7.565  15.590  17.524  0.00  0.00    +0.052 HD
ENDBRANCH 151 152
ENDBRANCH   4 151
TORSDOF 33
ENDMDL
MODEL 7
REMARK VINA RESULT:      -5.4      2.174      2.843
REMARK  Name = Reidispongiolide A_conf2
REMARK  33 active torsions:
REMARK  status: ('A' for Active; 'I' for Inactive)
REMARK    1  A    between atoms: C_1  and  C_2
REMARK    2  A    between atoms: C_5  and  O_67
REMARK    3  A    between atoms: C_7  and  O_65
REMARK    4  A    between atoms: C_8  and  C_64
REMARK    5  A    between atoms: C_17  and  O_62
REMARK    6  A    between atoms: C_19  and  C_61
REMARK    7  A    between atoms: C_26  and  C_38
REMARK    8  A    between atoms: C_27  and  C_37
REMARK    9  A    between atoms: C_30  and  O_35
REMARK   10  A    between atoms: C_32  and  O_33
REMARK   11  A    between atoms: O_33  and  C_34
REMARK   12  A    between atoms: O_35  and  C_36
REMARK   13  A    between atoms: C_38  and  C_39
REMARK   14  A    between atoms: C_38  and  C_40
REMARK   15  A    between atoms: C_40  and  C_41
REMARK   16  A    between atoms: C_40  and  O_59
REMARK   17  A    between atoms: C_41  and  C_42
REMARK   18  A    between atoms: C_41  and  C_43
REMARK   19  A    between atoms: C_43  and  C_44
REMARK   20  A    between atoms: C_44  and  C_45
REMARK   21  A    between atoms: C_45  and  C_47
REMARK   22  A    between atoms: C_47  and  C_48
REMARK   23  A    between atoms: C_47  and  C_49
REMARK   24  A    between atoms: C_49  and  C_50
REMARK   25  A    between atoms: C_49  and  O_57
REMARK   26  A    between atoms: C_50  and  C_51
REMARK   27  A    between atoms: C_52  and  N_53
REMARK   28  A    between atoms: N_53  and  C_54
REMARK   29  A    between atoms: O_57  and  C_58
REMARK   30  A    between atoms: O_59  and  C_60
REMARK   31  A    between atoms: O_62  and  C_63
REMARK   32  A    between atoms: O_65  and  C_66
REMARK   33  A    between atoms: O_67  and  C_68
REMARK                            x       y       z     vdW  Elec       q    Type
REMARK                         _______ _______ _______ _____ _____    ______ ____
ROOT
ATOM      1  C   UNL     1      -9.194  19.016  19.844  0.00  0.00    +0.001 C 
ATOM      2  C   UNL     1      -8.231  18.623  20.951  0.00  0.00    -0.080 C 
ATOM      3  C   UNL     1      -7.893  17.358  21.265  0.00  0.00    -0.059 C 
ATOM      4  C   UNL     1      -6.957  16.896  22.356  0.00  0.00    +0.079 C 
ATOM      5  C   UNL     1      -7.539  15.700  23.146  0.00  0.00    +0.004 C 
ATOM      6  C   UNL     1      -8.497  16.051  24.302  0.00  0.00    +0.067 C 
ATOM      7  C   UNL     1      -9.981  15.597  24.162  0.00  0.00    +0.020 C 
ATOM      8  C   UNL     1     -10.339  14.083  24.088  0.00  0.00    +0.112 C 
ATOM      9  C   UNL     1     -10.167  13.396  22.727  0.00  0.00    +0.006 C 
ATOM     10  C   UNL     1     -10.539  11.945  22.820  0.00  0.00    -0.057 C 
ATOM     11  C   UNL     1     -10.466  11.336  24.019  0.00  0.00    +0.022 C 
ATOM     12  C   UNL     1      -9.943  12.009  25.227  0.00  0.00    +0.332 C 
ATOM     13  O   UNL     1      -9.704  11.369  26.240  0.00  0.00    -0.246 OA
ATOM     14  O   UNL     1      -9.680  13.338  25.122  0.00  0.00    -0.458 OA
ATOM     15  C   UNL     1     -10.828  11.160  21.555  0.00  0.00    -0.004 C 
ATOM     16  C   UNL     1     -12.099  11.511  20.741  0.00  0.00    +0.066 C 
ATOM     17  C   UNL     1     -11.957  12.712  19.765  0.00  0.00    -0.005 C 
ATOM     18  C   UNL     1     -10.672  12.781  18.950  0.00  0.00    -0.070 C 
ATOM     19  C   UNL     1      -9.804  13.791  19.151  0.00  0.00    -0.062 C 
ATOM     20  C   UNL     1      -8.516  14.018  18.541  0.00  0.00    -0.055 C 
ATOM     21  C   UNL     1      -7.521  13.113  18.480  0.00  0.00    +0.023 C 
ATOM     22  C   UNL     1      -6.158  13.435  17.996  0.00  0.00    +0.332 C 
ATOM     23  O   UNL     1      -5.298  12.587  17.829  0.00  0.00    -0.246 OA
ATOM     24  O   UNL     1      -6.012  14.770  17.857  0.00  0.00    -0.457 OA
ATOM     25  C   UNL     1      -4.698  15.313  17.536  0.00  0.00    +0.114 C 
ATOM     26  C   UNL     1      -4.897  16.151  16.237  0.00  0.00    +0.012 C 
ATOM     27  C   UNL     1      -6.052  17.135  16.309  0.00  0.00    -0.079 C 
ATOM     28  C   UNL     1      -5.917  18.436  16.611  0.00  0.00    -0.059 C 
ATOM     29  C   UNL     1      -7.030  19.449  16.583  0.00  0.00    +0.079 C 
ATOM     30  C   UNL     1      -7.608  19.716  17.979  0.00  0.00    +0.004 C 
ATOM     31  C   UNL     1      -8.657  18.675  18.419  0.00  0.00    +0.067 C 
ATOM     32  H   UNL     1      -9.315  20.108  19.901  0.00  0.00    +0.037 HD
ATOM     33  H   UNL     1      -7.812  19.447  21.528  0.00  0.00    +0.057 HD
ATOM     34  H   UNL     1      -8.300  16.557  20.653  0.00  0.00    +0.059 HD
ATOM     35  H   UNL     1      -6.066  16.542  21.827  0.00  0.00    +0.064 HD
ATOM     36  H   UNL     1      -7.997  15.017  22.434  0.00  0.00    +0.032 HD
ATOM     37  H   UNL     1      -6.677  15.153  23.559  0.00  0.00    +0.032 HD
ATOM     38  H   UNL     1      -8.498  17.142  24.434  0.00  0.00    +0.060 HD
ATOM     39  H   UNL     1     -10.447  15.916  25.107  0.00  0.00    +0.036 HD
ATOM     40  H   UNL     1     -11.415  14.037  24.328  0.00  0.00    +0.074 HD
ATOM     41  H   UNL     1      -9.139  13.430  22.363  0.00  0.00    +0.035 HD
ATOM     42  H   UNL     1     -10.812  13.900  22.007  0.00  0.00    +0.035 HD
ATOM     43  H   UNL     1     -10.666  10.278  24.148  0.00  0.00    +0.069 HD
ATOM     44  H   UNL     1     -10.903  10.097  21.826  0.00  0.00    +0.034 HD
ATOM     45  H   UNL     1      -9.937  11.197  20.917  0.00  0.00    +0.034 HD
ATOM     46  H   UNL     1     -12.910  11.732  21.450  0.00  0.00    +0.060 HD
ATOM     47  H   UNL     1     -12.081  13.638  20.341  0.00  0.00    +0.034 HD
ATOM     48  H   UNL     1     -12.793  12.721  19.050  0.00  0.00    +0.034 HD
ATOM     49  H   UNL     1     -10.074  14.576  19.857  0.00  0.00    +0.062 HD
ATOM     50  H   UNL     1      -8.345  15.046  18.220  0.00  0.00    +0.062 HD
ATOM     51  H   UNL     1      -7.649  12.094  18.825  0.00  0.00    +0.069 HD
ATOM     52  H   UNL     1      -3.994  14.497  17.325  0.00  0.00    +0.074 HD
ATOM     53  H   UNL     1      -3.992  16.708  15.993  0.00  0.00    +0.038 HD
ATOM     54  H   UNL     1      -7.036  16.742  16.065  0.00  0.00    +0.057 HD
ATOM     55  H   UNL     1      -4.929  18.827  16.859  0.00  0.00    +0.059 HD
ATOM     56  H   UNL     1      -7.830  19.139  15.898  0.00  0.00    +0.064 HD
ATOM     57  H   UNL     1      -8.078  20.710  17.972  0.00  0.00    +0.032 HD
ATOM     58  H   UNL     1      -6.796  19.767  18.712  0.00  0.00    +0.032 HD
ATOM     59  H   UNL     1      -8.193  17.681  18.419  0.00  0.00    +0.060 HD
ENDROOT
BRANCH   1  60
ATOM     60  C   UNL     1     -10.590  18.449  20.125  0.00  0.00    -0.057 C 
ATOM     61  H   UNL     1     -11.308  19.255  20.312  0.00  0.00    +0.024 HD
ATOM     62  H   UNL     1     -10.592  17.786  20.993  0.00  0.00    +0.024 HD
ATOM     63  H   UNL     1     -10.968  17.884  19.266  0.00  0.00    +0.024 HD
ENDBRANCH   1  60
BRANCH  26  64
ATOM     64  C   UNL     1      -5.134  15.214  15.039  0.00  0.00    -0.056 C 
ATOM     65  H   UNL     1      -5.729  14.340  15.320  0.00  0.00    +0.024 HD
ATOM     66  H   UNL     1      -4.180  14.860  14.633  0.00  0.00    +0.024 HD
ATOM     67  H   UNL     1      -5.664  15.738  14.237  0.00  0.00    +0.024 HD
ENDBRANCH  26  64
BRANCH  18  68
ATOM     68  C   UNL     1     -10.499  11.688  17.930  0.00  0.00    -0.043 C 
ATOM     69  H   UNL     1     -11.082  10.803  18.220  0.00  0.00    +0.027 HD
ATOM     70  H   UNL     1     -10.848  11.974  16.931  0.00  0.00    +0.027 HD
ATOM     71  H   UNL     1      -9.446  11.396  17.848  0.00  0.00    +0.027 HD
ENDBRANCH  18  68
BRANCH   7  72
ATOM     72  C   UNL     1     -10.701  16.393  23.072  0.00  0.00    -0.057 C 
ATOM     73  H   UNL     1     -11.292  15.724  22.434  0.00  0.00    +0.023 HD
ATOM     74  H   UNL     1      -9.980  16.909  22.424  0.00  0.00    +0.023 HD
ATOM     75  H   UNL     1     -11.373  17.144  23.493  0.00  0.00    +0.023 HD
ENDBRANCH   7  72
BRANCH  25  76
ATOM     76  C   UNL     1      -4.175  16.082  18.795  0.00  0.00    +0.020 C 
ATOM     77  H   UNL     1      -4.851  16.926  18.964  0.00  0.00    +0.036 HD
BRANCH  76  78
ATOM     78  C   UNL     1      -4.293  15.176  20.042  0.00  0.00    -0.057 C 
ATOM     79  H   UNL     1      -4.066  15.723  20.960  0.00  0.00    +0.023 HD
ATOM     80  H   UNL     1      -5.307  14.766  20.132  0.00  0.00    +0.023 HD
ATOM     81  H   UNL     1      -3.600  14.333  20.009  0.00  0.00    +0.023 HD
ENDBRANCH  76  78
BRANCH  76  82
ATOM     82  C   UNL     1      -2.697  16.589  18.700  0.00  0.00    +0.067 C 
ATOM     83  H   UNL     1      -2.513  16.831  17.644  0.00  0.00    +0.060 HD
BRANCH  82  84
ATOM     84  C   UNL     1      -1.644  15.517  19.138  0.00  0.00    -0.017 C 
ATOM     85  H   UNL     1      -2.117  14.822  19.841  0.00  0.00    +0.032 HD
BRANCH  84  86
ATOM     86  C   UNL     1      -1.214  14.682  17.920  0.00  0.00    -0.060 C 
ATOM     87  H   UNL     1      -0.173  14.884  17.656  0.00  0.00    +0.023 HD
ATOM     88  H   UNL     1      -1.817  14.928  17.040  0.00  0.00    +0.023 HD
ATOM     89  H   UNL     1      -1.319  13.608  18.110  0.00  0.00    +0.023 HD
ENDBRANCH  84  86
BRANCH  84  90
ATOM     90  C   UNL     1      -0.406  16.139  19.828  0.00  0.00    -0.041 C 
ATOM     91  H   UNL     1      -0.699  16.635  20.758  0.00  0.00    +0.027 HD
ATOM     92  H   UNL     1       0.027  16.921  19.193  0.00  0.00    +0.027 HD
BRANCH  90  93
ATOM     93  C   UNL     1       0.671  15.112  20.170  0.00  0.00    +0.007 C 
ATOM     94  H   UNL     1       0.485  14.660  21.149  0.00  0.00    +0.034 HD
ATOM     95  H   UNL     1       0.685  14.291  19.444  0.00  0.00    +0.034 HD
BRANCH  93  96
ATOM     96  C   UNL     1       2.049  15.744  20.148  0.00  0.00    +0.139 C 
ATOM     97  O   UNL     1       2.180  16.932  19.842  0.00  0.00    -0.297 OA
BRANCH  96  98
ATOM     98  C   UNL     1       3.239  14.874  20.545  0.00  0.00    +0.041 C 
ATOM     99  H   UNL     1       3.973  14.953  19.733  0.00  0.00    +0.040 HD
BRANCH  98 100
ATOM    100  C   UNL     1       2.829  13.395  20.581  0.00  0.00    -0.053 C 
ATOM    101  H   UNL     1       3.221  12.849  19.715  0.00  0.00    +0.024 HD
ATOM    102  H   UNL     1       1.737  13.301  20.558  0.00  0.00    +0.024 HD
ATOM    103  H   UNL     1       3.180  12.897  21.489  0.00  0.00    +0.024 HD
ENDBRANCH  98 100
BRANCH  98 104
ATOM    104  C   UNL     1       3.929  15.354  21.845  0.00  0.00    +0.071 C 
ATOM    105  H   UNL     1       3.499  16.331  22.108  0.00  0.00    +0.061 HD
BRANCH 104 106
ATOM    106  C   UNL     1       3.779  14.384  23.045  0.00  0.00    -0.006 C 
ATOM    107  H   UNL     1       2.720  14.207  23.272  0.00  0.00    +0.033 HD
ATOM    108  H   UNL     1       4.181  13.397  22.788  0.00  0.00    +0.033 HD
BRANCH 106 109
ATOM    109  C   UNL     1       4.528  14.870  24.253  0.00  0.00    -0.067 C 
ATOM    110  C   UNL     1       4.298  16.049  24.847  0.00  0.00    -0.005 C 
ATOM    111  H   UNL     1       5.293  14.197  24.626  0.00  0.00    +0.059 HD
ATOM    112  H   UNL     1       3.500  16.680  24.458  0.00  0.00    +0.078 HD
BRANCH 110 113
ATOM    113  N   UNL     1       4.986  16.583  25.923  0.00  0.00    -0.284 N 
ATOM    114  C   UNL     1       4.397  17.181  27.035  0.00  0.00    +0.206 C 
ATOM    115  O   UNL     1       3.210  17.279  27.318  0.00  0.00    -0.279 OA
ATOM    116  H   UNL     1       5.155  17.584  27.730  0.00  0.00    +0.126 HD
BRANCH 113 117
ATOM    117  C   UNL     1       6.431  16.388  25.927  0.00  0.00    +0.007 C 
ATOM    118  H   UNL     1       6.641  15.323  26.071  0.00  0.00    +0.043 HD
ATOM    119  H   UNL     1       6.850  16.727  24.976  0.00  0.00    +0.043 HD
ATOM    120  H   UNL     1       6.910  16.943  26.740  0.00  0.00    +0.043 HD
ENDBRANCH 113 117
ENDBRANCH 110 113
ENDBRANCH 106 109
ENDBRANCH 104 106
BRANCH 104 121
ATOM    121  O   UNL     1       5.328  15.545  21.561  0.00  0.00    -0.379 OA
BRANCH 121 122
ATOM    122  C   UNL     1       5.670  16.902  21.298  0.00  0.00    +0.037 C 
ATOM    123  H   UNL     1       6.725  17.070  21.533  0.00  0.00    +0.052 HD
ATOM    124  H   UNL     1       5.477  17.176  20.255  0.00  0.00    +0.052 HD
ATOM    125  H   UNL     1       5.065  17.537  21.949  0.00  0.00    +0.052 HD
ENDBRANCH 121 122
ENDBRANCH 104 121
ENDBRANCH  98 104
ENDBRANCH  96  98
ENDBRANCH  93  96
ENDBRANCH  90  93
ENDBRANCH  84  90
ENDBRANCH  82  84
BRANCH  82 126
ATOM    126  O   UNL     1      -2.489  17.752  19.498  0.00  0.00    -0.379 OA
BRANCH 126 127
ATOM    127  C   UNL     1      -3.394  18.809  19.203  0.00  0.00    +0.037 C 
ATOM    128  H   UNL     1      -3.473  19.447  20.087  0.00  0.00    +0.052 HD
ATOM    129  H   UNL     1      -3.033  19.412  18.368  0.00  0.00    +0.052 HD
ATOM    130  H   UNL     1      -4.388  18.409  18.974  0.00  0.00    +0.052 HD
ENDBRANCH 126 127
ENDBRANCH  82 126
ENDBRANCH  76  82
ENDBRANCH  25  76
BRANCH  31 131
ATOM    131  O   UNL     1      -9.732  18.716  17.466  0.00  0.00    -0.379 OA
BRANCH 131 132
ATOM    132  C   UNL     1     -10.203  17.429  17.086  0.00  0.00    +0.037 C 
ATOM    133  H   UNL     1     -11.243  17.279  17.389  0.00  0.00    +0.052 HD
ATOM    134  H   UNL     1     -10.144  17.351  15.996  0.00  0.00    +0.052 HD
ATOM    135  H   UNL     1      -9.573  16.648  17.521  0.00  0.00    +0.052 HD
ENDBRANCH 131 132
ENDBRANCH  31 131
BRANCH  29 136
ATOM    136  O   UNL     1      -6.457  20.680  16.119  0.00  0.00    -0.376 OA
BRANCH 136 137
ATOM    137  C   UNL     1      -5.109  20.846  16.545  0.00  0.00    +0.037 C 
ATOM    138  H   UNL     1      -4.837  21.906  16.572  0.00  0.00    +0.052 HD
ATOM    139  H   UNL     1      -4.458  20.335  15.831  0.00  0.00    +0.052 HD
ATOM    140  H   UNL     1      -4.964  20.395  17.534  0.00  0.00    +0.052 HD
ENDBRANCH 136 137
ENDBRANCH  29 136
BRANCH  16 141
ATOM    141  O   UNL     1     -12.459  10.320  20.012  0.00  0.00    -0.379 OA
BRANCH 141 142
ATOM    142  C   UNL     1     -11.767   9.150  20.434  0.00  0.00    +0.037 C 
ATOM    143  H   UNL     1     -11.392   8.585  19.575  0.00  0.00    +0.052 HD
ATOM    144  H   UNL     1     -10.910   9.460  21.035  0.00  0.00    +0.052 HD
ATOM    145  H   UNL     1     -12.408   8.515  21.052  0.00  0.00    +0.052 HD
ENDBRANCH 141 142
ENDBRANCH  16 141
BRANCH   6 146
ATOM    146  O   UNL     1      -7.914  15.466  25.481  0.00  0.00    -0.379 OA
BRANCH 146 147
ATOM    147  C   UNL     1      -7.624  16.407  26.508  0.00  0.00    +0.037 C 
ATOM    148  H   UNL     1      -8.035  16.091  27.471  0.00  0.00    +0.052 HD
ATOM    149  H   UNL     1      -6.539  16.483  26.603  0.00  0.00    +0.052 HD
ATOM    150  H   UNL     1      -8.016  17.394  26.241  0.00  0.00    +0.052 HD
ENDBRANCH 146 147
ENDBRANCH   6 146
BRANCH   4 151
ATOM    151  O   UNL     1      -6.574  17.990  23.187  0.00  0.00    -0.376 OA
BRANCH 151 152
ATOM    152  C   UNL     1      -5.314  17.796  23.821  0.00  0.00    +0.037 C 
ATOM    153  H   UNL     1      -4.930  18.743  24.215  0.00  0.00    +0.052 HD
ATOM    154  H   UNL     1      -5.456  17.108  24.658  0.00  0.00    +0.052 HD
ATOM    155  H   UNL     1      -4.593  17.352  23.130  0.00  0.00    +0.052 HD
ENDBRANCH 151 152
ENDBRANCH   4 151
TORSDOF 33
ENDMDL
MODEL 8
REMARK VINA RESULT:      -5.3      4.699     11.096
REMARK  Name = Reidispongiolide A_conf2
REMARK  33 active torsions:
REMARK  status: ('A' for Active; 'I' for Inactive)
REMARK    1  A    between atoms: C_1  and  C_2
REMARK    2  A    between atoms: C_5  and  O_67
REMARK    3  A    between atoms: C_7  and  O_65
REMARK    4  A    between atoms: C_8  and  C_64
REMARK    5  A    between atoms: C_17  and  O_62
REMARK    6  A    between atoms: C_19  and  C_61
REMARK    7  A    between atoms: C_26  and  C_38
REMARK    8  A    between atoms: C_27  and  C_37
REMARK    9  A    between atoms: C_30  and  O_35
REMARK   10  A    between atoms: C_32  and  O_33
REMARK   11  A    between atoms: O_33  and  C_34
REMARK   12  A    between atoms: O_35  and  C_36
REMARK   13  A    between atoms: C_38  and  C_39
REMARK   14  A    between atoms: C_38  and  C_40
REMARK   15  A    between atoms: C_40  and  C_41
REMARK   16  A    between atoms: C_40  and  O_59
REMARK   17  A    between atoms: C_41  and  C_42
REMARK   18  A    between atoms: C_41  and  C_43
REMARK   19  A    between atoms: C_43  and  C_44
REMARK   20  A    between atoms: C_44  and  C_45
REMARK   21  A    between atoms: C_45  and  C_47
REMARK   22  A    between atoms: C_47  and  C_48
REMARK   23  A    between atoms: C_47  and  C_49
REMARK   24  A    between atoms: C_49  and  C_50
REMARK   25  A    between atoms: C_49  and  O_57
REMARK   26  A    between atoms: C_50  and  C_51
REMARK   27  A    between atoms: C_52  and  N_53
REMARK   28  A    between atoms: N_53  and  C_54
REMARK   29  A    between atoms: O_57  and  C_58
REMARK   30  A    between atoms: O_59  and  C_60
REMARK   31  A    between atoms: O_62  and  C_63
REMARK   32  A    between atoms: O_65  and  C_66
REMARK   33  A    between atoms: O_67  and  C_68
REMARK                            x       y       z     vdW  Elec       q    Type
REMARK                         _______ _______ _______ _____ _____    ______ ____
ROOT
ATOM      1  C   UNL     1     -12.435  15.137  19.400  0.00  0.00    +0.001 C 
ATOM      2  C   UNL     1     -12.525  13.639  19.633  0.00  0.00    -0.080 C 
ATOM      3  C   UNL     1     -11.494  12.853  20.000  0.00  0.00    -0.059 C 
ATOM      4  C   UNL     1     -11.509  11.362  20.238  0.00  0.00    +0.079 C 
ATOM      5  C   UNL     1     -10.291  10.663  19.587  0.00  0.00    +0.004 C 
ATOM      6  C   UNL     1     -10.436  10.293  18.098  0.00  0.00    +0.067 C 
ATOM      7  C   UNL     1      -9.496  11.017  17.088  0.00  0.00    +0.020 C 
ATOM      8  C   UNL     1      -7.953  10.824  17.170  0.00  0.00    +0.112 C 
ATOM      9  C   UNL     1      -7.205  11.658  18.218  0.00  0.00    +0.006 C 
ATOM     10  C   UNL     1      -5.736  11.354  18.181  0.00  0.00    -0.057 C 
ATOM     11  C   UNL     1      -5.335  10.162  17.699  0.00  0.00    +0.022 C 
ATOM     12  C   UNL     1      -6.286   9.103  17.295  0.00  0.00    +0.332 C 
ATOM     13  O   UNL     1      -5.890   7.972  17.056  0.00  0.00    -0.246 OA
ATOM     14  O   UNL     1      -7.602   9.437  17.278  0.00  0.00    -0.458 OA
ATOM     15  C   UNL     1      -4.753  12.311  18.828  0.00  0.00    -0.004 C 
ATOM     16  C   UNL     1      -4.555  13.710  18.193  0.00  0.00    +0.066 C 
ATOM     17  C   UNL     1      -5.608  14.781  18.593  0.00  0.00    -0.005 C 
ATOM     18  C   UNL     1      -6.006  14.829  20.063  0.00  0.00    -0.070 C 
ATOM     19  C   UNL     1      -7.265  14.520  20.427  0.00  0.00    -0.062 C 
ATOM     20  C   UNL     1      -7.837  14.444  21.749  0.00  0.00    -0.055 C 
ATOM     21  C   UNL     1      -7.320  13.742  22.775  0.00  0.00    +0.023 C 
ATOM     22  C   UNL     1      -8.020  13.551  24.067  0.00  0.00    +0.332 C 
ATOM     23  O   UNL     1      -7.497  13.019  25.031  0.00  0.00    -0.246 OA
ATOM     24  O   UNL     1      -9.299  13.973  23.973  0.00  0.00    -0.457 OA
ATOM     25  C   UNL     1     -10.210  13.737  25.087  0.00  0.00    +0.114 C 
ATOM     26  C   UNL     1     -10.769  15.139  25.475  0.00  0.00    +0.012 C 
ATOM     27  C   UNL     1     -11.309  15.934  24.299  0.00  0.00    -0.079 C 
ATOM     28  C   UNL     1     -12.606  15.990  23.956  0.00  0.00    -0.059 C 
ATOM     29  C   UNL     1     -13.174  16.855  22.864  0.00  0.00    +0.079 C 
ATOM     30  C   UNL     1     -13.397  16.075  21.562  0.00  0.00    +0.004 C 
ATOM     31  C   UNL     1     -12.125  15.940  20.701  0.00  0.00    +0.067 C 
ATOM     32  H   UNL     1     -13.421  15.461  19.035  0.00  0.00    +0.037 HD
ATOM     33  H   UNL     1     -13.505  13.192  19.468  0.00  0.00    +0.057 HD
ATOM     34  H   UNL     1     -10.536  13.328  20.191  0.00  0.00    +0.059 HD
ATOM     35  H   UNL     1     -11.415  11.251  21.323  0.00  0.00    +0.064 HD
ATOM     36  H   UNL     1      -9.413  11.280  19.768  0.00  0.00    +0.032 HD
ATOM     37  H   UNL     1     -10.120   9.740  20.163  0.00  0.00    +0.032 HD
ATOM     38  H   UNL     1     -11.471  10.496  17.788  0.00  0.00    +0.060 HD
ATOM     39  H   UNL     1      -9.751  10.564  16.116  0.00  0.00    +0.036 HD
ATOM     40  H   UNL     1      -7.576  11.149  16.184  0.00  0.00    +0.074 HD
ATOM     41  H   UNL     1      -7.539  11.454  19.236  0.00  0.00    +0.035 HD
ATOM     42  H   UNL     1      -7.372  12.713  17.997  0.00  0.00    +0.035 HD
ATOM     43  H   UNL     1      -4.296   9.854  17.695  0.00  0.00    +0.069 HD
ATOM     44  H   UNL     1      -3.767  11.823  18.845  0.00  0.00    +0.034 HD
ATOM     45  H   UNL     1      -5.010  12.400  19.890  0.00  0.00    +0.034 HD
ATOM     46  H   UNL     1      -4.575  13.596  17.099  0.00  0.00    +0.060 HD
ATOM     47  H   UNL     1      -6.501  14.634  17.972  0.00  0.00    +0.034 HD
ATOM     48  H   UNL     1      -5.249  15.785  18.324  0.00  0.00    +0.034 HD
ATOM     49  H   UNL     1      -7.993  14.299  19.646  0.00  0.00    +0.062 HD
ATOM     50  H   UNL     1      -8.816  14.915  21.845  0.00  0.00    +0.062 HD
ATOM     51  H   UNL     1      -6.366  13.232  22.699  0.00  0.00    +0.069 HD
ATOM     52  H   UNL     1      -9.659  13.327  25.944  0.00  0.00    +0.074 HD
ATOM     53  H   UNL     1     -11.565  15.047  26.215  0.00  0.00    +0.038 HD
ATOM     54  H   UNL     1     -10.581  16.512  23.733  0.00  0.00    +0.057 HD
ATOM     55  H   UNL     1     -13.333  15.407  24.523  0.00  0.00    +0.059 HD
ATOM     56  H   UNL     1     -12.533  17.727  22.675  0.00  0.00    +0.064 HD
ATOM     57  H   UNL     1     -14.166  16.598  20.975  0.00  0.00    +0.032 HD
ATOM     58  H   UNL     1     -13.806  15.085  21.789  0.00  0.00    +0.032 HD
ATOM     59  H   UNL     1     -11.353  15.426  21.286  0.00  0.00    +0.060 HD
ENDROOT
BRANCH   1  60
ATOM     60  C   UNL     1     -11.469  15.440  18.248  0.00  0.00    -0.057 C 
ATOM     61  H   UNL     1     -10.671  14.691  18.201  0.00  0.00    +0.024 HD
ATOM     62  H   UNL     1     -11.006  16.423  18.355  0.00  0.00    +0.024 HD
ATOM     63  H   UNL     1     -11.985  15.412  17.282  0.00  0.00    +0.024 HD
ENDBRANCH   1  60
BRANCH  26  64
ATOM     64  C   UNL     1      -9.671  15.971  26.159  0.00  0.00    -0.056 C 
ATOM     65  H   UNL     1      -9.330  15.507  27.089  0.00  0.00    +0.024 HD
ATOM     66  H   UNL     1     -10.040  16.975  26.395  0.00  0.00    +0.024 HD
ATOM     67  H   UNL     1      -8.802  16.082  25.500  0.00  0.00    +0.024 HD
ENDBRANCH  26  64
BRANCH  18  68
ATOM     68  C   UNL     1      -4.920  15.268  21.009  0.00  0.00    -0.043 C 
ATOM     69  H   UNL     1      -4.491  14.398  21.524  0.00  0.00    +0.027 HD
ATOM     70  H   UNL     1      -4.087  15.769  20.502  0.00  0.00    +0.027 HD
ATOM     71  H   UNL     1      -5.318  15.956  21.764  0.00  0.00    +0.027 HD
ENDBRANCH  18  68
BRANCH   7  72
ATOM     72  C   UNL     1      -9.866  12.495  16.951  0.00  0.00    -0.057 C 
ATOM     73  H   UNL     1     -10.921  12.603  16.674  0.00  0.00    +0.023 HD
ATOM     74  H   UNL     1      -9.271  12.975  16.164  0.00  0.00    +0.023 HD
ATOM     75  H   UNL     1      -9.699  13.043  17.881  0.00  0.00    +0.023 HD
ENDBRANCH   7  72
BRANCH  25  76
ATOM     76  C   UNL     1     -11.256  12.664  24.633  0.00  0.00    +0.020 C 
ATOM     77  H   UNL     1     -12.117  13.202  24.224  0.00  0.00    +0.036 HD
BRANCH  76  78
ATOM     78  C   UNL     1     -10.672  11.830  23.470  0.00  0.00    -0.057 C 
ATOM     79  H   UNL     1     -11.117  10.834  23.426  0.00  0.00    +0.023 HD
ATOM     80  H   UNL     1     -10.851  12.325  22.507  0.00  0.00    +0.023 HD
ATOM     81  H   UNL     1      -9.595  11.680  23.566  0.00  0.00    +0.023 HD
ENDBRANCH  76  78
BRANCH  76  82
ATOM     82  C   UNL     1     -11.723  11.675  25.753  0.00  0.00    +0.067 C 
ATOM     83  H   UNL     1     -12.498  12.196  26.332  0.00  0.00    +0.060 HD
BRANCH  82  84
ATOM     84  C   UNL     1     -10.579  11.268  26.740  0.00  0.00    -0.017 C 
ATOM     85  H   UNL     1      -9.670  11.820  26.474  0.00  0.00    +0.032 HD
BRANCH  84  86
ATOM     86  C   UNL     1     -10.947  11.699  28.170  0.00  0.00    -0.060 C 
ATOM     87  H   UNL     1     -11.731  11.056  28.581  0.00  0.00    +0.023 HD
ATOM     88  H   UNL     1     -11.339  12.721  28.186  0.00  0.00    +0.023 HD
ATOM     89  H   UNL     1     -10.082  11.659  28.840  0.00  0.00    +0.023 HD
ENDBRANCH  84  86
BRANCH  84  90
ATOM     90  C   UNL     1     -10.259   9.755  26.699  0.00  0.00    -0.041 C 
ATOM     91  H   UNL     1      -9.896   9.471  25.707  0.00  0.00    +0.027 HD
ATOM     92  H   UNL     1     -11.173   9.172  26.863  0.00  0.00    +0.027 HD
BRANCH  90  93
ATOM     93  C   UNL     1      -9.202   9.335  27.717  0.00  0.00    +0.007 C 
ATOM     94  H   UNL     1      -8.358  10.033  27.716  0.00  0.00    +0.034 HD
ATOM     95  H   UNL     1      -9.607   9.334  28.736  0.00  0.00    +0.034 HD
BRANCH  93  96
ATOM     96  C   UNL     1      -8.707   7.930  27.437  0.00  0.00    +0.139 C 
ATOM     97  O   UNL     1      -7.863   7.734  26.559  0.00  0.00    -0.297 OA
BRANCH  96  98
ATOM     98  C   UNL     1      -9.264   6.795  28.292  0.00  0.00    +0.041 C 
ATOM     99  H   UNL     1      -9.600   7.244  29.236  0.00  0.00    +0.040 HD
BRANCH  98 100
ATOM    100  C   UNL     1      -8.143   5.822  28.681  0.00  0.00    -0.053 C 
ATOM    101  H   UNL     1      -8.395   4.791  28.409  0.00  0.00    +0.024 HD
ATOM    102  H   UNL     1      -7.979   5.842  29.765  0.00  0.00    +0.024 HD
ATOM    103  H   UNL     1      -7.194   6.081  28.203  0.00  0.00    +0.024 HD
ENDBRANCH  98 100
BRANCH  98 104
ATOM    104  C   UNL     1     -10.487   6.099  27.646  0.00  0.00    +0.071 C 
ATOM    105  H   UNL     1     -11.095   6.877  27.161  0.00  0.00    +0.061 HD
BRANCH 104 106
ATOM    106  C   UNL     1     -10.128   5.005  26.609  0.00  0.00    -0.006 C 
ATOM    107  H   UNL     1      -9.156   4.551  26.844  0.00  0.00    +0.033 HD
ATOM    108  H   UNL     1     -10.845   4.179  26.664  0.00  0.00    +0.033 HD
BRANCH 106 109
ATOM    109  C   UNL     1     -10.164   5.534  25.203  0.00  0.00    -0.067 C 
ATOM    110  C   UNL     1     -10.879   6.604  24.829  0.00  0.00    -0.005 C 
ATOM    111  H   UNL     1      -9.567   4.982  24.484  0.00  0.00    +0.059 HD
ATOM    112  H   UNL     1     -11.440   7.147  25.589  0.00  0.00    +0.078 HD
BRANCH 110 113
ATOM    113  N   UNL     1     -11.003   7.110  23.547  0.00  0.00    -0.284 N 
ATOM    114  C   UNL     1     -10.097   7.972  22.932  0.00  0.00    +0.206 C 
ATOM    115  O   UNL     1      -9.016   8.373  23.344  0.00  0.00    -0.279 OA
ATOM    116  H   UNL     1     -10.445   8.284  21.931  0.00  0.00    +0.126 HD
BRANCH 113 117
ATOM    117  C   UNL     1     -12.114   6.596  22.754  0.00  0.00    +0.007 C 
ATOM    118  H   UNL     1     -11.814   5.643  22.306  0.00  0.00    +0.043 HD
ATOM    119  H   UNL     1     -12.987   6.449  23.396  0.00  0.00    +0.043 HD
ATOM    120  H   UNL     1     -12.384   7.283  21.946  0.00  0.00    +0.043 HD
ENDBRANCH 113 117
ENDBRANCH 110 113
ENDBRANCH 106 109
ENDBRANCH 104 106
BRANCH 104 121
ATOM    121  O   UNL     1     -11.274   5.513  28.701  0.00  0.00    -0.379 OA
BRANCH 121 122
ATOM    122  C   UNL     1     -11.515   4.122  28.519  0.00  0.00    +0.037 C 
ATOM    123  H   UNL     1     -11.791   3.666  29.474  0.00  0.00    +0.052 HD
ATOM    124  H   UNL     1     -12.304   3.938  27.782  0.00  0.00    +0.052 HD
ATOM    125  H   UNL     1     -10.589   3.660  28.169  0.00  0.00    +0.052 HD
ENDBRANCH 121 122
ENDBRANCH 104 121
ENDBRANCH  98 104
ENDBRANCH  96  98
ENDBRANCH  93  96
ENDBRANCH  90  93
ENDBRANCH  84  90
ENDBRANCH  82  84
BRANCH  82 126
ATOM    126  O   UNL     1     -12.266  10.476  25.202  0.00  0.00    -0.379 OA
BRANCH 126 127
ATOM    127  C   UNL     1     -13.688  10.449  25.199  0.00  0.00    +0.037 C 
ATOM    128  H   UNL     1     -14.011   9.456  25.519  0.00  0.00    +0.052 HD
ATOM    129  H   UNL     1     -14.094  11.189  25.892  0.00  0.00    +0.052 HD
ATOM    130  H   UNL     1     -14.073  10.631  24.190  0.00  0.00    +0.052 HD
ENDBRANCH 126 127
ENDBRANCH  82 126
ENDBRANCH  76  82
ENDBRANCH  25  76
BRANCH  31 131
ATOM    131  O   UNL     1     -11.687  17.267  20.366  0.00  0.00    -0.379 OA
BRANCH 131 132
ATOM    132  C   UNL     1     -10.380  17.569  20.839  0.00  0.00    +0.037 C 
ATOM    133  H   UNL     1      -9.649  17.558  20.025  0.00  0.00    +0.052 HD
ATOM    134  H   UNL     1     -10.397  18.573  21.275  0.00  0.00    +0.052 HD
ATOM    135  H   UNL     1     -10.082  16.861  21.616  0.00  0.00    +0.052 HD
ENDBRANCH 131 132
ENDBRANCH  31 131
BRANCH  29 136
ATOM    136  O   UNL     1     -14.461  17.301  23.316  0.00  0.00    -0.376 OA
BRANCH 136 137
ATOM    137  C   UNL     1     -15.240  17.863  22.267  0.00  0.00    +0.037 C 
ATOM    138  H   UNL     1     -15.512  18.899  22.496  0.00  0.00    +0.052 HD
ATOM    139  H   UNL     1     -16.156  17.275  22.167  0.00  0.00    +0.052 HD
ATOM    140  H   UNL     1     -14.692  17.819  21.319  0.00  0.00    +0.052 HD
ENDBRANCH 136 137
ENDBRANCH  29 136
BRANCH  16 141
ATOM    141  O   UNL     1      -3.234  14.147  18.570  0.00  0.00    -0.379 OA
BRANCH 141 142
ATOM    142  C   UNL     1      -2.792  15.315  17.888  0.00  0.00    +0.037 C 
ATOM    143  H   UNL     1      -3.339  16.198  18.229  0.00  0.00    +0.052 HD
ATOM    144  H   UNL     1      -1.735  15.463  18.117  0.00  0.00    +0.052 HD
ATOM    145  H   UNL     1      -2.896  15.202  16.805  0.00  0.00    +0.052 HD
ENDBRANCH 141 142
ENDBRANCH  16 141
BRANCH   6 146
ATOM    146  O   UNL     1     -10.228   8.870  18.030  0.00  0.00    -0.379 OA
BRANCH 146 147
ATOM    147  C   UNL     1     -10.089   8.246  19.300  0.00  0.00    +0.037 C 
ATOM    148  H   UNL     1     -11.058   8.105  19.788  0.00  0.00    +0.052 HD
ATOM    149  H   UNL     1      -9.631   7.266  19.150  0.00  0.00    +0.052 HD
ATOM    150  H   UNL     1      -9.431   8.839  19.944  0.00  0.00    +0.052 HD
ENDBRANCH 146 147
ENDBRANCH   6 146
BRANCH   4 151
ATOM    151  O   UNL     1     -12.760  10.802  19.842  0.00  0.00    -0.376 OA
BRANCH 151 152
ATOM    152  C   UNL     1     -13.221   9.785  20.726  0.00  0.00    +0.037 C 
ATOM    153  H   UNL     1     -12.513   8.951  20.758  0.00  0.00    +0.052 HD
ATOM    154  H   UNL     1     -13.295  10.213  21.730  0.00  0.00    +0.052 HD
ATOM    155  H   UNL     1     -14.212   9.431  20.431  0.00  0.00    +0.052 HD
ENDBRANCH 151 152
ENDBRANCH   4 151
TORSDOF 33
ENDMDL
MODEL 9
REMARK VINA RESULT:      -5.3      4.535     11.168
REMARK  Name = Reidispongiolide A_conf2
REMARK  33 active torsions:
REMARK  status: ('A' for Active; 'I' for Inactive)
REMARK    1  A    between atoms: C_1  and  C_2
REMARK    2  A    between atoms: C_5  and  O_67
REMARK    3  A    between atoms: C_7  and  O_65
REMARK    4  A    between atoms: C_8  and  C_64
REMARK    5  A    between atoms: C_17  and  O_62
REMARK    6  A    between atoms: C_19  and  C_61
REMARK    7  A    between atoms: C_26  and  C_38
REMARK    8  A    between atoms: C_27  and  C_37
REMARK    9  A    between atoms: C_30  and  O_35
REMARK   10  A    between atoms: C_32  and  O_33
REMARK   11  A    between atoms: O_33  and  C_34
REMARK   12  A    between atoms: O_35  and  C_36
REMARK   13  A    between atoms: C_38  and  C_39
REMARK   14  A    between atoms: C_38  and  C_40
REMARK   15  A    between atoms: C_40  and  C_41
REMARK   16  A    between atoms: C_40  and  O_59
REMARK   17  A    between atoms: C_41  and  C_42
REMARK   18  A    between atoms: C_41  and  C_43
REMARK   19  A    between atoms: C_43  and  C_44
REMARK   20  A    between atoms: C_44  and  C_45
REMARK   21  A    between atoms: C_45  and  C_47
REMARK   22  A    between atoms: C_47  and  C_48
REMARK   23  A    between atoms: C_47  and  C_49
REMARK   24  A    between atoms: C_49  and  C_50
REMARK   25  A    between atoms: C_49  and  O_57
REMARK   26  A    between atoms: C_50  and  C_51
REMARK   27  A    between atoms: C_52  and  N_53
REMARK   28  A    between atoms: N_53  and  C_54
REMARK   29  A    between atoms: O_57  and  C_58
REMARK   30  A    between atoms: O_59  and  C_60
REMARK   31  A    between atoms: O_62  and  C_63
REMARK   32  A    between atoms: O_65  and  C_66
REMARK   33  A    between atoms: O_67  and  C_68
REMARK                            x       y       z     vdW  Elec       q    Type
REMARK                         _______ _______ _______ _____ _____    ______ ____
ROOT
ATOM      1  C   UNL     1     -11.903  15.775  19.526  0.00  0.00    +0.001 C 
ATOM      2  C   UNL     1     -12.141  14.283  19.687  0.00  0.00    -0.080 C 
ATOM      3  C   UNL     1     -11.205  13.389  20.060  0.00  0.00    -0.059 C 
ATOM      4  C   UNL     1     -11.368  11.898  20.227  0.00  0.00    +0.079 C 
ATOM      5  C   UNL     1     -10.191  11.116  19.596  0.00  0.00    +0.004 C 
ATOM      6  C   UNL     1     -10.301  10.824  18.086  0.00  0.00    +0.067 C 
ATOM      7  C   UNL     1      -9.252  11.499  17.151  0.00  0.00    +0.020 C 
ATOM      8  C   UNL     1      -7.739  11.158  17.289  0.00  0.00    +0.112 C 
ATOM      9  C   UNL     1      -6.966  11.873  18.406  0.00  0.00    +0.006 C 
ATOM     10  C   UNL     1      -5.531  11.434  18.416  0.00  0.00    -0.057 C 
ATOM     11  C   UNL     1      -5.221  10.231  17.897  0.00  0.00    +0.022 C 
ATOM     12  C   UNL     1      -6.245   9.285  17.405  0.00  0.00    +0.332 C 
ATOM     13  O   UNL     1      -5.944   8.133  17.130  0.00  0.00    -0.246 OA
ATOM     14  O   UNL     1      -7.523   9.741  17.347  0.00  0.00    -0.458 OA
ATOM     15  C   UNL     1      -4.496  12.267  19.147  0.00  0.00    -0.004 C 
ATOM     16  C   UNL     1      -4.141  13.667  18.587  0.00  0.00    +0.066 C 
ATOM     17  C   UNL     1      -5.108  14.814  18.992  0.00  0.00    -0.005 C 
ATOM     18  C   UNL     1      -5.567  14.837  20.445  0.00  0.00    -0.070 C 
ATOM     19  C   UNL     1      -6.865  14.633  20.741  0.00  0.00    -0.062 C 
ATOM     20  C   UNL     1      -7.502  14.554  22.033  0.00  0.00    -0.055 C 
ATOM     21  C   UNL     1      -7.099  13.764  23.045  0.00  0.00    +0.023 C 
ATOM     22  C   UNL     1      -7.873  13.586  24.296  0.00  0.00    +0.332 C 
ATOM     23  O   UNL     1      -7.446  12.967  25.256  0.00  0.00    -0.246 OA
ATOM     24  O   UNL     1      -9.102  14.129  24.168  0.00  0.00    -0.457 OA
ATOM     25  C   UNL     1     -10.081  13.933  25.231  0.00  0.00    +0.114 C 
ATOM     26  C   UNL     1     -10.526  15.364  25.660  0.00  0.00    +0.012 C 
ATOM     27  C   UNL     1     -10.936  16.256  24.500  0.00  0.00    -0.079 C 
ATOM     28  C   UNL     1     -12.205  16.447  24.107  0.00  0.00    -0.059 C 
ATOM     29  C   UNL     1     -12.640  17.407  23.033  0.00  0.00    +0.079 C 
ATOM     30  C   UNL     1     -12.873  16.708  21.687  0.00  0.00    +0.004 C 
ATOM     31  C   UNL     1     -11.581  16.490  20.876  0.00  0.00    +0.067 C 
ATOM     32  H   UNL     1     -12.837  16.205  19.136  0.00  0.00    +0.037 HD
ATOM     33  H   UNL     1     -13.149  13.938  19.460  0.00  0.00    +0.057 HD
ATOM     34  H   UNL     1     -10.217  13.765  20.313  0.00  0.00    +0.059 HD
ATOM     35  H   UNL     1     -11.335  11.733  21.309  0.00  0.00    +0.064 HD
ATOM     36  H   UNL     1      -9.269  11.640  19.842  0.00  0.00    +0.032 HD
ATOM     37  H   UNL     1     -10.132  10.157  20.136  0.00  0.00    +0.032 HD
ATOM     38  H   UNL     1     -11.297  11.136  17.743  0.00  0.00    +0.060 HD
ATOM     39  H   UNL     1      -9.502  11.114  16.150  0.00  0.00    +0.036 HD
ATOM     40  H   UNL     1      -7.289  11.488  16.336  0.00  0.00    +0.074 HD
ATOM     41  H   UNL     1      -7.364  11.659  19.398  0.00  0.00    +0.035 HD
ATOM     42  H   UNL     1      -7.026  12.947  18.227  0.00  0.00    +0.035 HD
ATOM     43  H   UNL     1      -4.215   9.828  17.922  0.00  0.00    +0.069 HD
ATOM     44  H   UNL     1      -3.561  11.688  19.184  0.00  0.00    +0.034 HD
ATOM     45  H   UNL     1      -4.792  12.335  20.201  0.00  0.00    +0.034 HD
ATOM     46  H   UNL     1      -4.120  13.601  17.489  0.00  0.00    +0.060 HD
ATOM     47  H   UNL     1      -5.981  14.778  18.328  0.00  0.00    +0.034 HD
ATOM     48  H   UNL     1      -4.646  15.790  18.785  0.00  0.00    +0.034 HD
ATOM     49  H   UNL     1      -7.573  14.514  19.920  0.00  0.00    +0.062 HD
ATOM     50  H   UNL     1      -8.437  15.111  22.108  0.00  0.00    +0.062 HD
ATOM     51  H   UNL     1      -6.194  13.171  22.986  0.00  0.00    +0.069 HD
ATOM     52  H   UNL     1      -9.610  13.438  26.091  0.00  0.00    +0.074 HD
ATOM     53  H   UNL     1     -11.360  15.316  26.361  0.00  0.00    +0.038 HD
ATOM     54  H   UNL     1     -10.133  16.785  23.993  0.00  0.00    +0.057 HD
ATOM     55  H   UNL     1     -13.008  15.912  24.615  0.00  0.00    +0.059 HD
ATOM     56  H   UNL     1     -11.913  18.222  22.911  0.00  0.00    +0.064 HD
ATOM     57  H   UNL     1     -13.563  17.324  21.094  0.00  0.00    +0.032 HD
ATOM     58  H   UNL     1     -13.382  15.751  21.851  0.00  0.00    +0.032 HD
ATOM     59  H   UNL     1     -10.887  15.881  21.468  0.00  0.00    +0.060 HD
ENDROOT
BRANCH   1  60
ATOM     60  C   UNL     1     -10.862  16.034  18.431  0.00  0.00    -0.057 C 
ATOM     61  H   UNL     1     -11.093  15.458  17.529  0.00  0.00    +0.024 HD
ATOM     62  H   UNL     1      -9.855  15.764  18.757  0.00  0.00    +0.024 HD
ATOM     63  H   UNL     1     -10.851  17.090  18.138  0.00  0.00    +0.024 HD
ENDBRANCH   1  60
BRANCH  26  64
ATOM     64  C   UNL     1      -9.388  16.059  26.427  0.00  0.00    -0.056 C 
ATOM     65  H   UNL     1      -8.584  15.363  26.679  0.00  0.00    +0.024 HD
ATOM     66  H   UNL     1      -9.764  16.496  27.359  0.00  0.00    +0.024 HD
ATOM     67  H   UNL     1      -8.957  16.870  25.829  0.00  0.00    +0.024 HD
ENDBRANCH  26  64
BRANCH  18  68
ATOM     68  C   UNL     1      -4.490  15.131  21.454  0.00  0.00    -0.043 C 
ATOM     69  H   UNL     1      -4.540  16.183  21.766  0.00  0.00    +0.027 HD
ATOM     70  H   UNL     1      -4.584  14.533  22.368  0.00  0.00    +0.027 HD
ATOM     71  H   UNL     1      -3.498  14.943  21.029  0.00  0.00    +0.027 HD
ENDBRANCH  18  68
BRANCH   7  72
ATOM     72  C   UNL     1      -9.478  13.009  17.068  0.00  0.00    -0.057 C 
ATOM     73  H   UNL     1      -8.527  13.532  16.909  0.00  0.00    +0.023 HD
ATOM     74  H   UNL     1      -9.908  13.392  18.003  0.00  0.00    +0.023 HD
ATOM     75  H   UNL     1     -10.155  13.275  16.253  0.00  0.00    +0.023 HD
ENDBRANCH   7  72
BRANCH  25  76
ATOM     76  C   UNL     1     -11.199  12.983  24.684  0.00  0.00    +0.020 C 
ATOM     77  H   UNL     1     -11.940  13.611  24.179  0.00  0.00    +0.036 HD
BRANCH  76  78
ATOM     78  C   UNL     1     -10.606  12.054  23.601  0.00  0.00    -0.057 C 
ATOM     79  H   UNL     1     -10.207  12.623  22.758  0.00  0.00    +0.023 HD
ATOM     80  H   UNL     1      -9.793  11.443  24.013  0.00  0.00    +0.023 HD
ATOM     81  H   UNL     1     -11.351  11.373  23.186  0.00  0.00    +0.023 HD
ENDBRANCH  76  78
BRANCH  76  82
ATOM     82  C   UNL     1     -11.898  12.089  25.762  0.00  0.00    +0.067 C 
ATOM     83  H   UNL     1     -12.848  12.580  26.014  0.00  0.00    +0.060 HD
BRANCH  82  84
ATOM     84  C   UNL     1     -11.068  11.943  27.082  0.00  0.00    -0.017 C 
ATOM     85  H   UNL     1     -10.376  12.789  27.159  0.00  0.00    +0.032 HD
BRANCH  84  86
ATOM     86  C   UNL     1     -12.005  12.033  28.298  0.00  0.00    -0.060 C 
ATOM     87  H   UNL     1     -12.483  13.016  28.351  0.00  0.00    +0.023 HD
ATOM     88  H   UNL     1     -11.451  11.902  29.233  0.00  0.00    +0.023 HD
ATOM     89  H   UNL     1     -12.790  11.270  28.261  0.00  0.00    +0.023 HD
ENDBRANCH  84  86
BRANCH  84  90
ATOM     90  C   UNL     1     -10.245  10.634  27.132  0.00  0.00    -0.041 C 
ATOM     91  H   UNL     1      -9.184  10.847  26.971  0.00  0.00    +0.027 HD
ATOM     92  H   UNL     1     -10.546   9.967  26.315  0.00  0.00    +0.027 HD
BRANCH  90  93
ATOM     93  C   UNL     1     -10.372   9.894  28.461  0.00  0.00    +0.007 C 
ATOM     94  H   UNL     1     -11.281  10.194  28.992  0.00  0.00    +0.034 HD
ATOM     95  H   UNL     1     -10.441   8.810  28.310  0.00  0.00    +0.034 HD
BRANCH  93  96
ATOM     96  C   UNL     1      -9.160  10.140  29.337  0.00  0.00    +0.139 C 
ATOM     97  O   UNL     1      -8.196  10.772  28.896  0.00  0.00    -0.297 OA
BRANCH  96  98
ATOM     98  C   UNL     1      -9.195   9.612  30.769  0.00  0.00    +0.041 C 
ATOM     99  H   UNL     1      -9.906  10.240  31.321  0.00  0.00    +0.040 HD
BRANCH  98 100
ATOM    100  C   UNL     1      -7.839   9.836  31.452  0.00  0.00    -0.053 C 
ATOM    101  H   UNL     1      -7.953   9.981  32.532  0.00  0.00    +0.024 HD
ATOM    102  H   UNL     1      -7.353  10.733  31.052  0.00  0.00    +0.024 HD
ATOM    103  H   UNL     1      -7.156   8.995  31.289  0.00  0.00    +0.024 HD
ENDBRANCH  98 100
BRANCH  98 104
ATOM    104  C   UNL     1      -9.697   8.151  30.859  0.00  0.00    +0.071 C 
ATOM    105  H   UNL     1     -10.365   7.975  30.003  0.00  0.00    +0.061 HD
BRANCH 104 106
ATOM    106  C   UNL     1      -8.570   7.085  30.860  0.00  0.00    -0.006 C 
ATOM    107  H   UNL     1      -7.658   7.485  31.323  0.00  0.00    +0.033 HD
ATOM    108  H   UNL     1      -8.854   6.233  31.487  0.00  0.00    +0.033 HD
BRANCH 106 109
ATOM    109  C   UNL     1      -8.302   6.554  29.480  0.00  0.00    -0.067 C 
ATOM    110  C   UNL     1      -9.261   6.310  28.578  0.00  0.00    -0.005 C 
ATOM    111  H   UNL     1      -7.258   6.367  29.250  0.00  0.00    +0.059 HD
ATOM    112  H   UNL     1     -10.293   6.541  28.839  0.00  0.00    +0.078 HD
BRANCH 110 113
ATOM    113  N   UNL     1      -9.092   5.770  27.314  0.00  0.00    -0.284 N 
ATOM    114  C   UNL     1      -8.618   6.461  26.201  0.00  0.00    +0.206 C 
ATOM    115  O   UNL     1      -8.195   7.609  26.131  0.00  0.00    -0.279 OA
ATOM    116  H   UNL     1      -8.630   5.832  25.294  0.00  0.00    +0.126 HD
BRANCH 113 117
ATOM    117  C   UNL     1      -9.321   4.335  27.189  0.00  0.00    +0.007 C 
ATOM    118  H   UNL     1      -8.902   3.835  28.069  0.00  0.00    +0.043 HD
ATOM    119  H   UNL     1     -10.395   4.139  27.124  0.00  0.00    +0.043 HD
ATOM    120  H   UNL     1      -8.834   3.925  26.300  0.00  0.00    +0.043 HD
ENDBRANCH 113 117
ENDBRANCH 110 113
ENDBRANCH 106 109
ENDBRANCH 104 106
BRANCH 104 121
ATOM    121  O   UNL     1     -10.474   8.020  32.064  0.00  0.00    -0.379 OA
BRANCH 121 122
ATOM    122  C   UNL     1     -11.199   6.798  32.139  0.00  0.00    +0.037 C 
ATOM    123  H   UNL     1     -12.001   6.887  32.878  0.00  0.00    +0.052 HD
ATOM    124  H   UNL     1     -11.622   6.514  31.170  0.00  0.00    +0.052 HD
ATOM    125  H   UNL     1     -10.512   6.015  32.467  0.00  0.00    +0.052 HD
ENDBRANCH 121 122
ENDBRANCH 104 121
ENDBRANCH  98 104
ENDBRANCH  96  98
ENDBRANCH  93  96
ENDBRANCH  90  93
ENDBRANCH  84  90
ENDBRANCH  82  84
BRANCH  82 126
ATOM    126  O   UNL     1     -12.158  10.777  25.267  0.00  0.00    -0.379 OA
BRANCH 126 127
ATOM    127  C   UNL     1     -13.540  10.439  25.260  0.00  0.00    +0.037 C 
ATOM    128  H   UNL     1     -13.759   9.879  26.172  0.00  0.00    +0.052 HD
ATOM    129  H   UNL     1     -14.161  11.337  25.243  0.00  0.00    +0.052 HD
ATOM    130  H   UNL     1     -13.775   9.805  24.399  0.00  0.00    +0.052 HD
ENDBRANCH 126 127
ENDBRANCH  82 126
ENDBRANCH  76  82
ENDBRANCH  25  76
BRANCH  31 131
ATOM    131  O   UNL     1     -11.008  17.783  20.622  0.00  0.00    -0.379 OA
BRANCH 131 132
ATOM    132  C   UNL     1      -9.700  17.940  21.160  0.00  0.00    +0.037 C 
ATOM    133  H   UNL     1      -9.686  17.745  22.236  0.00  0.00    +0.052 HD
ATOM    134  H   UNL     1      -9.039  17.220  20.668  0.00  0.00    +0.052 HD
ATOM    135  H   UNL     1      -9.323  18.946  20.959  0.00  0.00    +0.052 HD
ENDBRANCH 131 132
ENDBRANCH  31 131
BRANCH  29 136
ATOM    136  O   UNL     1     -13.900  17.952  23.451  0.00  0.00    -0.376 OA
BRANCH 136 137
ATOM    137  C   UNL     1     -14.475  17.224  24.530  0.00  0.00    +0.037 C 
ATOM    138  H   UNL     1     -14.790  16.228  24.203  0.00  0.00    +0.052 HD
ATOM    139  H   UNL     1     -15.353  17.771  24.884  0.00  0.00    +0.052 HD
ATOM    140  H   UNL     1     -13.760  17.140  25.357  0.00  0.00    +0.052 HD
ENDBRANCH 136 137
ENDBRANCH  29 136
BRANCH  16 141
ATOM    141  O   UNL     1      -2.804  13.961  19.039  0.00  0.00    -0.379 OA
BRANCH 141 142
ATOM    142  C   UNL     1      -2.154  14.989  18.300  0.00  0.00    +0.037 C 
ATOM    143  H   UNL     1      -1.486  15.571  18.942  0.00  0.00    +0.052 HD
ATOM    144  H   UNL     1      -1.551  14.519  17.522  0.00  0.00    +0.052 HD
ATOM    145  H   UNL     1      -2.882  15.648  17.818  0.00  0.00    +0.052 HD
ENDBRANCH 141 142
ENDBRANCH  16 141
BRANCH   6 146
ATOM    146  O   UNL     1     -10.221   9.393  17.961  0.00  0.00    -0.379 OA
BRANCH 146 147
ATOM    147  C   UNL     1     -10.228   8.704  19.205  0.00  0.00    +0.037 C 
ATOM    148  H   UNL     1      -9.260   8.239  19.414  0.00  0.00    +0.052 HD
ATOM    149  H   UNL     1     -10.441   9.428  19.995  0.00  0.00    +0.052 HD
ATOM    150  H   UNL     1     -11.016   7.943  19.214  0.00  0.00    +0.052 HD
ENDBRANCH 146 147
ENDBRANCH   6 146
BRANCH   4 151
ATOM    151  O   UNL     1     -12.645  11.475  19.753  0.00  0.00    -0.376 OA
BRANCH 151 152
ATOM    152  C   UNL     1     -13.318  10.606  20.659  0.00  0.00    +0.037 C 
ATOM    153  H   UNL     1     -13.467  11.097  21.626  0.00  0.00    +0.052 HD
ATOM    154  H   UNL     1     -14.299  10.369  20.239  0.00  0.00    +0.052 HD
ATOM    155  H   UNL     1     -12.765   9.672  20.788  0.00  0.00    +0.052 HD
ENDBRANCH 151 152
ENDBRANCH   4 151
TORSDOF 33
ENDMDL
MODEL 10
REMARK VINA RESULT:      -5.2      2.703      6.245
REMARK  Name = Reidispongiolide A_conf2
REMARK  33 active torsions:
REMARK  status: ('A' for Active; 'I' for Inactive)
REMARK    1  A    between atoms: C_1  and  C_2
REMARK    2  A    between atoms: C_5  and  O_67
REMARK    3  A    between atoms: C_7  and  O_65
REMARK    4  A    between atoms: C_8  and  C_64
REMARK    5  A    between atoms: C_17  and  O_62
REMARK    6  A    between atoms: C_19  and  C_61
REMARK    7  A    between atoms: C_26  and  C_38
REMARK    8  A    between atoms: C_27  and  C_37
REMARK    9  A    between atoms: C_30  and  O_35
REMARK   10  A    between atoms: C_32  and  O_33
REMARK   11  A    between atoms: O_33  and  C_34
REMARK   12  A    between atoms: O_35  and  C_36
REMARK   13  A    between atoms: C_38  and  C_39
REMARK   14  A    between atoms: C_38  and  C_40
REMARK   15  A    between atoms: C_40  and  C_41
REMARK   16  A    between atoms: C_40  and  O_59
REMARK   17  A    between atoms: C_41  and  C_42
REMARK   18  A    between atoms: C_41  and  C_43
REMARK   19  A    between atoms: C_43  and  C_44
REMARK   20  A    between atoms: C_44  and  C_45
REMARK   21  A    between atoms: C_45  and  C_47
REMARK   22  A    between atoms: C_47  and  C_48
REMARK   23  A    between atoms: C_47  and  C_49
REMARK   24  A    between atoms: C_49  and  C_50
REMARK   25  A    between atoms: C_49  and  O_57
REMARK   26  A    between atoms: C_50  and  C_51
REMARK   27  A    between atoms: C_52  and  N_53
REMARK   28  A    between atoms: N_53  and  C_54
REMARK   29  A    between atoms: O_57  and  C_58
REMARK   30  A    between atoms: O_59  and  C_60
REMARK   31  A    between atoms: O_62  and  C_63
REMARK   32  A    between atoms: O_65  and  C_66
REMARK   33  A    between atoms: O_67  and  C_68
REMARK                            x       y       z     vdW  Elec       q    Type
REMARK                         _______ _______ _______ _____ _____    ______ ____
ROOT
ATOM      1  C   UNL     1     -11.095  10.518  21.439  0.00  0.00    +0.001 C 
ATOM      2  C   UNL     1      -9.897   9.797  20.847  0.00  0.00    -0.080 C 
ATOM      3  C   UNL     1      -9.416   9.993  19.604  0.00  0.00    -0.059 C 
ATOM      4  C   UNL     1      -8.242   9.306  18.950  0.00  0.00    +0.079 C 
ATOM      5  C   UNL     1      -8.562   8.876  17.498  0.00  0.00    +0.004 C 
ATOM      6  C   UNL     1      -9.278   7.520  17.333  0.00  0.00    +0.067 C 
ATOM      7  C   UNL     1     -10.724   7.542  16.753  0.00  0.00    +0.020 C 
ATOM      8  C   UNL     1     -10.986   8.059  15.307  0.00  0.00    +0.112 C 
ATOM      9  C   UNL     1     -11.058   9.580  15.117  0.00  0.00    +0.006 C 
ATOM     10  C   UNL     1     -11.303   9.918  13.675  0.00  0.00    -0.057 C 
ATOM     11  C   UNL     1     -10.939   9.028  12.733  0.00  0.00    +0.022 C 
ATOM     12  C   UNL     1     -10.220   7.776  13.052  0.00  0.00    +0.332 C 
ATOM     13  O   UNL     1      -9.731   7.097  12.160  0.00  0.00    -0.246 OA
ATOM     14  O   UNL     1     -10.075   7.470  14.367  0.00  0.00    -0.458 OA
ATOM     15  C   UNL     1     -11.799  11.301  13.302  0.00  0.00    -0.004 C 
ATOM     16  C   UNL     1     -13.233  11.712  13.720  0.00  0.00    +0.066 C 
ATOM     17  C   UNL     1     -13.381  12.233  15.176  0.00  0.00    -0.005 C 
ATOM     18  C   UNL     1     -12.304  13.190  15.671  0.00  0.00    -0.070 C 
ATOM     19  C   UNL     1     -11.483  12.817  16.671  0.00  0.00    -0.062 C 
ATOM     20  C   UNL     1     -10.371  13.530  17.250  0.00  0.00    -0.055 C 
ATOM     21  C   UNL     1      -9.352  14.068  16.554  0.00  0.00    +0.023 C 
ATOM     22  C   UNL     1      -8.146  14.646  17.191  0.00  0.00    +0.332 C 
ATOM     23  O   UNL     1      -7.286  15.239  16.563  0.00  0.00    -0.246 OA
ATOM     24  O   UNL     1      -8.124  14.349  18.508  0.00  0.00    -0.457 OA
ATOM     25  C   UNL     1      -6.946  14.695  19.295  0.00  0.00    +0.114 C 
ATOM     26  C   UNL     1      -7.470  15.578  20.467  0.00  0.00    +0.012 C 
ATOM     27  C   UNL     1      -8.648  14.975  21.215  0.00  0.00    -0.079 C 
ATOM     28  C   UNL     1      -8.540  14.280  22.358  0.00  0.00    -0.059 C 
ATOM     29  C   UNL     1      -9.700  13.768  23.169  0.00  0.00    +0.079 C 
ATOM     30  C   UNL     1      -9.989  12.286  22.899  0.00  0.00    +0.004 C 
ATOM     31  C   UNL     1     -10.849  12.046  21.642  0.00  0.00    +0.067 C 
ATOM     32  H   UNL     1     -11.275  10.075  22.429  0.00  0.00    +0.037 HD
ATOM     33  H   UNL     1      -9.422   9.059  21.493  0.00  0.00    +0.057 HD
ATOM     34  H   UNL     1      -9.887  10.758  18.993  0.00  0.00    +0.059 HD
ATOM     35  H   UNL     1      -7.460  10.071  18.904  0.00  0.00    +0.064 HD
ATOM     36  H   UNL     1      -9.113   9.685  17.021  0.00  0.00    +0.032 HD
ATOM     37  H   UNL     1      -7.598   8.831  16.968  0.00  0.00    +0.032 HD
ATOM     38  H   UNL     1      -9.324   7.030  18.315  0.00  0.00    +0.060 HD
ATOM     39  H   UNL     1     -11.001   6.478  16.689  0.00  0.00    +0.036 HD
ATOM     40  H   UNL     1     -11.982   7.662  15.043  0.00  0.00    +0.074 HD
ATOM     41  H   UNL     1     -10.134  10.085  15.402  0.00  0.00    +0.035 HD
ATOM     42  H   UNL     1     -11.873   9.961  15.733  0.00  0.00    +0.035 HD
ATOM     43  H   UNL     1     -11.035   9.230  11.672  0.00  0.00    +0.069 HD
ATOM     44  H   UNL     1     -11.743  11.397  12.208  0.00  0.00    +0.034 HD
ATOM     45  H   UNL     1     -11.066  12.036  13.658  0.00  0.00    +0.034 HD
ATOM     46  H   UNL     1     -13.890  10.839  13.594  0.00  0.00    +0.060 HD
ATOM     47  H   UNL     1     -13.443  11.366  15.847  0.00  0.00    +0.034 HD
ATOM     48  H   UNL     1     -14.347  12.744  15.300  0.00  0.00    +0.034 HD
ATOM     49  H   UNL     1     -11.651  11.850  17.148  0.00  0.00    +0.062 HD
ATOM     50  H   UNL     1     -10.341  13.510  18.340  0.00  0.00    +0.062 HD
ATOM     51  H   UNL     1      -9.335  14.071  15.470  0.00  0.00    +0.069 HD
ATOM     52  H   UNL     1      -6.249  15.289  18.690  0.00  0.00    +0.074 HD
ATOM     53  H   UNL     1      -6.676  15.774  21.189  0.00  0.00    +0.038 HD
ATOM     54  H   UNL     1      -9.632  15.160  20.791  0.00  0.00    +0.057 HD
ATOM     55  H   UNL     1      -7.551  14.093  22.779  0.00  0.00    +0.059 HD
ATOM     56  H   UNL     1     -10.604  14.365  22.989  0.00  0.00    +0.064 HD
ATOM     57  H   UNL     1     -10.516  11.873  23.772  0.00  0.00    +0.032 HD
ATOM     58  H   UNL     1      -9.046  11.733  22.823  0.00  0.00    +0.032 HD
ATOM     59  H   UNL     1     -10.328  12.462  20.771  0.00  0.00    +0.060 HD
ENDROOT
BRANCH   1  60
ATOM     60  C   UNL     1     -12.360  10.204  20.631  0.00  0.00    -0.057 C 
ATOM     61  H   UNL     1     -12.602  11.026  19.949  0.00  0.00    +0.024 HD
ATOM     62  H   UNL     1     -13.223  10.036  21.278  0.00  0.00    +0.024 HD
ATOM     63  H   UNL     1     -12.222   9.311  20.011  0.00  0.00    +0.024 HD
ENDBRANCH   1  60
BRANCH  26  64
ATOM     64  C   UNL     1      -7.890  16.959  19.937  0.00  0.00    -0.056 C 
ATOM     65  H   UNL     1      -7.171  17.736  20.215  0.00  0.00    +0.024 HD
ATOM     66  H   UNL     1      -8.869  17.244  20.337  0.00  0.00    +0.024 HD
ATOM     67  H   UNL     1      -7.966  16.948  18.844  0.00  0.00    +0.024 HD
ENDBRANCH  26  64
BRANCH  18  68
ATOM     68  C   UNL     1     -12.276  14.533  14.992  0.00  0.00    -0.043 C 
ATOM     69  H   UNL     1     -13.066  15.179  15.397  0.00  0.00    +0.027 HD
ATOM     70  H   UNL     1     -11.332  15.070  15.140  0.00  0.00    +0.027 HD
ATOM     71  H   UNL     1     -12.437  14.425  13.913  0.00  0.00    +0.027 HD
ENDBRANCH  18  68
BRANCH   7  72
ATOM     72  C   UNL     1     -11.709   8.154  17.750  0.00  0.00    -0.057 C 
ATOM     73  H   UNL     1     -11.197   8.419  18.683  0.00  0.00    +0.023 HD
ATOM     74  H   UNL     1     -12.502   7.439  18.004  0.00  0.00    +0.023 HD
ATOM     75  H   UNL     1     -12.183   9.055  17.352  0.00  0.00    +0.023 HD
ENDBRANCH   7  72
BRANCH  25  76
ATOM     76  C   UNL     1      -6.223  13.362  19.687  0.00  0.00    +0.020 C 
ATOM     77  H   UNL     1      -6.057  13.389  20.769  0.00  0.00    +0.036 HD
BRANCH  76  78
ATOM     78  C   UNL     1      -7.164  12.165  19.422  0.00  0.00    -0.057 C 
ATOM     79  H   UNL     1      -6.791  11.532  18.613  0.00  0.00    +0.023 HD
ATOM     80  H   UNL     1      -7.266  11.543  20.320  0.00  0.00    +0.023 HD
ATOM     81  H   UNL     1      -8.165  12.481  19.125  0.00  0.00    +0.023 HD
ENDBRANCH  76  78
BRANCH  76  82
ATOM     82  C   UNL     1      -4.873  13.094  18.943  0.00  0.00    +0.067 C 
ATOM     83  H   UNL     1      -4.403  12.234  19.439  0.00  0.00    +0.060 HD
BRANCH  82  84
ATOM     84  C   UNL     1      -3.873  14.296  19.018  0.00  0.00    -0.017 C 
ATOM     85  H   UNL     1      -4.322  15.162  18.519  0.00  0.00    +0.032 HD
BRANCH  84  86
ATOM     86  C   UNL     1      -3.657  14.703  20.486  0.00  0.00    -0.060 C 
ATOM     87  H   UNL     1      -3.101  15.642  20.553  0.00  0.00    +0.023 HD
ATOM     88  H   UNL     1      -3.070  13.950  21.021  0.00  0.00    +0.023 HD
ATOM     89  H   UNL     1      -4.609  14.826  21.015  0.00  0.00    +0.023 HD
ENDBRANCH  84  86
BRANCH  84  90
ATOM     90  C   UNL     1      -2.516  13.993  18.339  0.00  0.00    -0.041 C 
ATOM     91  H   UNL     1      -2.637  13.212  17.582  0.00  0.00    +0.027 HD
ATOM     92  H   UNL     1      -1.807  13.592  19.074  0.00  0.00    +0.027 HD
BRANCH  90  93
ATOM     93  C   UNL     1      -1.900  15.210  17.655  0.00  0.00    +0.007 C 
ATOM     94  H   UNL     1      -2.130  15.217  16.585  0.00  0.00    +0.034 HD
ATOM     95  H   UNL     1      -2.299  16.144  18.067  0.00  0.00    +0.034 HD
BRANCH  93  96
ATOM     96  C   UNL     1      -0.398  15.244  17.858  0.00  0.00    +0.139 C 
ATOM     97  O   UNL     1       0.360  15.202  16.884  0.00  0.00    -0.297 OA
BRANCH  96  98
ATOM     98  C   UNL     1       0.126  15.363  19.286  0.00  0.00    +0.041 C 
ATOM     99  H   UNL     1      -0.696  15.065  19.951  0.00  0.00    +0.040 HD
BRANCH  98 100
ATOM    100  C   UNL     1       0.414  16.831  19.628  0.00  0.00    -0.053 C 
ATOM    101  H   UNL     1       0.968  17.329  18.824  0.00  0.00    +0.024 HD
ATOM    102  H   UNL     1       1.024  16.900  20.536  0.00  0.00    +0.024 HD
ATOM    103  H   UNL     1      -0.506  17.395  19.810  0.00  0.00    +0.024 HD
ENDBRANCH  98 100
BRANCH  98 104
ATOM    104  C   UNL     1       1.319  14.419  19.570  0.00  0.00    +0.071 C 
ATOM    105  H   UNL     1       2.172  14.772  18.973  0.00  0.00    +0.061 HD
BRANCH 104 106
ATOM    106  C   UNL     1       1.732  14.340  21.063  0.00  0.00    -0.006 C 
ATOM    107  H   UNL     1       1.118  15.014  21.672  0.00  0.00    +0.033 HD
ATOM    108  H   UNL     1       1.531  13.339  21.460  0.00  0.00    +0.033 HD
BRANCH 106 109
ATOM    109  C   UNL     1       3.199  14.608  21.251  0.00  0.00    -0.067 C 
ATOM    110  C   UNL     1       3.697  15.346  22.251  0.00  0.00    -0.005 C 
ATOM    111  H   UNL     1       3.851  14.163  20.507  0.00  0.00    +0.059 HD
ATOM    112  H   UNL     1       3.010  15.749  22.994  0.00  0.00    +0.078 HD
BRANCH 110 113
ATOM    113  N   UNL     1       5.026  15.680  22.452  0.00  0.00    -0.284 N 
ATOM    114  C   UNL     1       5.894  16.149  21.468  0.00  0.00    +0.206 C 
ATOM    115  O   UNL     1       5.654  16.429  20.300  0.00  0.00    -0.279 OA
ATOM    116  H   UNL     1       6.917  16.288  21.859  0.00  0.00    +0.126 HD
BRANCH 113 117
ATOM    117  C   UNL     1       5.500  15.644  23.831  0.00  0.00    +0.007 C 
ATOM    118  H   UNL     1       6.400  15.022  23.875  0.00  0.00    +0.043 HD
ATOM    119  H   UNL     1       5.730  16.659  24.167  0.00  0.00    +0.043 HD
ATOM    120  H   UNL     1       4.752  15.212  24.503  0.00  0.00    +0.043 HD
ENDBRANCH 113 117
ENDBRANCH 110 113
ENDBRANCH 106 109
ENDBRANCH 104 106
BRANCH 104 121
ATOM    121  O   UNL     1       0.965  13.102  19.106  0.00  0.00    -0.379 OA
BRANCH 121 122
ATOM    122  C   UNL     1       2.003  12.467  18.366  0.00  0.00    +0.037 C 
ATOM    123  H   UNL     1       1.828  12.599  17.294  0.00  0.00    +0.052 HD
ATOM    124  H   UNL     1       2.991  12.859  18.629  0.00  0.00    +0.052 HD
ATOM    125  H   UNL     1       1.975  11.398  18.592  0.00  0.00    +0.052 HD
ENDBRANCH 121 122
ENDBRANCH 104 121
ENDBRANCH  98 104
ENDBRANCH  96  98
ENDBRANCH  93  96
ENDBRANCH  90  93
ENDBRANCH  84  90
ENDBRANCH  82  84
BRANCH  82 126
ATOM    126  O   UNL     1      -5.083  12.793  17.565  0.00  0.00    -0.379 OA
BRANCH 126 127
ATOM    127  C   UNL     1      -4.880  11.420  17.249  0.00  0.00    +0.037 C 
ATOM    128  H   UNL     1      -4.977  10.841  18.170  0.00  0.00    +0.052 HD
ATOM    129  H   UNL     1      -5.626  11.069  16.534  0.00  0.00    +0.052 HD
ATOM    130  H   UNL     1      -3.873  11.266  16.847  0.00  0.00    +0.052 HD
ENDBRANCH 126 127
ENDBRANCH  82 126
ENDBRANCH  76  82
ENDBRANCH  25  76
BRANCH  31 131
ATOM    131  O   UNL     1     -12.100  12.723  21.840  0.00  0.00    -0.379 OA
BRANCH 131 132
ATOM    132  C   UNL     1     -12.363  13.724  20.864  0.00  0.00    +0.037 C 
ATOM    133  H   UNL     1     -12.257  14.729  21.284  0.00  0.00    +0.052 HD
ATOM    134  H   UNL     1     -11.640  13.609  20.051  0.00  0.00    +0.052 HD
ATOM    135  H   UNL     1     -13.368  13.599  20.451  0.00  0.00    +0.052 HD
ENDBRANCH 131 132
ENDBRANCH  31 131
BRANCH  29 136
ATOM    136  O   UNL     1      -9.322  13.882  24.549  0.00  0.00    -0.376 OA
BRANCH 136 137
ATOM    137  C   UNL     1      -9.860  12.834  25.347  0.00  0.00    +0.037 C 
ATOM    138  H   UNL     1     -10.684  13.201  25.968  0.00  0.00    +0.052 HD
ATOM    139  H   UNL     1      -9.068  12.460  26.002  0.00  0.00    +0.052 HD
ATOM    140  H   UNL     1     -10.205  12.009  24.712  0.00  0.00    +0.052 HD
ENDBRANCH 136 137
ENDBRANCH  29 136
BRANCH  16 141
ATOM    141  O   UNL     1     -13.657  12.725  12.785  0.00  0.00    -0.379 OA
BRANCH 141 142
ATOM    142  C   UNL     1     -12.817  12.848  11.642  0.00  0.00    +0.037 C 
ATOM    143  H   UNL     1     -11.764  12.897  11.934  0.00  0.00    +0.052 HD
ATOM    144  H   UNL     1     -12.956  11.961  11.022  0.00  0.00    +0.052 HD
ATOM    145  H   UNL     1     -13.085  13.727  11.050  0.00  0.00    +0.052 HD
ENDBRANCH 141 142
ENDBRANCH  16 141
BRANCH   6 146
ATOM    146  O   UNL     1      -8.421   6.730  16.487  0.00  0.00    -0.379 OA
BRANCH 146 147
ATOM    147  C   UNL     1      -8.441   5.340  16.785  0.00  0.00    +0.037 C 
ATOM    148  H   UNL     1      -9.060   5.124  17.660  0.00  0.00    +0.052 HD
ATOM    149  H   UNL     1      -8.860   4.813  15.925  0.00  0.00    +0.052 HD
ATOM    150  H   UNL     1      -7.422   4.972  16.950  0.00  0.00    +0.052 HD
ENDBRANCH 146 147
ENDBRANCH   6 146
BRANCH   4 151
ATOM    151  O   UNL     1      -7.768   8.235  19.764  0.00  0.00    -0.376 OA
BRANCH 151 152
ATOM    152  C   UNL     1      -6.377   7.980  19.597  0.00  0.00    +0.037 C 
ATOM    153  H   UNL     1      -5.877   8.843  19.145  0.00  0.00    +0.052 HD
ATOM    154  H   UNL     1      -5.941   7.809  20.586  0.00  0.00    +0.052 HD
ATOM    155  H   UNL     1      -6.213   7.085  18.991  0.00  0.00    +0.052 HD
ENDBRANCH 151 152
ENDBRANCH   4 151
TORSDOF 33
ENDMDL
