MODEL 1
REMARK VINA RESULT:      -5.8      0.000      0.000
REMARK  Name = Sphinxolide B_conf3
REMARK  33 active torsions:
REMARK  status: ('A' for Active; 'I' for Inactive)
REMARK    1  A    between atoms: C_1  and  C_2
REMARK    2  A    between atoms: C_5  and  O_67
REMARK    3  A    between atoms: C_7  and  O_65
REMARK    4  A    between atoms: C_8  and  C_64
REMARK    5  A    between atoms: C_10  and  O_63
REMARK    6  A    between atoms: C_17  and  O_61
REMARK    7  A    between atoms: C_19  and  C_60
REMARK    8  A    between atoms: C_26  and  C_37
REMARK    9  A    between atoms: C_27  and  C_36
REMARK   10  A    between atoms: C_30  and  O_34
REMARK   11  A    between atoms: C_32  and  O_33
REMARK   12  A    between atoms: O_34  and  C_35
REMARK   13  A    between atoms: C_37  and  C_38
REMARK   14  A    between atoms: C_37  and  C_39
REMARK   15  A    between atoms: C_39  and  C_40
REMARK   16  A    between atoms: C_39  and  O_58
REMARK   17  A    between atoms: C_40  and  C_41
REMARK   18  A    between atoms: C_40  and  C_42
REMARK   19  A    between atoms: C_42  and  C_43
REMARK   20  A    between atoms: C_43  and  C_44
REMARK   21  A    between atoms: C_44  and  C_46
REMARK   22  A    between atoms: C_46  and  C_47
REMARK   23  A    between atoms: C_46  and  C_48
REMARK   24  A    between atoms: C_48  and  C_49
REMARK   25  A    between atoms: C_48  and  O_56
REMARK   26  A    between atoms: C_49  and  C_50
REMARK   27  A    between atoms: C_51  and  N_52
REMARK   28  A    between atoms: N_52  and  C_53
REMARK   29  A    between atoms: O_56  and  C_57
REMARK   30  A    between atoms: O_58  and  C_59
REMARK   31  A    between atoms: O_61  and  C_62
REMARK   32  A    between atoms: O_65  and  C_66
REMARK   33  A    between atoms: O_67  and  C_68
REMARK                            x       y       z     vdW  Elec       q    Type
REMARK                         _______ _______ _______ _____ _____    ______ ____
ROOT
ATOM      1  C   UNL     1     -11.305  13.802  19.325  0.00  0.00    +0.000 C 
ATOM      2  C   UNL     1      -9.883  14.167  19.685  0.00  0.00    -0.080 C 
ATOM      3  C   UNL     1      -9.513  15.400  20.074  0.00  0.00    -0.059 C 
ATOM      4  C   UNL     1      -8.129  15.792  20.527  0.00  0.00    +0.079 C 
ATOM      5  C   UNL     1      -8.146  16.404  21.945  0.00  0.00    +0.004 C 
ATOM      6  C   UNL     1      -8.031  15.422  23.136  0.00  0.00    +0.067 C 
ATOM      7  C   UNL     1      -9.214  14.407  23.225  0.00  0.00    +0.022 C 
ATOM      8  C   UNL     1      -9.907  14.465  24.628  0.00  0.00    +0.138 C 
ATOM      9  C   UNL     1     -11.331  13.874  24.715  0.00  0.00    +0.114 C 
ATOM     10  C   UNL     1     -11.278  12.371  24.788  0.00  0.00    -0.029 C 
ATOM     11  C   UNL     1     -10.244  11.827  25.462  0.00  0.00    +0.024 C 
ATOM     12  C   UNL     1      -9.165  12.639  26.064  0.00  0.00    +0.332 C 
ATOM     13  O   UNL     1      -8.387  12.148  26.871  0.00  0.00    -0.246 OA
ATOM     14  O   UNL     1      -9.071  13.937  25.677  0.00  0.00    -0.455 OA
ATOM     15  C   UNL     1     -12.428  11.605  24.158  0.00  0.00    -0.002 C 
ATOM     16  C   UNL     1     -12.445  10.055  24.134  0.00  0.00    +0.066 C 
ATOM     17  C   UNL     1     -11.368   9.444  23.187  0.00  0.00    -0.005 C 
ATOM     18  C   UNL     1     -11.643   7.998  22.773  0.00  0.00    -0.070 C 
ATOM     19  C   UNL     1     -11.458   7.463  21.548  0.00  0.00    -0.062 C 
ATOM     20  C   UNL     1     -10.888   8.056  20.352  0.00  0.00    -0.055 C 
ATOM     21  C   UNL     1     -10.693   7.294  19.263  0.00  0.00    +0.023 C 
ATOM     22  C   UNL     1      -9.947   7.639  18.039  0.00  0.00    +0.332 C 
ATOM     23  O   UNL     1      -9.559   6.756  17.285  0.00  0.00    -0.246 OA
ATOM     24  O   UNL     1      -9.702   8.965  17.907  0.00  0.00    -0.457 OA
ATOM     25  C   UNL     1      -8.656   9.317  16.954  0.00  0.00    +0.114 C 
ATOM     26  C   UNL     1      -9.254   9.797  15.595  0.00  0.00    +0.012 C 
ATOM     27  C   UNL     1     -10.234  10.942  15.731  0.00  0.00    -0.079 C 
ATOM     28  C   UNL     1     -10.022  12.190  15.283  0.00  0.00    -0.059 C 
ATOM     29  C   UNL     1     -10.992  13.335  15.418  0.00  0.00    +0.079 C 
ATOM     30  C   UNL     1     -10.894  14.020  16.792  0.00  0.00    +0.004 C 
ATOM     31  C   UNL     1     -11.419  13.144  17.933  0.00  0.00    +0.064 C 
ATOM     32  H   UNL     1     -11.938  14.701  19.343  0.00  0.00    +0.037 HD
ATOM     33  H   UNL     1      -9.147  13.367  19.655  0.00  0.00    +0.057 HD
ATOM     34  H   UNL     1     -10.253  16.199  20.088  0.00  0.00    +0.059 HD
ATOM     35  H   UNL     1      -7.424  14.953  20.486  0.00  0.00    +0.064 HD
ATOM     36  H   UNL     1      -9.039  17.031  22.075  0.00  0.00    +0.032 HD
ATOM     37  H   UNL     1      -7.294  17.094  22.015  0.00  0.00    +0.032 HD
ATOM     38  H   UNL     1      -8.022  16.058  24.033  0.00  0.00    +0.060 HD
ATOM     39  H   UNL     1      -9.987  14.751  22.530  0.00  0.00    +0.036 HD
ATOM     40  H   UNL     1     -10.030  15.533  24.862  0.00  0.00    +0.077 HD
ATOM     41  H   UNL     1     -11.812  14.216  25.643  0.00  0.00    +0.068 HD
ATOM     42  H   UNL     1     -10.141  10.764  25.637  0.00  0.00    +0.069 HD
ATOM     43  H   UNL     1     -13.343  11.940  24.666  0.00  0.00    +0.034 HD
ATOM     44  H   UNL     1     -12.528  11.929  23.117  0.00  0.00    +0.034 HD
ATOM     45  H   UNL     1     -13.429   9.747  23.751  0.00  0.00    +0.060 HD
ATOM     46  H   UNL     1     -11.294  10.071  22.292  0.00  0.00    +0.034 HD
ATOM     47  H   UNL     1     -10.391   9.456  23.682  0.00  0.00    +0.034 HD
ATOM     48  H   UNL     1     -11.715   6.408  21.436  0.00  0.00    +0.062 HD
ATOM     49  H   UNL     1     -10.542   9.082  20.384  0.00  0.00    +0.062 HD
ATOM     50  H   UNL     1     -11.002   6.253  19.259  0.00  0.00    +0.069 HD
ATOM     51  H   UNL     1      -8.067   8.419  16.743  0.00  0.00    +0.074 HD
ATOM     52  H   UNL     1      -8.424  10.108  14.949  0.00  0.00    +0.038 HD
ATOM     53  H   UNL     1     -11.176  10.706  16.228  0.00  0.00    +0.057 HD
ATOM     54  H   UNL     1      -9.093  12.426  14.771  0.00  0.00    +0.059 HD
ATOM     55  H   UNL     1     -12.007  12.973  15.220  0.00  0.00    +0.064 HD
ATOM     56  H   UNL     1     -11.470  14.954  16.767  0.00  0.00    +0.032 HD
ATOM     57  H   UNL     1      -9.855  14.318  16.973  0.00  0.00    +0.032 HD
ATOM     58  H   UNL     1     -10.872  12.198  17.970  0.00  0.00    +0.060 HD
ENDROOT
BRANCH   1  59
ATOM     59  C   UNL     1     -11.855  12.851  20.396  0.00  0.00    -0.057 C 
ATOM     60  H   UNL     1     -11.973  11.833  20.008  0.00  0.00    +0.024 HD
ATOM     61  H   UNL     1     -11.182  12.805  21.252  0.00  0.00    +0.024 HD
ATOM     62  H   UNL     1     -12.831  13.186  20.764  0.00  0.00    +0.024 HD
ENDBRANCH   1  59
BRANCH  26  63
ATOM     63  C   UNL     1      -9.962   8.658  14.848  0.00  0.00    -0.056 C 
ATOM     64  H   UNL     1      -9.411   7.716  14.958  0.00  0.00    +0.024 HD
ATOM     65  H   UNL     1     -10.966   8.499  15.252  0.00  0.00    +0.024 HD
ATOM     66  H   UNL     1     -10.052   8.863  13.775  0.00  0.00    +0.024 HD
ENDBRANCH  26  63
BRANCH  18  67
ATOM     67  C   UNL     1     -12.110   7.072  23.878  0.00  0.00    -0.043 C 
ATOM     68  H   UNL     1     -12.631   7.642  24.656  0.00  0.00    +0.027 HD
ATOM     69  H   UNL     1     -12.782   6.305  23.481  0.00  0.00    +0.027 HD
ATOM     70  H   UNL     1     -11.280   6.556  24.371  0.00  0.00    +0.027 HD
ENDBRANCH  18  67
BRANCH   7  71
ATOM     71  C   UNL     1      -8.792  12.999  22.786  0.00  0.00    -0.057 C 
ATOM     72  H   UNL     1      -9.336  12.226  23.336  0.00  0.00    +0.023 HD
ATOM     73  H   UNL     1      -8.987  12.824  21.723  0.00  0.00    +0.023 HD
ATOM     74  H   UNL     1      -7.730  12.820  22.977  0.00  0.00    +0.023 HD
ENDBRANCH   7  71
BRANCH  31  75
ATOM     75  O   UNL     1     -12.792  12.826  17.671  0.00  0.00    -0.391 OA
ATOM     76  H   UNL     1     -13.073  12.156  18.319  0.00  0.00    +0.210 HD
ENDBRANCH  31  75
BRANCH  25  77
ATOM     77  C   UNL     1      -7.706  10.344  17.651  0.00  0.00    +0.020 C 
ATOM     78  H   UNL     1      -7.483  11.138  16.932  0.00  0.00    +0.036 HD
BRANCH  77  79
ATOM     79  C   UNL     1      -8.435  11.080  18.797  0.00  0.00    -0.057 C 
ATOM     80  H   UNL     1      -9.310  10.519  19.142  0.00  0.00    +0.023 HD
ATOM     81  H   UNL     1      -8.769  12.072  18.476  0.00  0.00    +0.023 HD
ATOM     82  H   UNL     1      -7.768  11.241  19.651  0.00  0.00    +0.023 HD
ENDBRANCH  77  79
BRANCH  77  83
ATOM     83  C   UNL     1      -6.369   9.747  18.218  0.00  0.00    +0.067 C 
ATOM     84  H   UNL     1      -6.168  10.193  19.202  0.00  0.00    +0.060 HD
BRANCH  83  85
ATOM     85  C   UNL     1      -5.117  10.066  17.350  0.00  0.00    -0.017 C 
ATOM     86  H   UNL     1      -4.236   9.695  17.881  0.00  0.00    +0.032 HD
BRANCH  85  87
ATOM     87  C   UNL     1      -5.157   9.348  15.998  0.00  0.00    -0.060 C 
ATOM     88  H   UNL     1      -6.187   9.233  15.645  0.00  0.00    +0.023 HD
ATOM     89  H   UNL     1      -4.626   9.916  15.228  0.00  0.00    +0.023 HD
ATOM     90  H   UNL     1      -4.694   8.358  16.052  0.00  0.00    +0.023 HD
ENDBRANCH  85  87
BRANCH  85  91
ATOM     91  C   UNL     1      -4.841  11.586  17.173  0.00  0.00    -0.041 C 
ATOM     92  H   UNL     1      -5.626  12.022  16.543  0.00  0.00    +0.027 HD
ATOM     93  H   UNL     1      -3.915  11.687  16.589  0.00  0.00    +0.027 HD
BRANCH  91  94
ATOM     94  C   UNL     1      -4.669  12.425  18.441  0.00  0.00    +0.007 C 
ATOM     95  H   UNL     1      -3.602  12.472  18.693  0.00  0.00    +0.034 HD
ATOM     96  H   UNL     1      -5.170  11.946  19.285  0.00  0.00    +0.034 HD
BRANCH  94  97
ATOM     97  C   UNL     1      -5.139  13.865  18.332  0.00  0.00    +0.139 C 
ATOM     98  O   UNL     1      -6.335  14.154  18.266  0.00  0.00    -0.297 OA
BRANCH  97  99
ATOM     99  C   UNL     1      -4.053  14.931  18.265  0.00  0.00    +0.041 C 
ATOM    100  H   UNL     1      -4.288  15.679  19.032  0.00  0.00    +0.040 HD
BRANCH  99 101
ATOM    101  C   UNL     1      -4.118  15.653  16.923  0.00  0.00    -0.053 C 
ATOM    102  H   UNL     1      -5.147  15.659  16.546  0.00  0.00    +0.024 HD
ATOM    103  H   UNL     1      -3.506  15.162  16.161  0.00  0.00    +0.024 HD
ATOM    104  H   UNL     1      -3.789  16.693  17.018  0.00  0.00    +0.024 HD
ENDBRANCH  99 101
BRANCH  99 105
ATOM    105  C   UNL     1      -2.676  14.320  18.607  0.00  0.00    +0.071 C 
ATOM    106  H   UNL     1      -2.681  13.249  18.356  0.00  0.00    +0.061 HD
BRANCH 105 107
ATOM    107  C   UNL     1      -1.490  14.987  17.875  0.00  0.00    -0.006 C 
ATOM    108  H   UNL     1      -1.388  16.032  18.189  0.00  0.00    +0.033 HD
ATOM    109  H   UNL     1      -1.651  14.984  16.792  0.00  0.00    +0.033 HD
BRANCH 107 110
ATOM    110  C   UNL     1      -0.187  14.294  18.206  0.00  0.00    -0.067 C 
ATOM    111  C   UNL     1       0.818  14.899  18.854  0.00  0.00    -0.005 C 
ATOM    112  H   UNL     1      -0.128  13.264  17.867  0.00  0.00    +0.059 HD
ATOM    113  H   UNL     1       0.688  15.937  19.159  0.00  0.00    +0.078 HD
BRANCH 111 114
ATOM    114  N   UNL     1       2.049  14.355  19.190  0.00  0.00    -0.284 N 
ATOM    115  C   UNL     1       2.442  13.045  18.944  0.00  0.00    +0.206 C 
ATOM    116  O   UNL     1       3.535  12.559  19.213  0.00  0.00    -0.279 OA
ATOM    117  H   UNL     1       1.671  12.432  18.457  0.00  0.00    +0.126 HD
BRANCH 114 118
ATOM    118  C   UNL     1       3.009  15.241  19.838  0.00  0.00    +0.007 C 
ATOM    119  H   UNL     1       2.984  16.216  19.339  0.00  0.00    +0.043 HD
ATOM    120  H   UNL     1       4.030  14.852  19.787  0.00  0.00    +0.043 HD
ATOM    121  H   UNL     1       2.737  15.362  20.891  0.00  0.00    +0.043 HD
ENDBRANCH 114 118
ENDBRANCH 111 114
ENDBRANCH 107 110
ENDBRANCH 105 107
BRANCH 105 122
ATOM    122  O   UNL     1      -2.441  14.476  20.023  0.00  0.00    -0.379 OA
BRANCH 122 123
ATOM    123  C   UNL     1      -2.841  15.742  20.527  0.00  0.00    +0.037 C 
ATOM    124  H   UNL     1      -2.008  16.248  21.015  0.00  0.00    +0.052 HD
ATOM    125  H   UNL     1      -3.631  15.583  21.263  0.00  0.00    +0.052 HD
ATOM    126  H   UNL     1      -3.242  16.366  19.724  0.00  0.00    +0.052 HD
ENDBRANCH 122 123
ENDBRANCH 105 122
ENDBRANCH  99 105
ENDBRANCH  97  99
ENDBRANCH  94  97
ENDBRANCH  91  94
ENDBRANCH  85  91
ENDBRANCH  83  85
BRANCH  83 127
ATOM    127  O   UNL     1      -6.435   8.323  18.374  0.00  0.00    -0.379 OA
BRANCH 127 128
ATOM    128  C   UNL     1      -6.682   7.896  19.711  0.00  0.00    +0.037 C 
ATOM    129  H   UNL     1      -5.900   7.219  20.065  0.00  0.00    +0.052 HD
ATOM    130  H   UNL     1      -7.638   7.361  19.720  0.00  0.00    +0.052 HD
ATOM    131  H   UNL     1      -6.769   8.751  20.383  0.00  0.00    +0.052 HD
ENDBRANCH 127 128
ENDBRANCH  83 127
ENDBRANCH  77  83
ENDBRANCH  25  77
BRANCH   9 132
ATOM    132  O   UNL     1     -12.148  14.310  23.640  0.00  0.00    -0.384 OA
ATOM    133  H   UNL     1     -11.857  15.207  23.397  0.00  0.00    +0.210 HD
ENDBRANCH   9 132
BRANCH  29 134
ATOM    134  O   UNL     1     -10.616  14.279  14.403  0.00  0.00    -0.376 OA
BRANCH 134 135
ATOM    135  C   UNL     1     -10.684  13.742  13.090  0.00  0.00    +0.037 C 
ATOM    136  H   UNL     1     -10.774  12.651  13.129  0.00  0.00    +0.052 HD
ATOM    137  H   UNL     1      -9.758  13.997  12.566  0.00  0.00    +0.052 HD
ATOM    138  H   UNL     1     -11.525  14.167  12.532  0.00  0.00    +0.052 HD
ENDBRANCH 134 135
ENDBRANCH  29 134
BRANCH   6 139
ATOM    139  O   UNL     1      -6.759  14.774  23.002  0.00  0.00    -0.379 OA
BRANCH 139 140
ATOM    140  C   UNL     1      -5.660  15.676  23.068  0.00  0.00    +0.037 C 
ATOM    141  H   UNL     1      -4.725  15.131  23.239  0.00  0.00    +0.052 HD
ATOM    142  H   UNL     1      -5.828  16.353  23.912  0.00  0.00    +0.052 HD
ATOM    143  H   UNL     1      -5.589  16.275  22.155  0.00  0.00    +0.052 HD
ENDBRANCH 139 140
ENDBRANCH   6 139
BRANCH  16 144
ATOM    144  O   UNL     1     -12.271   9.513  25.453  0.00  0.00    -0.379 OA
BRANCH 144 145
ATOM    145  C   UNL     1     -13.412   9.651  26.289  0.00  0.00    +0.037 C 
ATOM    146  H   UNL     1     -13.537   8.772  26.923  0.00  0.00    +0.052 HD
ATOM    147  H   UNL     1     -13.349  10.556  26.899  0.00  0.00    +0.052 HD
ATOM    148  H   UNL     1     -14.292   9.728  25.645  0.00  0.00    +0.052 HD
ENDBRANCH 144 145
ENDBRANCH  16 144
BRANCH   4 149
ATOM    149  O   UNL     1      -7.701  16.836  19.638  0.00  0.00    -0.376 OA
BRANCH 149 150
ATOM    150  C   UNL     1      -6.403  17.323  19.955  0.00  0.00    +0.037 C 
ATOM    151  H   UNL     1      -6.079  16.857  20.892  0.00  0.00    +0.052 HD
ATOM    152  H   UNL     1      -5.688  17.051  19.171  0.00  0.00    +0.052 HD
ATOM    153  H   UNL     1      -6.416  18.408  20.097  0.00  0.00    +0.052 HD
ENDBRANCH 149 150
ENDBRANCH   4 149
TORSDOF 33
ENDMDL
MODEL 2
REMARK VINA RESULT:      -5.6      1.779      2.808
REMARK  Name = Sphinxolide B_conf3
REMARK  33 active torsions:
REMARK  status: ('A' for Active; 'I' for Inactive)
REMARK    1  A    between atoms: C_1  and  C_2
REMARK    2  A    between atoms: C_5  and  O_67
REMARK    3  A    between atoms: C_7  and  O_65
REMARK    4  A    between atoms: C_8  and  C_64
REMARK    5  A    between atoms: C_10  and  O_63
REMARK    6  A    between atoms: C_17  and  O_61
REMARK    7  A    between atoms: C_19  and  C_60
REMARK    8  A    between atoms: C_26  and  C_37
REMARK    9  A    between atoms: C_27  and  C_36
REMARK   10  A    between atoms: C_30  and  O_34
REMARK   11  A    between atoms: C_32  and  O_33
REMARK   12  A    between atoms: O_34  and  C_35
REMARK   13  A    between atoms: C_37  and  C_38
REMARK   14  A    between atoms: C_37  and  C_39
REMARK   15  A    between atoms: C_39  and  C_40
REMARK   16  A    between atoms: C_39  and  O_58
REMARK   17  A    between atoms: C_40  and  C_41
REMARK   18  A    between atoms: C_40  and  C_42
REMARK   19  A    between atoms: C_42  and  C_43
REMARK   20  A    between atoms: C_43  and  C_44
REMARK   21  A    between atoms: C_44  and  C_46
REMARK   22  A    between atoms: C_46  and  C_47
REMARK   23  A    between atoms: C_46  and  C_48
REMARK   24  A    between atoms: C_48  and  C_49
REMARK   25  A    between atoms: C_48  and  O_56
REMARK   26  A    between atoms: C_49  and  C_50
REMARK   27  A    between atoms: C_51  and  N_52
REMARK   28  A    between atoms: N_52  and  C_53
REMARK   29  A    between atoms: O_56  and  C_57
REMARK   30  A    between atoms: O_58  and  C_59
REMARK   31  A    between atoms: O_61  and  C_62
REMARK   32  A    between atoms: O_65  and  C_66
REMARK   33  A    between atoms: O_67  and  C_68
REMARK                            x       y       z     vdW  Elec       q    Type
REMARK                         _______ _______ _______ _____ _____    ______ ____
ROOT
ATOM      1  C   UNL     1     -11.979  13.293  19.266  0.00  0.00    +0.000 C 
ATOM      2  C   UNL     1     -10.671  13.779  19.845  0.00  0.00    -0.080 C 
ATOM      3  C   UNL     1     -10.500  15.014  20.348  0.00  0.00    -0.059 C 
ATOM      4  C   UNL     1      -9.244  15.516  21.015  0.00  0.00    +0.079 C 
ATOM      5  C   UNL     1      -9.523  16.022  22.447  0.00  0.00    +0.004 C 
ATOM      6  C   UNL     1      -9.461  14.978  23.587  0.00  0.00    +0.067 C 
ATOM      7  C   UNL     1     -10.522  13.841  23.452  0.00  0.00    +0.022 C 
ATOM      8  C   UNL     1     -11.401  13.728  24.742  0.00  0.00    +0.138 C 
ATOM      9  C   UNL     1     -12.746  12.986  24.593  0.00  0.00    +0.114 C 
ATOM     10  C   UNL     1     -12.534  11.495  24.591  0.00  0.00    -0.029 C 
ATOM     11  C   UNL     1     -11.546  11.017  25.375  0.00  0.00    +0.024 C 
ATOM     12  C   UNL     1     -10.659  11.894  26.168  0.00  0.00    +0.332 C 
ATOM     13  O   UNL     1      -9.946  11.433  27.050  0.00  0.00    -0.246 OA
ATOM     14  O   UNL     1     -10.660  13.219  25.870  0.00  0.00    -0.455 OA
ATOM     15  C   UNL     1     -13.493  10.658  23.762  0.00  0.00    -0.002 C 
ATOM     16  C   UNL     1     -13.330   9.121  23.651  0.00  0.00    +0.066 C 
ATOM     17  C   UNL     1     -12.072   8.694  22.837  0.00  0.00    -0.005 C 
ATOM     18  C   UNL     1     -12.122   7.259  22.310  0.00  0.00    -0.070 C 
ATOM     19  C   UNL     1     -11.713   6.834  21.096  0.00  0.00    -0.062 C 
ATOM     20  C   UNL     1     -11.057   7.565  20.028  0.00  0.00    -0.055 C 
ATOM     21  C   UNL     1     -10.630   6.906  18.938  0.00  0.00    +0.023 C 
ATOM     22  C   UNL     1      -9.768   7.411  17.854  0.00  0.00    +0.332 C 
ATOM     23  O   UNL     1      -9.184   6.629  17.117  0.00  0.00    -0.246 OA
ATOM     24  O   UNL     1      -9.660   8.761  17.830  0.00  0.00    -0.457 OA
ATOM     25  C   UNL     1      -8.541   9.287  17.057  0.00  0.00    +0.114 C 
ATOM     26  C   UNL     1      -8.999   9.795  15.655  0.00  0.00    +0.012 C 
ATOM     27  C   UNL     1     -10.112  10.818  15.711  0.00  0.00    -0.079 C 
ATOM     28  C   UNL     1      -9.984  12.110  15.367  0.00  0.00    -0.059 C 
ATOM     29  C   UNL     1     -11.087  13.134  15.424  0.00  0.00    +0.079 C 
ATOM     30  C   UNL     1     -11.255  13.729  16.834  0.00  0.00    +0.004 C 
ATOM     31  C   UNL     1     -11.828  12.725  17.838  0.00  0.00    +0.064 C 
ATOM     32  H   UNL     1     -12.708  14.117  19.241  0.00  0.00    +0.037 HD
ATOM     33  H   UNL     1      -9.852  13.064  19.877  0.00  0.00    +0.057 HD
ATOM     34  H   UNL     1     -11.321  15.728  20.300  0.00  0.00    +0.059 HD
ATOM     35  H   UNL     1      -8.449  14.761  21.030  0.00  0.00    +0.064 HD
ATOM     36  H   UNL     1     -10.491  16.542  22.482  0.00  0.00    +0.032 HD
ATOM     37  H   UNL     1      -8.772  16.792  22.676  0.00  0.00    +0.032 HD
ATOM     38  H   UNL     1      -9.646  15.547  24.510  0.00  0.00    +0.060 HD
ATOM     39  H   UNL     1     -11.226  14.149  22.673  0.00  0.00    +0.036 HD
ATOM     40  H   UNL     1     -11.675  14.758  25.014  0.00  0.00    +0.077 HD
ATOM     41  H   UNL     1     -13.385  13.210  25.459  0.00  0.00    +0.068 HD
ATOM     42  H   UNL     1     -11.347   9.962  25.505  0.00  0.00    +0.069 HD
ATOM     43  H   UNL     1     -14.501  10.859  24.151  0.00  0.00    +0.034 HD
ATOM     44  H   UNL     1     -13.487  11.042  22.736  0.00  0.00    +0.034 HD
ATOM     45  H   UNL     1     -14.212   8.739  23.116  0.00  0.00    +0.060 HD
ATOM     46  H   UNL     1     -11.948   9.386  21.996  0.00  0.00    +0.034 HD
ATOM     47  H   UNL     1     -11.179   8.774  23.466  0.00  0.00    +0.034 HD
ATOM     48  H   UNL     1     -11.831   5.768  20.891  0.00  0.00    +0.062 HD
ATOM     49  H   UNL     1     -10.837   8.617  20.165  0.00  0.00    +0.062 HD
ATOM     50  H   UNL     1     -10.815   5.840  18.833  0.00  0.00    +0.069 HD
ATOM     51  H   UNL     1      -7.830   8.472  16.884  0.00  0.00    +0.074 HD
ATOM     52  H   UNL     1      -8.130  10.235  15.152  0.00  0.00    +0.038 HD
ATOM     53  H   UNL     1     -11.080  10.451  16.056  0.00  0.00    +0.057 HD
ATOM     54  H   UNL     1      -9.027  12.477  15.007  0.00  0.00    +0.059 HD
ATOM     55  H   UNL     1     -12.019  12.683  15.064  0.00  0.00    +0.064 HD
ATOM     56  H   UNL     1     -11.926  14.597  16.777  0.00  0.00    +0.032 HD
ATOM     57  H   UNL     1     -10.292  14.120  17.176  0.00  0.00    +0.032 HD
ATOM     58  H   UNL     1     -11.187  11.841  17.901  0.00  0.00    +0.060 HD
ENDROOT
BRANCH   1  59
ATOM     59  C   UNL     1     -12.559  12.217  20.194  0.00  0.00    -0.057 C 
ATOM     60  H   UNL     1     -12.695  12.596  21.213  0.00  0.00    +0.024 HD
ATOM     61  H   UNL     1     -13.530  11.880  19.833  0.00  0.00    +0.024 HD
ATOM     62  H   UNL     1     -11.905  11.340  20.245  0.00  0.00    +0.024 HD
ENDBRANCH   1  59
BRANCH  26  63
ATOM     63  C   UNL     1      -9.465   8.643  14.753  0.00  0.00    -0.056 C 
ATOM     64  H   UNL     1     -10.081   9.018  13.926  0.00  0.00    +0.024 HD
ATOM     65  H   UNL     1      -8.607   8.126  14.314  0.00  0.00    +0.024 HD
ATOM     66  H   UNL     1     -10.065   7.908  15.302  0.00  0.00    +0.024 HD
ENDBRANCH  26  63
BRANCH  18  67
ATOM     67  C   UNL     1     -12.627   6.215  23.284  0.00  0.00    -0.043 C 
ATOM     68  H   UNL     1     -11.971   6.164  24.161  0.00  0.00    +0.027 HD
ATOM     69  H   UNL     1     -13.646   6.449  23.608  0.00  0.00    +0.027 HD
ATOM     70  H   UNL     1     -12.646   5.210  22.850  0.00  0.00    +0.027 HD
ENDBRANCH  18  67
BRANCH   7  71
ATOM     71  C   UNL     1      -9.886  12.518  23.001  0.00  0.00    -0.057 C 
ATOM     72  H   UNL     1     -10.473  11.657  23.332  0.00  0.00    +0.023 HD
ATOM     73  H   UNL     1      -9.812  12.448  21.911  0.00  0.00    +0.023 HD
ATOM     74  H   UNL     1      -8.887  12.389  23.425  0.00  0.00    +0.023 HD
ENDBRANCH   7  71
BRANCH  31  75
ATOM     75  O   UNL     1     -13.107  12.284  17.366  0.00  0.00    -0.391 OA
ATOM     76  H   UNL     1     -13.277  11.401  17.741  0.00  0.00    +0.210 HD
ENDBRANCH  31  75
BRANCH  25  77
ATOM     77  C   UNL     1      -7.817  10.356  17.937  0.00  0.00    +0.020 C 
ATOM     78  H   UNL     1      -7.677  11.255  17.328  0.00  0.00    +0.036 HD
BRANCH  77  79
ATOM     79  C   UNL     1      -8.731  10.832  19.089  0.00  0.00    -0.057 C 
ATOM     80  H   UNL     1      -8.334  10.535  20.065  0.00  0.00    +0.023 HD
ATOM     81  H   UNL     1      -9.738  10.417  18.988  0.00  0.00    +0.023 HD
ATOM     82  H   UNL     1      -8.845  11.921  19.079  0.00  0.00    +0.023 HD
ENDBRANCH  77  79
BRANCH  77  83
ATOM     83  C   UNL     1      -6.443   9.906  18.550  0.00  0.00    +0.067 C 
ATOM     84  H   UNL     1      -6.403  10.216  19.604  0.00  0.00    +0.060 HD
BRANCH  83  85
ATOM     85  C   UNL     1      -5.205  10.564  17.874  0.00  0.00    -0.017 C 
ATOM     86  H   UNL     1      -4.319  10.285  18.450  0.00  0.00    +0.032 HD
BRANCH  85  87
ATOM     87  C   UNL     1      -4.988  10.048  16.448  0.00  0.00    -0.060 C 
ATOM     88  H   UNL     1      -4.201   9.288  16.421  0.00  0.00    +0.023 HD
ATOM     89  H   UNL     1      -5.891   9.574  16.052  0.00  0.00    +0.023 HD
ATOM     90  H   UNL     1      -4.717  10.857  15.763  0.00  0.00    +0.023 HD
ENDBRANCH  85  87
BRANCH  85  91
ATOM     91  C   UNL     1      -5.212  12.118  17.915  0.00  0.00    -0.041 C 
ATOM     92  H   UNL     1      -6.236  12.467  18.100  0.00  0.00    +0.027 HD
ATOM     93  H   UNL     1      -4.964  12.477  16.906  0.00  0.00    +0.027 HD
BRANCH  91  94
ATOM     94  C   UNL     1      -4.248  12.803  18.887  0.00  0.00    +0.007 C 
ATOM     95  H   UNL     1      -3.791  13.664  18.384  0.00  0.00    +0.034 HD
ATOM     96  H   UNL     1      -3.434  12.127  19.156  0.00  0.00    +0.034 HD
BRANCH  94  97
ATOM     97  C   UNL     1      -4.886  13.346  20.154  0.00  0.00    +0.139 C 
ATOM     98  O   UNL     1      -6.078  13.169  20.409  0.00  0.00    -0.297 OA
BRANCH  97  99
ATOM     99  C   UNL     1      -3.983  14.159  21.074  0.00  0.00    +0.041 C 
ATOM    100  H   UNL     1      -3.400  13.443  21.667  0.00  0.00    +0.040 HD
BRANCH  99 101
ATOM    101  C   UNL     1      -4.832  14.950  22.064  0.00  0.00    -0.053 C 
ATOM    102  H   UNL     1      -5.857  14.565  22.077  0.00  0.00    +0.024 HD
ATOM    103  H   UNL     1      -4.896  16.009  21.797  0.00  0.00    +0.024 HD
ATOM    104  H   UNL     1      -4.430  14.870  23.080  0.00  0.00    +0.024 HD
ENDBRANCH  99 101
BRANCH  99 105
ATOM    105  C   UNL     1      -2.991  15.006  20.247  0.00  0.00    +0.071 C 
ATOM    106  H   UNL     1      -2.855  14.543  19.258  0.00  0.00    +0.061 HD
BRANCH 105 107
ATOM    107  C   UNL     1      -3.431  16.472  20.042  0.00  0.00    -0.006 C 
ATOM    108  H   UNL     1      -2.614  17.155  20.305  0.00  0.00    +0.033 HD
ATOM    109  H   UNL     1      -4.282  16.717  20.687  0.00  0.00    +0.033 HD
BRANCH 107 110
ATOM    110  C   UNL     1      -3.784  16.739  18.596  0.00  0.00    -0.067 C 
ATOM    111  C   UNL     1      -4.865  16.217  18.000  0.00  0.00    -0.005 C 
ATOM    112  H   UNL     1      -3.083  17.384  18.075  0.00  0.00    +0.059 HD
ATOM    113  H   UNL     1      -5.522  15.574  18.587  0.00  0.00    +0.078 HD
BRANCH 111 114
ATOM    114  N   UNL     1      -5.265  16.391  16.683  0.00  0.00    -0.284 N 
ATOM    115  C   UNL     1      -5.176  15.431  15.683  0.00  0.00    +0.206 C 
ATOM    116  O   UNL     1      -5.548  15.565  14.522  0.00  0.00    -0.279 OA
ATOM    117  H   UNL     1      -4.732  14.482  16.014  0.00  0.00    +0.126 HD
BRANCH 114 118
ATOM    118  C   UNL     1      -5.839  17.686  16.333  0.00  0.00    +0.007 C 
ATOM    119  H   UNL     1      -5.376  18.459  16.955  0.00  0.00    +0.043 HD
ATOM    120  H   UNL     1      -6.921  17.714  16.492  0.00  0.00    +0.043 HD
ATOM    121  H   UNL     1      -5.640  17.897  15.278  0.00  0.00    +0.043 HD
ENDBRANCH 114 118
ENDBRANCH 111 114
ENDBRANCH 107 110
ENDBRANCH 105 107
BRANCH 105 122
ATOM    122  O   UNL     1      -1.723  15.036  20.936  0.00  0.00    -0.379 OA
BRANCH 122 123
ATOM    123  C   UNL     1      -0.639  15.436  20.110  0.00  0.00    +0.037 C 
ATOM    124  H   UNL     1      -0.775  16.459  19.757  0.00  0.00    +0.052 HD
ATOM    125  H   UNL     1      -0.604  14.770  19.246  0.00  0.00    +0.052 HD
ATOM    126  H   UNL     1       0.308  15.347  20.649  0.00  0.00    +0.052 HD
ENDBRANCH 122 123
ENDBRANCH 105 122
ENDBRANCH  99 105
ENDBRANCH  97  99
ENDBRANCH  94  97
ENDBRANCH  91  94
ENDBRANCH  85  91
ENDBRANCH  83  85
BRANCH  83 127
ATOM    127  O   UNL     1      -6.264   8.486  18.492  0.00  0.00    -0.379 OA
BRANCH 127 128
ATOM    128  C   UNL     1      -6.623   7.805  19.691  0.00  0.00    +0.037 C 
ATOM    129  H   UNL     1      -7.699   7.620  19.739  0.00  0.00    +0.052 HD
ATOM    130  H   UNL     1      -6.340   8.444  20.536  0.00  0.00    +0.052 HD
ATOM    131  H   UNL     1      -6.077   6.865  19.784  0.00  0.00    +0.052 HD
ENDBRANCH 127 128
ENDBRANCH  83 127
ENDBRANCH  77  83
ENDBRANCH  25  77
BRANCH   9 132
ATOM    132  O   UNL     1     -13.454  13.407  23.437  0.00  0.00    -0.384 OA
ATOM    133  H   UNL     1     -12.795  13.669  22.770  0.00  0.00    +0.210 HD
ENDBRANCH   9 132
BRANCH  29 134
ATOM    134  O   UNL     1     -10.687  14.181  14.526  0.00  0.00    -0.376 OA
BRANCH 134 135
ATOM    135  C   UNL     1     -10.643  13.765  13.169  0.00  0.00    +0.037 C 
ATOM    136  H   UNL     1     -11.031  14.554  12.516  0.00  0.00    +0.052 HD
ATOM    137  H   UNL     1     -11.278  12.879  13.060  0.00  0.00    +0.052 HD
ATOM    138  H   UNL     1      -9.624  13.499  12.870  0.00  0.00    +0.052 HD
ENDBRANCH 134 135
ENDBRANCH  29 134
BRANCH   6 139
ATOM    139  O   UNL     1      -8.117  14.478  23.602  0.00  0.00    -0.379 OA
BRANCH 139 140
ATOM    140  C   UNL     1      -7.484  14.603  24.871  0.00  0.00    +0.037 C 
ATOM    141  H   UNL     1      -6.443  14.925  24.752  0.00  0.00    +0.052 HD
ATOM    142  H   UNL     1      -7.491  13.618  25.350  0.00  0.00    +0.052 HD
ATOM    143  H   UNL     1      -8.028  15.302  25.512  0.00  0.00    +0.052 HD
ENDBRANCH 139 140
ENDBRANCH   6 139
BRANCH  16 144
ATOM    144  O   UNL     1     -13.278   8.510  24.951  0.00  0.00    -0.379 OA
BRANCH 144 145
ATOM    145  C   UNL     1     -14.529   8.468  25.621  0.00  0.00    +0.037 C 
ATOM    146  H   UNL     1     -14.690   7.493  26.084  0.00  0.00    +0.052 HD
ATOM    147  H   UNL     1     -14.605   9.262  26.368  0.00  0.00    +0.052 HD
ATOM    148  H   UNL     1     -15.315   8.619  24.875  0.00  0.00    +0.052 HD
ENDBRANCH 144 145
ENDBRANCH  16 144
BRANCH   4 149
ATOM    149  O   UNL     1      -8.820  16.659  20.255  0.00  0.00    -0.376 OA
BRANCH 149 150
ATOM    150  C   UNL     1      -7.467  17.014  20.514  0.00  0.00    +0.037 C 
ATOM    151  H   UNL     1      -7.411  17.451  21.516  0.00  0.00    +0.052 HD
ATOM    152  H   UNL     1      -6.826  16.127  20.489  0.00  0.00    +0.052 HD
ATOM    153  H   UNL     1      -7.114  17.759  19.794  0.00  0.00    +0.052 HD
ENDBRANCH 149 150
ENDBRANCH   4 149
TORSDOF 33
ENDMDL
MODEL 3
REMARK VINA RESULT:      -5.5      2.114      3.290
REMARK  Name = Sphinxolide B_conf3
REMARK  33 active torsions:
REMARK  status: ('A' for Active; 'I' for Inactive)
REMARK    1  A    between atoms: C_1  and  C_2
REMARK    2  A    between atoms: C_5  and  O_67
REMARK    3  A    between atoms: C_7  and  O_65
REMARK    4  A    between atoms: C_8  and  C_64
REMARK    5  A    between atoms: C_10  and  O_63
REMARK    6  A    between atoms: C_17  and  O_61
REMARK    7  A    between atoms: C_19  and  C_60
REMARK    8  A    between atoms: C_26  and  C_37
REMARK    9  A    between atoms: C_27  and  C_36
REMARK   10  A    between atoms: C_30  and  O_34
REMARK   11  A    between atoms: C_32  and  O_33
REMARK   12  A    between atoms: O_34  and  C_35
REMARK   13  A    between atoms: C_37  and  C_38
REMARK   14  A    between atoms: C_37  and  C_39
REMARK   15  A    between atoms: C_39  and  C_40
REMARK   16  A    between atoms: C_39  and  O_58
REMARK   17  A    between atoms: C_40  and  C_41
REMARK   18  A    between atoms: C_40  and  C_42
REMARK   19  A    between atoms: C_42  and  C_43
REMARK   20  A    between atoms: C_43  and  C_44
REMARK   21  A    between atoms: C_44  and  C_46
REMARK   22  A    between atoms: C_46  and  C_47
REMARK   23  A    between atoms: C_46  and  C_48
REMARK   24  A    between atoms: C_48  and  C_49
REMARK   25  A    between atoms: C_48  and  O_56
REMARK   26  A    between atoms: C_49  and  C_50
REMARK   27  A    between atoms: C_51  and  N_52
REMARK   28  A    between atoms: N_52  and  C_53
REMARK   29  A    between atoms: O_56  and  C_57
REMARK   30  A    between atoms: O_58  and  C_59
REMARK   31  A    between atoms: O_61  and  C_62
REMARK   32  A    between atoms: O_65  and  C_66
REMARK   33  A    between atoms: O_67  and  C_68
REMARK                            x       y       z     vdW  Elec       q    Type
REMARK                         _______ _______ _______ _____ _____    ______ ____
ROOT
ATOM      1  C   UNL     1     -11.414  13.712  19.376  0.00  0.00    +0.000 C 
ATOM      2  C   UNL     1     -10.005  14.101  19.761  0.00  0.00    -0.080 C 
ATOM      3  C   UNL     1      -9.666  15.333  20.176  0.00  0.00    -0.059 C 
ATOM      4  C   UNL     1      -8.296  15.746  20.655  0.00  0.00    +0.079 C 
ATOM      5  C   UNL     1      -8.345  16.332  22.083  0.00  0.00    +0.004 C 
ATOM      6  C   UNL     1      -8.225  15.332  23.258  0.00  0.00    +0.067 C 
ATOM      7  C   UNL     1      -9.388  14.291  23.314  0.00  0.00    +0.022 C 
ATOM      8  C   UNL     1     -10.099  14.310  24.708  0.00  0.00    +0.138 C 
ATOM      9  C   UNL     1     -11.511  13.688  24.766  0.00  0.00    +0.114 C 
ATOM     10  C   UNL     1     -11.429  12.185  24.813  0.00  0.00    -0.029 C 
ATOM     11  C   UNL     1     -10.392  11.651  25.491  0.00  0.00    +0.024 C 
ATOM     12  C   UNL     1      -9.338  12.474  26.121  0.00  0.00    +0.332 C 
ATOM     13  O   UNL     1      -8.560  11.985  26.930  0.00  0.00    -0.246 OA
ATOM     14  O   UNL     1      -9.266  13.781  25.759  0.00  0.00    -0.455 OA
ATOM     15  C   UNL     1     -12.554  11.406  24.154  0.00  0.00    -0.002 C 
ATOM     16  C   UNL     1     -12.538   9.858  24.102  0.00  0.00    +0.066 C 
ATOM     17  C   UNL     1     -11.436   9.286  23.160  0.00  0.00    -0.005 C 
ATOM     18  C   UNL     1     -11.675   7.842  22.717  0.00  0.00    -0.070 C 
ATOM     19  C   UNL     1     -11.463   7.333  21.485  0.00  0.00    -0.062 C 
ATOM     20  C   UNL     1     -10.890   7.959  20.308  0.00  0.00    -0.055 C 
ATOM     21  C   UNL     1     -10.665   7.221  19.207  0.00  0.00    +0.023 C 
ATOM     22  C   UNL     1      -9.911   7.603  18.000  0.00  0.00    +0.332 C 
ATOM     23  O   UNL     1      -9.495   6.742  17.236  0.00  0.00    -0.246 OA
ATOM     24  O   UNL     1      -9.692   8.936  17.894  0.00  0.00    -0.457 OA
ATOM     25  C   UNL     1      -8.641   9.327  16.962  0.00  0.00    +0.114 C 
ATOM     26  C   UNL     1      -9.232   9.818  15.603  0.00  0.00    +0.012 C 
ATOM     27  C   UNL     1     -10.237  10.940  15.746  0.00  0.00    -0.079 C 
ATOM     28  C   UNL     1     -10.045  12.200  15.323  0.00  0.00    -0.059 C 
ATOM     29  C   UNL     1     -11.041  13.321  15.466  0.00  0.00    +0.079 C 
ATOM     30  C   UNL     1     -10.975  13.984  16.853  0.00  0.00    +0.004 C 
ATOM     31  C   UNL     1     -11.497  13.077  17.971  0.00  0.00    +0.064 C 
ATOM     32  H   UNL     1     -12.066  14.598  19.401  0.00  0.00    +0.037 HD
ATOM     33  H   UNL     1      -9.252  13.316  19.727  0.00  0.00    +0.057 HD
ATOM     34  H   UNL     1     -10.423  16.117  20.195  0.00  0.00    +0.059 HD
ATOM     35  H   UNL     1      -7.573  14.923  20.608  0.00  0.00    +0.064 HD
ATOM     36  H   UNL     1      -9.253  16.938  22.212  0.00  0.00    +0.032 HD
ATOM     37  H   UNL     1      -7.509  17.038  22.176  0.00  0.00    +0.032 HD
ATOM     38  H   UNL     1      -8.241  15.951  24.166  0.00  0.00    +0.060 HD
ATOM     39  H   UNL     1     -10.158  14.631  22.615  0.00  0.00    +0.036 HD
ATOM     40  H   UNL     1     -10.248  15.371  24.959  0.00  0.00    +0.077 HD
ATOM     41  H   UNL     1     -12.011  14.003  25.692  0.00  0.00    +0.068 HD
ATOM     42  H   UNL     1     -10.268  10.587  25.649  0.00  0.00    +0.069 HD
ATOM     43  H   UNL     1     -13.482  11.713  24.655  0.00  0.00    +0.034 HD
ATOM     44  H   UNL     1     -12.647  11.747  23.117  0.00  0.00    +0.034 HD
ATOM     45  H   UNL     1     -13.510   9.536  23.701  0.00  0.00    +0.060 HD
ATOM     46  H   UNL     1     -11.363   9.930  22.276  0.00  0.00    +0.034 HD
ATOM     47  H   UNL     1     -10.466   9.310  23.668  0.00  0.00    +0.034 HD
ATOM     48  H   UNL     1     -11.697   6.275  21.351  0.00  0.00    +0.062 HD
ATOM     49  H   UNL     1     -10.567   8.992  20.362  0.00  0.00    +0.062 HD
ATOM     50  H   UNL     1     -10.952   6.173  19.181  0.00  0.00    +0.069 HD
ATOM     51  H   UNL     1      -8.031   8.445  16.743  0.00  0.00    +0.074 HD
ATOM     52  H   UNL     1      -8.400  10.157  14.974  0.00  0.00    +0.038 HD
ATOM     53  H   UNL     1     -11.180  10.676  16.227  0.00  0.00    +0.057 HD
ATOM     54  H   UNL     1      -9.115  12.464  14.828  0.00  0.00    +0.059 HD
ATOM     55  H   UNL     1     -12.046  12.943  15.248  0.00  0.00    +0.064 HD
ATOM     56  H   UNL     1     -11.571  14.906  16.837  0.00  0.00    +0.032 HD
ATOM     57  H   UNL     1      -9.945  14.300  17.053  0.00  0.00    +0.032 HD
ATOM     58  H   UNL     1     -10.930  12.142  17.999  0.00  0.00    +0.060 HD
ENDROOT
BRANCH   1  59
ATOM     59  C   UNL     1     -11.958  12.731  20.423  0.00  0.00    -0.057 C 
ATOM     60  H   UNL     1     -11.148  12.221  20.955  0.00  0.00    +0.024 HD
ATOM     61  H   UNL     1     -12.564  13.255  21.162  0.00  0.00    +0.024 HD
ATOM     62  H   UNL     1     -12.592  11.966  19.961  0.00  0.00    +0.024 HD
ENDBRANCH   1  59
BRANCH  26  63
ATOM     63  C   UNL     1      -9.906   8.678  14.827  0.00  0.00    -0.056 C 
ATOM     64  H   UNL     1     -10.318   7.928  15.514  0.00  0.00    +0.024 HD
ATOM     65  H   UNL     1     -10.736   9.061  14.225  0.00  0.00    +0.024 HD
ATOM     66  H   UNL     1      -9.206   8.164  14.160  0.00  0.00    +0.024 HD
ENDBRANCH  26  63
BRANCH  18  67
ATOM     67  C   UNL     1     -12.137   6.887  23.799  0.00  0.00    -0.043 C 
ATOM     68  H   UNL     1     -12.680   6.044  23.355  0.00  0.00    +0.027 HD
ATOM     69  H   UNL     1     -11.284   6.507  24.369  0.00  0.00    +0.027 HD
ATOM     70  H   UNL     1     -12.822   7.360  24.511  0.00  0.00    +0.027 HD
ENDBRANCH  18  67
BRANCH   7  71
ATOM     71  C   UNL     1      -8.930  12.900  22.855  0.00  0.00    -0.057 C 
ATOM     72  H   UNL     1      -9.711  12.387  22.287  0.00  0.00    +0.023 HD
ATOM     73  H   UNL     1      -8.050  12.950  22.206  0.00  0.00    +0.023 HD
ATOM     74  H   UNL     1      -8.696  12.254  23.706  0.00  0.00    +0.023 HD
ENDBRANCH   7  71
BRANCH  31  75
ATOM     75  O   UNL     1     -12.859  12.735  17.686  0.00  0.00    -0.391 OA
ATOM     76  H   UNL     1     -13.263  12.404  18.507  0.00  0.00    +0.210 HD
ENDBRANCH  31  75
BRANCH  25  77
ATOM     77  C   UNL     1      -7.722  10.360  17.689  0.00  0.00    +0.020 C 
ATOM     78  H   UNL     1      -7.509  11.173  16.988  0.00  0.00    +0.036 HD
BRANCH  77  79
ATOM     79  C   UNL     1      -8.480  11.057  18.841  0.00  0.00    -0.057 C 
ATOM     80  H   UNL     1      -9.395  11.541  18.485  0.00  0.00    +0.023 HD
ATOM     81  H   UNL     1      -7.854  11.818  19.318  0.00  0.00    +0.023 HD
ATOM     82  H   UNL     1      -8.749  10.344  19.627  0.00  0.00    +0.023 HD
ENDBRANCH  77  79
BRANCH  77  83
ATOM     83  C   UNL     1      -6.378   9.781  18.260  0.00  0.00    +0.067 C 
ATOM     84  H   UNL     1      -6.202  10.207  19.258  0.00  0.00    +0.060 HD
BRANCH  83  85
ATOM     85  C   UNL     1      -5.123  10.154  17.419  0.00  0.00    -0.017 C 
ATOM     86  H   UNL     1      -4.238   9.852  17.984  0.00  0.00    +0.032 HD
BRANCH  85  87
ATOM     87  C   UNL     1      -5.080   9.400  16.086  0.00  0.00    -0.060 C 
ATOM     88  H   UNL     1      -4.173   9.647  15.526  0.00  0.00    +0.023 HD
ATOM     89  H   UNL     1      -5.065   8.317  16.240  0.00  0.00    +0.023 HD
ATOM     90  H   UNL     1      -5.949   9.631  15.463  0.00  0.00    +0.023 HD
ENDBRANCH  85  87
BRANCH  85  91
ATOM     91  C   UNL     1      -4.934  11.683  17.207  0.00  0.00    -0.041 C 
ATOM     92  H   UNL     1      -5.858  12.104  16.791  0.00  0.00    +0.027 HD
ATOM     93  H   UNL     1      -4.178  11.817  16.421  0.00  0.00    +0.027 HD
BRANCH  91  94
ATOM     94  C   UNL     1      -4.484  12.513  18.412  0.00  0.00    +0.007 C 
ATOM     95  H   UNL     1      -3.659  13.166  18.104  0.00  0.00    +0.034 HD
ATOM     96  H   UNL     1      -4.094  11.862  19.198  0.00  0.00    +0.034 HD
BRANCH  94  97
ATOM     97  C   UNL     1      -5.546  13.426  19.001  0.00  0.00    +0.139 C 
ATOM     98  O   UNL     1      -6.043  13.213  20.108  0.00  0.00    -0.297 OA
BRANCH  97  99
ATOM     99  C   UNL     1      -5.994  14.595  18.133  0.00  0.00    +0.041 C 
ATOM    100  H   UNL     1      -6.277  15.409  18.811  0.00  0.00    +0.040 HD
BRANCH  99 101
ATOM    101  C   UNL     1      -7.256  14.214  17.365  0.00  0.00    -0.053 C 
ATOM    102  H   UNL     1      -7.012  13.993  16.320  0.00  0.00    +0.024 HD
ATOM    103  H   UNL     1      -7.991  15.025  17.352  0.00  0.00    +0.024 HD
ATOM    104  H   UNL     1      -7.726  13.324  17.796  0.00  0.00    +0.024 HD
ENDBRANCH  99 101
BRANCH  99 105
ATOM    105  C   UNL     1      -4.825  15.094  17.255  0.00  0.00    +0.071 C 
ATOM    106  H   UNL     1      -4.156  14.251  17.028  0.00  0.00    +0.061 HD
BRANCH 105 107
ATOM    107  C   UNL     1      -5.267  15.738  15.922  0.00  0.00    -0.006 C 
ATOM    108  H   UNL     1      -6.246  15.348  15.617  0.00  0.00    +0.033 HD
ATOM    109  H   UNL     1      -4.557  15.501  15.122  0.00  0.00    +0.033 HD
BRANCH 107 110
ATOM    110  C   UNL     1      -5.408  17.237  16.061  0.00  0.00    -0.067 C 
ATOM    111  C   UNL     1      -6.527  17.827  16.504  0.00  0.00    -0.005 C 
ATOM    112  H   UNL     1      -4.528  17.799  15.764  0.00  0.00    +0.059 HD
ATOM    113  H   UNL     1      -7.372  17.197  16.780  0.00  0.00    +0.078 HD
BRANCH 111 114
ATOM    114  N   UNL     1      -6.755  19.187  16.654  0.00  0.00    -0.284 N 
ATOM    115  C   UNL     1      -5.891  20.197  16.249  0.00  0.00    +0.206 C 
ATOM    116  O   UNL     1      -6.093  21.401  16.353  0.00  0.00    -0.279 OA
ATOM    117  H   UNL     1      -4.960  19.830  15.795  0.00  0.00    +0.126 HD
BRANCH 114 118
ATOM    118  C   UNL     1      -8.016  19.581  17.273  0.00  0.00    +0.007 C 
ATOM    119  H   UNL     1      -7.837  19.810  18.329  0.00  0.00    +0.043 HD
ATOM    120  H   UNL     1      -8.771  18.790  17.213  0.00  0.00    +0.043 HD
ATOM    121  H   UNL     1      -8.407  20.469  16.766  0.00  0.00    +0.043 HD
ENDBRANCH 114 118
ENDBRANCH 111 114
ENDBRANCH 107 110
ENDBRANCH 105 107
BRANCH 105 122
ATOM    122  O   UNL     1      -4.093  16.099  17.988  0.00  0.00    -0.379 OA
BRANCH 122 123
ATOM    123  C   UNL     1      -2.733  15.756  18.214  0.00  0.00    +0.037 C 
ATOM    124  H   UNL     1      -2.636  14.704  18.483  0.00  0.00    +0.052 HD
ATOM    125  H   UNL     1      -2.360  16.363  19.040  0.00  0.00    +0.052 HD
ATOM    126  H   UNL     1      -2.130  15.975  17.329  0.00  0.00    +0.052 HD
ENDBRANCH 122 123
ENDBRANCH 105 122
ENDBRANCH  99 105
ENDBRANCH  97  99
ENDBRANCH  94  97
ENDBRANCH  91  94
ENDBRANCH  85  91
ENDBRANCH  83  85
BRANCH  83 127
ATOM    127  O   UNL     1      -6.411   8.353  18.378  0.00  0.00    -0.379 OA
BRANCH 127 128
ATOM    128  C   UNL     1      -6.657   7.886  19.702  0.00  0.00    +0.037 C 
ATOM    129  H   UNL     1      -5.841   7.254  20.060  0.00  0.00    +0.052 HD
ATOM    130  H   UNL     1      -7.577   7.290  19.680  0.00  0.00    +0.052 HD
ATOM    131  H   UNL     1      -6.814   8.720  20.387  0.00  0.00    +0.052 HD
ENDBRANCH 127 128
ENDBRANCH  83 127
ENDBRANCH  77  83
ENDBRANCH  25  77
BRANCH   9 132
ATOM    132  O   UNL     1     -12.324  14.125  23.687  0.00  0.00    -0.384 OA
ATOM    133  H   UNL     1     -13.240  14.179  24.015  0.00  0.00    +0.210 HD
ENDBRANCH   9 132
BRANCH  29 134
ATOM    134  O   UNL     1     -10.672  14.291  14.473  0.00  0.00    -0.376 OA
BRANCH 134 135
ATOM    135  C   UNL     1     -11.769  14.721  13.679  0.00  0.00    +0.037 C 
ATOM    136  H   UNL     1     -11.462  14.831  12.634  0.00  0.00    +0.052 HD
ATOM    137  H   UNL     1     -12.100  15.696  14.050  0.00  0.00    +0.052 HD
ATOM    138  H   UNL     1     -12.607  14.021  13.751  0.00  0.00    +0.052 HD
ENDBRANCH 134 135
ENDBRANCH  29 134
BRANCH   6 139
ATOM    139  O   UNL     1      -6.938  14.713  23.129  0.00  0.00    -0.379 OA
BRANCH 139 140
ATOM    140  C   UNL     1      -5.858  15.636  23.231  0.00  0.00    +0.037 C 
ATOM    141  H   UNL     1      -5.584  15.791  24.281  0.00  0.00    +0.052 HD
ATOM    142  H   UNL     1      -6.190  16.591  22.813  0.00  0.00    +0.052 HD
ATOM    143  H   UNL     1      -4.993  15.290  22.659  0.00  0.00    +0.052 HD
ENDBRANCH 139 140
ENDBRANCH   6 139
BRANCH  16 144
ATOM    144  O   UNL     1     -12.370   9.296  25.414  0.00  0.00    -0.379 OA
BRANCH 144 145
ATOM    145  C   UNL     1     -13.523   9.396  26.237  0.00  0.00    +0.037 C 
ATOM    146  H   UNL     1     -14.416   9.079  25.695  0.00  0.00    +0.052 HD
ATOM    147  H   UNL     1     -13.407   8.813  27.154  0.00  0.00    +0.052 HD
ATOM    148  H   UNL     1     -13.652  10.447  26.509  0.00  0.00    +0.052 HD
ENDBRANCH 144 145
ENDBRANCH  16 144
BRANCH   4 149
ATOM    149  O   UNL     1      -7.879  16.815  19.790  0.00  0.00    -0.376 OA
BRANCH 149 150
ATOM    150  C   UNL     1      -6.746  17.512  20.294  0.00  0.00    +0.037 C 
ATOM    151  H   UNL     1      -6.269  18.041  19.462  0.00  0.00    +0.052 HD
ATOM    152  H   UNL     1      -7.052  18.251  21.042  0.00  0.00    +0.052 HD
ATOM    153  H   UNL     1      -6.018  16.817  20.722  0.00  0.00    +0.052 HD
ENDBRANCH 149 150
ENDBRANCH   4 149
TORSDOF 33
ENDMDL
MODEL 4
REMARK VINA RESULT:      -5.5      3.382      9.151
REMARK  Name = Sphinxolide B_conf3
REMARK  33 active torsions:
REMARK  status: ('A' for Active; 'I' for Inactive)
REMARK    1  A    between atoms: C_1  and  C_2
REMARK    2  A    between atoms: C_5  and  O_67
REMARK    3  A    between atoms: C_7  and  O_65
REMARK    4  A    between atoms: C_8  and  C_64
REMARK    5  A    between atoms: C_10  and  O_63
REMARK    6  A    between atoms: C_17  and  O_61
REMARK    7  A    between atoms: C_19  and  C_60
REMARK    8  A    between atoms: C_26  and  C_37
REMARK    9  A    between atoms: C_27  and  C_36
REMARK   10  A    between atoms: C_30  and  O_34
REMARK   11  A    between atoms: C_32  and  O_33
REMARK   12  A    between atoms: O_34  and  C_35
REMARK   13  A    between atoms: C_37  and  C_38
REMARK   14  A    between atoms: C_37  and  C_39
REMARK   15  A    between atoms: C_39  and  C_40
REMARK   16  A    between atoms: C_39  and  O_58
REMARK   17  A    between atoms: C_40  and  C_41
REMARK   18  A    between atoms: C_40  and  C_42
REMARK   19  A    between atoms: C_42  and  C_43
REMARK   20  A    between atoms: C_43  and  C_44
REMARK   21  A    between atoms: C_44  and  C_46
REMARK   22  A    between atoms: C_46  and  C_47
REMARK   23  A    between atoms: C_46  and  C_48
REMARK   24  A    between atoms: C_48  and  C_49
REMARK   25  A    between atoms: C_48  and  O_56
REMARK   26  A    between atoms: C_49  and  C_50
REMARK   27  A    between atoms: C_51  and  N_52
REMARK   28  A    between atoms: N_52  and  C_53
REMARK   29  A    between atoms: O_56  and  C_57
REMARK   30  A    between atoms: O_58  and  C_59
REMARK   31  A    between atoms: O_61  and  C_62
REMARK   32  A    between atoms: O_65  and  C_66
REMARK   33  A    between atoms: O_67  and  C_68
REMARK                            x       y       z     vdW  Elec       q    Type
REMARK                         _______ _______ _______ _____ _____    ______ ____
ROOT
ATOM      1  C   UNL     1      -5.013  14.613  22.184  0.00  0.00    +0.000 C 
ATOM      2  C   UNL     1      -6.503  14.484  22.403  0.00  0.00    -0.080 C 
ATOM      3  C   UNL     1      -7.043  13.751  23.391  0.00  0.00    -0.059 C 
ATOM      4  C   UNL     1      -8.516  13.662  23.704  0.00  0.00    +0.079 C 
ATOM      5  C   UNL     1      -8.814  14.074  25.162  0.00  0.00    +0.004 C 
ATOM      6  C   UNL     1      -9.060  15.578  25.431  0.00  0.00    +0.067 C 
ATOM      7  C   UNL     1      -7.831  16.482  25.102  0.00  0.00    +0.022 C 
ATOM      8  C   UNL     1      -7.416  17.349  26.338  0.00  0.00    +0.138 C 
ATOM      9  C   UNL     1      -5.987  17.933  26.318  0.00  0.00    +0.114 C 
ATOM     10  C   UNL     1      -5.921  19.146  25.427  0.00  0.00    -0.029 C 
ATOM     11  C   UNL     1      -7.011  19.941  25.395  0.00  0.00    +0.024 C 
ATOM     12  C   UNL     1      -8.248  19.633  26.143  0.00  0.00    +0.332 C 
ATOM     13  O   UNL     1      -9.117  20.482  26.294  0.00  0.00    -0.246 OA
ATOM     14  O   UNL     1      -8.383  18.376  26.638  0.00  0.00    -0.455 OA
ATOM     15  C   UNL     1      -4.613  19.404  24.701  0.00  0.00    -0.002 C 
ATOM     16  C   UNL     1      -4.457  20.595  23.722  0.00  0.00    +0.066 C 
ATOM     17  C   UNL     1      -5.284  20.425  22.412  0.00  0.00    -0.005 C 
ATOM     18  C   UNL     1      -4.813  21.305  21.253  0.00  0.00    -0.070 C 
ATOM     19  C   UNL     1      -4.721  20.944  19.955  0.00  0.00    -0.062 C 
ATOM     20  C   UNL     1      -5.111  19.707  19.306  0.00  0.00    -0.055 C 
ATOM     21  C   UNL     1      -5.034  19.607  17.968  0.00  0.00    +0.023 C 
ATOM     22  C   UNL     1      -5.569  18.536  17.107  0.00  0.00    +0.332 C 
ATOM     23  O   UNL     1      -5.733  18.732  15.911  0.00  0.00    -0.246 OA
ATOM     24  O   UNL     1      -5.900  17.410  17.784  0.00  0.00    -0.457 OA
ATOM     25  C   UNL     1      -6.779  16.488  17.074  0.00  0.00    +0.114 C 
ATOM     26  C   UNL     1      -5.984  15.293  16.461  0.00  0.00    +0.012 C 
ATOM     27  C   UNL     1      -5.149  14.535  17.470  0.00  0.00    -0.079 C 
ATOM     28  C   UNL     1      -5.383  13.273  17.866  0.00  0.00    -0.059 C 
ATOM     29  C   UNL     1      -4.558  12.514  18.872  0.00  0.00    +0.079 C 
ATOM     30  C   UNL     1      -4.967  12.837  20.320  0.00  0.00    +0.004 C 
ATOM     31  C   UNL     1      -4.587  14.259  20.743  0.00  0.00    +0.064 C 
ATOM     32  H   UNL     1      -4.474  13.955  22.882  0.00  0.00    +0.037 HD
ATOM     33  H   UNL     1      -7.148  15.053  21.737  0.00  0.00    +0.057 HD
ATOM     34  H   UNL     1      -6.391  13.174  24.045  0.00  0.00    +0.059 HD
ATOM     35  H   UNL     1      -9.126  14.255  23.012  0.00  0.00    +0.064 HD
ATOM     36  H   UNL     1      -8.018  13.712  25.828  0.00  0.00    +0.032 HD
ATOM     37  H   UNL     1      -9.721  13.539  25.476  0.00  0.00    +0.032 HD
ATOM     38  H   UNL     1      -9.290  15.645  26.504  0.00  0.00    +0.060 HD
ATOM     39  H   UNL     1      -6.976  15.817  24.942  0.00  0.00    +0.036 HD
ATOM     40  H   UNL     1      -7.432  16.670  27.203  0.00  0.00    +0.077 HD
ATOM     41  H   UNL     1      -5.717  18.271  27.328  0.00  0.00    +0.068 HD
ATOM     42  H   UNL     1      -7.052  20.872  24.846  0.00  0.00    +0.069 HD
ATOM     43  H   UNL     1      -3.840  19.506  25.475  0.00  0.00    +0.034 HD
ATOM     44  H   UNL     1      -4.351  18.504  24.133  0.00  0.00    +0.034 HD
ATOM     45  H   UNL     1      -3.396  20.643  23.435  0.00  0.00    +0.060 HD
ATOM     46  H   UNL     1      -5.246  19.373  22.108  0.00  0.00    +0.034 HD
ATOM     47  H   UNL     1      -6.333  20.678  22.601  0.00  0.00    +0.034 HD
ATOM     48  H   UNL     1      -4.357  21.708  19.265  0.00  0.00    +0.062 HD
ATOM     49  H   UNL     1      -5.544  18.911  19.900  0.00  0.00    +0.062 HD
ATOM     50  H   UNL     1      -4.641  20.430  17.378  0.00  0.00    +0.069 HD
ATOM     51  H   UNL     1      -7.239  17.026  16.239  0.00  0.00    +0.074 HD
ATOM     52  H   UNL     1      -6.705  14.606  16.001  0.00  0.00    +0.038 HD
ATOM     53  H   UNL     1      -4.299  15.076  17.887  0.00  0.00    +0.057 HD
ATOM     54  H   UNL     1      -6.219  12.724  17.441  0.00  0.00    +0.059 HD
ATOM     55  H   UNL     1      -3.496  12.721  18.698  0.00  0.00    +0.064 HD
ATOM     56  H   UNL     1      -4.479  12.123  20.996  0.00  0.00    +0.032 HD
ATOM     57  H   UNL     1      -6.043  12.668  20.436  0.00  0.00    +0.032 HD
ATOM     58  H   UNL     1      -5.047  14.991  20.074  0.00  0.00    +0.060 HD
ENDROOT
BRANCH   1  59
ATOM     59  C   UNL     1      -4.588  16.050  22.513  0.00  0.00    -0.057 C 
ATOM     60  H   UNL     1      -4.693  16.709  21.644  0.00  0.00    +0.024 HD
ATOM     61  H   UNL     1      -5.203  16.458  23.316  0.00  0.00    +0.024 HD
ATOM     62  H   UNL     1      -3.545  16.093  22.844  0.00  0.00    +0.024 HD
ENDBRANCH   1  59
BRANCH  26  63
ATOM     63  C   UNL     1      -5.054  15.746  15.327  0.00  0.00    -0.056 C 
ATOM     64  H   UNL     1      -4.590  14.882  14.834  0.00  0.00    +0.024 HD
ATOM     65  H   UNL     1      -5.615  16.295  14.565  0.00  0.00    +0.024 HD
ATOM     66  H   UNL     1      -4.246  16.390  15.690  0.00  0.00    +0.024 HD
ENDBRANCH  26  63
BRANCH  18  67
ATOM     67  C   UNL     1      -4.478  22.740  21.606  0.00  0.00    -0.043 C 
ATOM     68  H   UNL     1      -5.362  23.377  21.482  0.00  0.00    +0.027 HD
ATOM     69  H   UNL     1      -4.123  22.811  22.639  0.00  0.00    +0.027 HD
ATOM     70  H   UNL     1      -3.698  23.159  20.963  0.00  0.00    +0.027 HD
ENDBRANCH  18  67
BRANCH   7  71
ATOM     71  C   UNL     1      -8.041  17.282  23.809  0.00  0.00    -0.057 C 
ATOM     72  H   UNL     1      -7.164  17.232  23.158  0.00  0.00    +0.023 HD
ATOM     73  H   UNL     1      -8.887  16.906  23.226  0.00  0.00    +0.023 HD
ATOM     74  H   UNL     1      -8.207  18.343  24.017  0.00  0.00    +0.023 HD
ENDBRANCH   7  71
BRANCH  31  75
ATOM     75  O   UNL     1      -3.167  14.410  20.618  0.00  0.00    -0.391 OA
ATOM     76  H   UNL     1      -2.746  13.622  21.006  0.00  0.00    +0.210 HD
ENDBRANCH  31  75
BRANCH  25  77
ATOM     77  C   UNL     1      -7.926  16.079  18.052  0.00  0.00    +0.020 C 
ATOM     78  H   UNL     1      -8.041  14.992  18.002  0.00  0.00    +0.036 HD
BRANCH  77  79
ATOM     79  C   UNL     1      -7.518  16.338  19.520  0.00  0.00    -0.057 C 
ATOM     80  H   UNL     1      -8.315  16.843  20.075  0.00  0.00    +0.023 HD
ATOM     81  H   UNL     1      -6.618  16.958  19.574  0.00  0.00    +0.023 HD
ATOM     82  H   UNL     1      -7.278  15.401  20.034  0.00  0.00    +0.023 HD
ENDBRANCH  77  79
BRANCH  77  83
ATOM     83  C   UNL     1      -9.311  16.774  17.795  0.00  0.00    +0.067 C 
ATOM     84  H   UNL     1      -9.836  16.891  18.753  0.00  0.00    +0.060 HD
BRANCH  83  85
ATOM     85  C   UNL     1     -10.272  15.951  16.889  0.00  0.00    -0.017 C 
ATOM     86  H   UNL     1     -10.331  16.451  15.919  0.00  0.00    +0.032 HD
BRANCH  85  87
ATOM     87  C   UNL     1      -9.744  14.537  16.628  0.00  0.00    -0.060 C 
ATOM     88  H   UNL     1      -8.702  14.562  16.293  0.00  0.00    +0.023 HD
ATOM     89  H   UNL     1      -9.762  13.929  17.537  0.00  0.00    +0.023 HD
ATOM     90  H   UNL     1     -10.341  14.015  15.874  0.00  0.00    +0.023 HD
ENDBRANCH  85  87
BRANCH  85  91
ATOM     91  C   UNL     1     -11.743  15.918  17.391  0.00  0.00    -0.041 C 
ATOM     92  H   UNL     1     -12.276  15.103  16.886  0.00  0.00    +0.027 HD
ATOM     93  H   UNL     1     -12.231  16.840  17.043  0.00  0.00    +0.027 HD
BRANCH  91  94
ATOM     94  C   UNL     1     -11.972  15.829  18.902  0.00  0.00    +0.007 C 
ATOM     95  H   UNL     1     -12.843  16.442  19.165  0.00  0.00    +0.034 HD
ATOM     96  H   UNL     1     -11.119  16.246  19.441  0.00  0.00    +0.034 HD
BRANCH  94  97
ATOM     97  C   UNL     1     -12.265  14.435  19.429  0.00  0.00    +0.139 C 
ATOM     98  O   UNL     1     -13.244  13.790  19.051  0.00  0.00    -0.297 OA
BRANCH  97  99
ATOM     99  C   UNL     1     -11.308  13.893  20.484  0.00  0.00    +0.041 C 
ATOM    100  H   UNL     1     -11.916  13.588  21.344  0.00  0.00    +0.040 HD
BRANCH  99 101
ATOM    101  C   UNL     1     -10.394  15.011  20.975  0.00  0.00    -0.053 C 
ATOM    102  H   UNL     1     -10.599  15.233  22.028  0.00  0.00    +0.024 HD
ATOM    103  H   UNL     1     -10.547  15.942  20.420  0.00  0.00    +0.024 HD
ATOM    104  H   UNL     1      -9.340  14.724  20.891  0.00  0.00    +0.024 HD
ENDBRANCH  99 101
BRANCH  99 105
ATOM    105  C   UNL     1     -10.575  12.641  19.954  0.00  0.00    +0.071 C 
ATOM    106  H   UNL     1     -10.947  12.401  18.947  0.00  0.00    +0.061 HD
BRANCH 105 107
ATOM    107  C   UNL     1      -9.039  12.790  19.884  0.00  0.00    -0.006 C 
ATOM    108  H   UNL     1      -8.661  13.267  20.796  0.00  0.00    +0.033 HD
ATOM    109  H   UNL     1      -8.748  13.423  19.039  0.00  0.00    +0.033 HD
BRANCH 107 110
ATOM    110  C   UNL     1      -8.365  11.441  19.775  0.00  0.00    -0.067 C 
ATOM    111  C   UNL     1      -8.423  10.682  18.672  0.00  0.00    -0.005 C 
ATOM    112  H   UNL     1      -7.833  11.132  20.670  0.00  0.00    +0.059 HD
ATOM    113  H   UNL     1      -8.980  11.057  17.813  0.00  0.00    +0.078 HD
BRANCH 111 114
ATOM    114  N   UNL     1      -7.851   9.432  18.481  0.00  0.00    -0.284 N 
ATOM    115  C   UNL     1      -7.180   8.699  19.452  0.00  0.00    +0.206 C 
ATOM    116  O   UNL     1      -6.693   7.584  19.303  0.00  0.00    -0.279 OA
ATOM    117  H   UNL     1      -7.113   9.205  20.426  0.00  0.00    +0.126 HD
BRANCH 114 118
ATOM    118  C   UNL     1      -7.985   8.840  17.155  0.00  0.00    +0.007 C 
ATOM    119  H   UNL     1      -8.508   9.547  16.503  0.00  0.00    +0.043 HD
ATOM    120  H   UNL     1      -8.551   7.904  17.176  0.00  0.00    +0.043 HD
ATOM    121  H   UNL     1      -6.990   8.633  16.749  0.00  0.00    +0.043 HD
ENDBRANCH 114 118
ENDBRANCH 111 114
ENDBRANCH 107 110
ENDBRANCH 105 107
BRANCH 105 122
ATOM    122  O   UNL     1     -10.853  11.535  20.840  0.00  0.00    -0.379 OA
BRANCH 122 123
ATOM    123  C   UNL     1     -11.976  10.760  20.443  0.00  0.00    +0.037 C 
ATOM    124  H   UNL     1     -11.804  10.295  19.471  0.00  0.00    +0.052 HD
ATOM    125  H   UNL     1     -12.838  11.423  20.365  0.00  0.00    +0.052 HD
ATOM    126  H   UNL     1     -12.198   9.995  21.191  0.00  0.00    +0.052 HD
ENDBRANCH 122 123
ENDBRANCH 105 122
ENDBRANCH  99 105
ENDBRANCH  97  99
ENDBRANCH  94  97
ENDBRANCH  91  94
ENDBRANCH  85  91
ENDBRANCH  83  85
BRANCH  83 127
ATOM    127  O   UNL     1      -9.164  18.071  17.202  0.00  0.00    -0.379 OA
BRANCH 127 128
ATOM    128  C   UNL     1      -9.442  19.151  18.089  0.00  0.00    +0.037 C 
ATOM    129  H   UNL     1     -10.465  19.514  17.967  0.00  0.00    +0.052 HD
ATOM    130  H   UNL     1      -8.750  19.967  17.852  0.00  0.00    +0.052 HD
ATOM    131  H   UNL     1      -9.271  18.857  19.126  0.00  0.00    +0.052 HD
ENDBRANCH 127 128
ENDBRANCH  83 127
ENDBRANCH  77  83
ENDBRANCH  25  77
BRANCH   9 132
ATOM    132  O   UNL     1      -5.026  16.961  25.936  0.00  0.00    -0.384 OA
ATOM    133  H   UNL     1      -5.483  16.102  25.891  0.00  0.00    +0.210 HD
ENDBRANCH   9 132
BRANCH  29 134
ATOM    134  O   UNL     1      -4.820  11.126  18.616  0.00  0.00    -0.376 OA
BRANCH 134 135
ATOM    135  C   UNL     1      -4.821  10.804  17.233  0.00  0.00    +0.037 C 
ATOM    136  H   UNL     1      -5.152   9.771  17.083  0.00  0.00    +0.052 HD
ATOM    137  H   UNL     1      -3.798  10.901  16.857  0.00  0.00    +0.052 HD
ATOM    138  H   UNL     1      -5.463  11.488  16.668  0.00  0.00    +0.052 HD
ENDBRANCH 134 135
ENDBRANCH  29 134
BRANCH   6 139
ATOM    139  O   UNL     1     -10.225  15.936  24.675  0.00  0.00    -0.379 OA
BRANCH 139 140
ATOM    140  C   UNL     1     -11.289  16.430  25.482  0.00  0.00    +0.037 C 
ATOM    141  H   UNL     1     -11.832  15.601  25.951  0.00  0.00    +0.052 HD
ATOM    142  H   UNL     1     -11.980  16.976  24.832  0.00  0.00    +0.052 HD
ATOM    143  H   UNL     1     -10.915  17.119  26.244  0.00  0.00    +0.052 HD
ENDBRANCH 139 140
ENDBRANCH   6 139
BRANCH  16 144
ATOM    144  O   UNL     1      -4.823  21.834  24.350  0.00  0.00    -0.379 OA
BRANCH 144 145
ATOM    145  C   UNL     1      -3.876  22.302  25.299  0.00  0.00    +0.037 C 
ATOM    146  H   UNL     1      -3.521  23.300  25.034  0.00  0.00    +0.052 HD
ATOM    147  H   UNL     1      -4.295  22.302  26.309  0.00  0.00    +0.052 HD
ATOM    148  H   UNL     1      -3.018  21.624  25.281  0.00  0.00    +0.052 HD
ENDBRANCH 144 145
ENDBRANCH  16 144
BRANCH   4 149
ATOM    149  O   UNL     1      -8.862  12.271  23.596  0.00  0.00    -0.376 OA
BRANCH 149 150
ATOM    150  C   UNL     1     -10.128  11.978  24.175  0.00  0.00    +0.037 C 
ATOM    151  H   UNL     1     -10.082  10.976  24.614  0.00  0.00    +0.052 HD
ATOM    152  H   UNL     1     -10.358  12.692  24.973  0.00  0.00    +0.052 HD
ATOM    153  H   UNL     1     -10.917  11.987  23.417  0.00  0.00    +0.052 HD
ENDBRANCH 149 150
ENDBRANCH   4 149
TORSDOF 33
ENDMDL
MODEL 5
REMARK VINA RESULT:      -5.3      7.493     15.446
REMARK  Name = Sphinxolide B_conf3
REMARK  33 active torsions:
REMARK  status: ('A' for Active; 'I' for Inactive)
REMARK    1  A    between atoms: C_1  and  C_2
REMARK    2  A    between atoms: C_5  and  O_67
REMARK    3  A    between atoms: C_7  and  O_65
REMARK    4  A    between atoms: C_8  and  C_64
REMARK    5  A    between atoms: C_10  and  O_63
REMARK    6  A    between atoms: C_17  and  O_61
REMARK    7  A    between atoms: C_19  and  C_60
REMARK    8  A    between atoms: C_26  and  C_37
REMARK    9  A    between atoms: C_27  and  C_36
REMARK   10  A    between atoms: C_30  and  O_34
REMARK   11  A    between atoms: C_32  and  O_33
REMARK   12  A    between atoms: O_34  and  C_35
REMARK   13  A    between atoms: C_37  and  C_38
REMARK   14  A    between atoms: C_37  and  C_39
REMARK   15  A    between atoms: C_39  and  C_40
REMARK   16  A    between atoms: C_39  and  O_58
REMARK   17  A    between atoms: C_40  and  C_41
REMARK   18  A    between atoms: C_40  and  C_42
REMARK   19  A    between atoms: C_42  and  C_43
REMARK   20  A    between atoms: C_43  and  C_44
REMARK   21  A    between atoms: C_44  and  C_46
REMARK   22  A    between atoms: C_46  and  C_47
REMARK   23  A    between atoms: C_46  and  C_48
REMARK   24  A    between atoms: C_48  and  C_49
REMARK   25  A    between atoms: C_48  and  O_56
REMARK   26  A    between atoms: C_49  and  C_50
REMARK   27  A    between atoms: C_51  and  N_52
REMARK   28  A    between atoms: N_52  and  C_53
REMARK   29  A    between atoms: O_56  and  C_57
REMARK   30  A    between atoms: O_58  and  C_59
REMARK   31  A    between atoms: O_61  and  C_62
REMARK   32  A    between atoms: O_65  and  C_66
REMARK   33  A    between atoms: O_67  and  C_68
REMARK                            x       y       z     vdW  Elec       q    Type
REMARK                         _______ _______ _______ _____ _____    ______ ____
ROOT
ATOM      1  C   UNL     1       4.973  20.906  27.463  0.00  0.00    +0.000 C 
ATOM      2  C   UNL     1       4.603  19.505  27.895  0.00  0.00    -0.080 C 
ATOM      3  C   UNL     1       4.382  19.162  29.176  0.00  0.00    -0.059 C 
ATOM      4  C   UNL     1       3.926  17.804  29.647  0.00  0.00    +0.079 C 
ATOM      5  C   UNL     1       2.616  17.895  30.460  0.00  0.00    +0.004 C 
ATOM      6  C   UNL     1       1.289  17.833  29.666  0.00  0.00    +0.067 C 
ATOM      7  C   UNL     1       1.108  19.014  28.660  0.00  0.00    +0.022 C 
ATOM      8  C   UNL     1      -0.236  19.775  28.914  0.00  0.00    +0.138 C 
ATOM      9  C   UNL     1      -0.341  21.198  28.324  0.00  0.00    +0.114 C 
ATOM     10  C   UNL     1      -0.636  21.141  26.848  0.00  0.00    -0.029 C 
ATOM     11  C   UNL     1      -1.432  20.138  26.422  0.00  0.00    +0.024 C 
ATOM     12  C   UNL     1      -1.958  19.095  27.327  0.00  0.00    +0.332 C 
ATOM     13  O   UNL     1      -2.865  18.354  26.970  0.00  0.00    -0.246 OA
ATOM     14  O   UNL     1      -1.390  18.988  28.556  0.00  0.00    -0.455 OA
ATOM     15  C   UNL     1      -0.071  22.254  25.983  0.00  0.00    -0.002 C 
ATOM     16  C   UNL     1      -0.273  22.261  24.447  0.00  0.00    +0.066 C 
ATOM     17  C   UNL     1       0.520  21.135  23.718  0.00  0.00    -0.005 C 
ATOM     18  C   UNL     1       0.730  21.382  22.223  0.00  0.00    -0.070 C 
ATOM     19  C   UNL     1       1.853  21.134  21.517  0.00  0.00    -0.062 C 
ATOM     20  C   UNL     1       3.094  20.509  21.936  0.00  0.00    -0.055 C 
ATOM     21  C   UNL     1       4.049  20.256  21.025  0.00  0.00    +0.023 C 
ATOM     22  C   UNL     1       5.273  19.452  21.196  0.00  0.00    +0.332 C 
ATOM     23  O   UNL     1       5.869  19.024  20.217  0.00  0.00    -0.246 OA
ATOM     24  O   UNL     1       5.587  19.209  22.491  0.00  0.00    -0.457 OA
ATOM     25  C   UNL     1       6.530  18.119  22.713  0.00  0.00    +0.114 C 
ATOM     26  C   UNL     1       7.972  18.652  22.981  0.00  0.00    +0.012 C 
ATOM     27  C   UNL     1       8.053  19.644  24.121  0.00  0.00    -0.079 C 
ATOM     28  C   UNL     1       8.668  19.416  25.293  0.00  0.00    -0.059 C 
ATOM     29  C   UNL     1       8.749  20.398  26.432  0.00  0.00    +0.079 C 
ATOM     30  C   UNL     1       7.488  20.372  27.313  0.00  0.00    +0.004 C 
ATOM     31  C   UNL     1       6.257  20.948  26.607  0.00  0.00    +0.064 C 
ATOM     32  H   UNL     1       5.118  21.544  28.347  0.00  0.00    +0.037 HD
ATOM     33  H   UNL     1       4.479  18.765  27.108  0.00  0.00    +0.057 HD
ATOM     34  H   UNL     1       4.521  19.906  29.959  0.00  0.00    +0.059 HD
ATOM     35  H   UNL     1       3.809  17.093  28.820  0.00  0.00    +0.064 HD
ATOM     36  H   UNL     1       2.622  18.796  31.088  0.00  0.00    +0.032 HD
ATOM     37  H   UNL     1       2.607  17.051  31.164  0.00  0.00    +0.032 HD
ATOM     38  H   UNL     1       0.496  17.872  30.425  0.00  0.00    +0.060 HD
ATOM     39  H   UNL     1       1.883  19.752  28.888  0.00  0.00    +0.036 HD
ATOM     40  H   UNL     1      -0.304  19.915  30.003  0.00  0.00    +0.077 HD
ATOM     41  H   UNL     1      -1.183  21.726  28.792  0.00  0.00    +0.068 HD
ATOM     42  H   UNL     1      -1.765  20.038  25.398  0.00  0.00    +0.069 HD
ATOM     43  H   UNL     1      -0.480  23.195  26.378  0.00  0.00    +0.034 HD
ATOM     44  H   UNL     1       1.011  22.305  26.150  0.00  0.00    +0.034 HD
ATOM     45  H   UNL     1       0.106  23.223  24.074  0.00  0.00    +0.060 HD
ATOM     46  H   UNL     1       1.493  21.020  24.207  0.00  0.00    +0.034 HD
ATOM     47  H   UNL     1      -0.014  20.184  23.815  0.00  0.00    +0.034 HD
ATOM     48  H   UNL     1       1.821  21.379  20.454  0.00  0.00    +0.062 HD
ATOM     49  H   UNL     1       3.197  20.171  22.960  0.00  0.00    +0.062 HD
ATOM     50  H   UNL     1       3.915  20.559  19.990  0.00  0.00    +0.069 HD
ATOM     51  H   UNL     1       6.578  17.515  21.801  0.00  0.00    +0.074 HD
ATOM     52  H   UNL     1       8.616  17.793  23.204  0.00  0.00    +0.038 HD
ATOM     53  H   UNL     1       7.571  20.607  23.949  0.00  0.00    +0.057 HD
ATOM     54  H   UNL     1       9.164  18.464  25.463  0.00  0.00    +0.059 HD
ATOM     55  H   UNL     1       8.941  21.401  26.033  0.00  0.00    +0.064 HD
ATOM     56  H   UNL     1       7.677  20.952  28.226  0.00  0.00    +0.032 HD
ATOM     57  H   UNL     1       7.303  19.345  27.647  0.00  0.00    +0.032 HD
ATOM     58  H   UNL     1       6.055  20.398  25.683  0.00  0.00    +0.060 HD
ENDROOT
BRANCH   1  59
ATOM     59  C   UNL     1       3.801  21.503  26.672  0.00  0.00    -0.057 C 
ATOM     60  H   UNL     1       3.382  22.380  27.177  0.00  0.00    +0.024 HD
ATOM     61  H   UNL     1       4.126  21.814  25.680  0.00  0.00    +0.024 HD
ATOM     62  H   UNL     1       2.996  20.773  26.540  0.00  0.00    +0.024 HD
ENDBRANCH   1  59
BRANCH  26  63
ATOM     63  C   UNL     1       8.576  19.316  21.736  0.00  0.00    -0.056 C 
ATOM     64  H   UNL     1       9.655  19.125  21.676  0.00  0.00    +0.024 HD
ATOM     65  H   UNL     1       8.122  18.914  20.826  0.00  0.00    +0.024 HD
ATOM     66  H   UNL     1       8.435  20.403  21.740  0.00  0.00    +0.024 HD
ENDBRANCH  26  63
BRANCH  18  67
ATOM     67  C   UNL     1      -0.475  21.898  21.463  0.00  0.00    -0.043 C 
ATOM     68  H   UNL     1      -0.601  22.974  21.635  0.00  0.00    +0.027 HD
ATOM     69  H   UNL     1      -0.363  21.714  20.390  0.00  0.00    +0.027 HD
ATOM     70  H   UNL     1      -1.408  21.420  21.781  0.00  0.00    +0.027 HD
ENDBRANCH  18  67
BRANCH   7  71
ATOM     71  C   UNL     1       1.315  18.562  27.207  0.00  0.00    -0.057 C 
ATOM     72  H   UNL     1       2.244  18.962  26.791  0.00  0.00    +0.023 HD
ATOM     73  H   UNL     1       1.374  17.473  27.120  0.00  0.00    +0.023 HD
ATOM     74  H   UNL     1       0.511  18.919  26.558  0.00  0.00    +0.023 HD
ENDBRANCH   7  71
BRANCH  31  75
ATOM     75  O   UNL     1       6.535  22.304  26.236  0.00  0.00    -0.391 OA
ATOM     76  H   UNL     1       5.830  22.866  26.605  0.00  0.00    +0.210 HD
ENDBRANCH  31  75
BRANCH  25  77
ATOM     77  C   UNL     1       5.947  17.210  23.842  0.00  0.00    +0.020 C 
ATOM     78  H   UNL     1       6.627  17.258  24.698  0.00  0.00    +0.036 HD
BRANCH  77  79
ATOM     79  C   UNL     1       4.625  17.792  24.392  0.00  0.00    -0.057 C 
ATOM     80  H   UNL     1       4.532  18.860  24.167  0.00  0.00    +0.023 HD
ATOM     81  H   UNL     1       4.561  17.665  25.477  0.00  0.00    +0.023 HD
ATOM     82  H   UNL     1       3.758  17.273  23.970  0.00  0.00    +0.023 HD
ENDBRANCH  77  79
BRANCH  77  83
ATOM     83  C   UNL     1       5.698  15.712  23.441  0.00  0.00    +0.067 C 
ATOM     84  H   UNL     1       6.613  15.308  22.986  0.00  0.00    +0.060 HD
BRANCH  83  85
ATOM     85  C   UNL     1       4.581  15.522  22.374  0.00  0.00    -0.017 C 
ATOM     86  H   UNL     1       3.928  16.398  22.412  0.00  0.00    +0.032 HD
BRANCH  85  87
ATOM     87  C   UNL     1       5.149  15.450  20.954  0.00  0.00    -0.060 C 
ATOM     88  H   UNL     1       5.717  16.354  20.712  0.00  0.00    +0.023 HD
ATOM     89  H   UNL     1       5.840  14.610  20.841  0.00  0.00    +0.023 HD
ATOM     90  H   UNL     1       4.358  15.325  20.208  0.00  0.00    +0.023 HD
ENDBRANCH  85  87
BRANCH  85  91
ATOM     91  C   UNL     1       3.628  14.326  22.661  0.00  0.00    -0.041 C 
ATOM     92  H   UNL     1       2.864  14.642  23.382  0.00  0.00    +0.027 HD
ATOM     93  H   UNL     1       4.214  13.555  23.182  0.00  0.00    +0.027 HD
BRANCH  91  94
ATOM     94  C   UNL     1       2.961  13.652  21.460  0.00  0.00    +0.007 C 
ATOM     95  H   UNL     1       2.660  12.636  21.746  0.00  0.00    +0.034 HD
ATOM     96  H   UNL     1       3.671  13.549  20.637  0.00  0.00    +0.034 HD
BRANCH  94  97
ATOM     97  C   UNL     1       1.703  14.336  20.952  0.00  0.00    +0.139 C 
ATOM     98  O   UNL     1       0.657  14.336  21.603  0.00  0.00    -0.297 OA
BRANCH  97  99
ATOM     99  C   UNL     1       1.791  14.985  19.577  0.00  0.00    +0.041 C 
ATOM    100  H   UNL     1       2.840  14.926  19.260  0.00  0.00    +0.040 HD
BRANCH  99 101
ATOM    101  C   UNL     1       1.454  16.469  19.683  0.00  0.00    -0.053 C 
ATOM    102  H   UNL     1       2.336  17.075  19.449  0.00  0.00    +0.024 HD
ATOM    103  H   UNL     1       1.138  16.748  20.692  0.00  0.00    +0.024 HD
ATOM    104  H   UNL     1       0.661  16.744  18.980  0.00  0.00    +0.024 HD
ENDBRANCH  99 101
BRANCH  99 105
ATOM    105  C   UNL     1       0.943  14.198  18.553  0.00  0.00    +0.071 C 
ATOM    106  H   UNL     1       0.295  13.488  19.088  0.00  0.00    +0.061 HD
BRANCH 105 107
ATOM    107  C   UNL     1       0.054  15.086  17.653  0.00  0.00    -0.006 C 
ATOM    108  H   UNL     1       0.211  14.835  16.598  0.00  0.00    +0.033 HD
ATOM    109  H   UNL     1       0.308  16.144  17.779  0.00  0.00    +0.033 HD
BRANCH 107 110
ATOM    110  C   UNL     1      -1.412  14.867  17.950  0.00  0.00    -0.067 C 
ATOM    111  C   UNL     1      -1.954  15.086  19.156  0.00  0.00    -0.005 C 
ATOM    112  H   UNL     1      -1.991  14.509  17.104  0.00  0.00    +0.059 HD
ATOM    113  H   UNL     1      -1.308  15.441  19.959  0.00  0.00    +0.078 HD
BRANCH 111 114
ATOM    114  N   UNL     1      -3.278  14.903  19.526  0.00  0.00    -0.284 N 
ATOM    115  C   UNL     1      -4.333  14.668  18.652  0.00  0.00    +0.206 C 
ATOM    116  O   UNL     1      -5.502  14.480  18.969  0.00  0.00    -0.279 OA
ATOM    117  H   UNL     1      -4.038  14.651  17.594  0.00  0.00    +0.126 HD
BRANCH 114 118
ATOM    118  C   UNL     1      -3.577  14.947  20.954  0.00  0.00    +0.007 C 
ATOM    119  H   UNL     1      -2.641  15.078  21.507  0.00  0.00    +0.043 HD
ATOM    120  H   UNL     1      -4.060  14.029  21.303  0.00  0.00    +0.043 HD
ATOM    121  H   UNL     1      -4.246  15.788  21.158  0.00  0.00    +0.043 HD
ENDBRANCH 114 118
ENDBRANCH 111 114
ENDBRANCH 107 110
ENDBRANCH 105 107
BRANCH 105 122
ATOM    122  O   UNL     1       1.832  13.468  17.681  0.00  0.00    -0.379 OA
BRANCH 122 123
ATOM    123  C   UNL     1       1.930  12.087  18.000  0.00  0.00    +0.037 C 
ATOM    124  H   UNL     1       1.006  11.725  18.453  0.00  0.00    +0.052 HD
ATOM    125  H   UNL     1       2.742  11.958  18.717  0.00  0.00    +0.052 HD
ATOM    126  H   UNL     1       2.164  11.502  17.107  0.00  0.00    +0.052 HD
ENDBRANCH 122 123
ENDBRANCH 105 122
ENDBRANCH  99 105
ENDBRANCH  97  99
ENDBRANCH  94  97
ENDBRANCH  91  94
ENDBRANCH  85  91
ENDBRANCH  83  85
BRANCH  83 127
ATOM    127  O   UNL     1       5.359  14.898  24.571  0.00  0.00    -0.379 OA
BRANCH 127 128
ATOM    128  C   UNL     1       6.430  14.711  25.493  0.00  0.00    +0.037 C 
ATOM    129  H   UNL     1       7.384  15.032  25.068  0.00  0.00    +0.052 HD
ATOM    130  H   UNL     1       6.491  13.641  25.723  0.00  0.00    +0.052 HD
ATOM    131  H   UNL     1       6.238  15.243  26.426  0.00  0.00    +0.052 HD
ENDBRANCH 127 128
ENDBRANCH  83 127
ENDBRANCH  77  83
ENDBRANCH  25  77
BRANCH   9 132
ATOM    132  O   UNL     1       0.825  21.964  28.587  0.00  0.00    -0.384 OA
ATOM    133  H   UNL     1       1.443  21.818  27.848  0.00  0.00    +0.210 HD
ENDBRANCH   9 132
BRANCH  29 134
ATOM    134  O   UNL     1       9.873  19.978  27.222  0.00  0.00    -0.376 OA
BRANCH 134 135
ATOM    135  C   UNL     1      10.793  19.173  26.500  0.00  0.00    +0.037 C 
ATOM    136  H   UNL     1      11.593  18.823  27.160  0.00  0.00    +0.052 HD
ATOM    137  H   UNL     1      11.237  19.785  25.708  0.00  0.00    +0.052 HD
ATOM    138  H   UNL     1      10.290  18.319  26.035  0.00  0.00    +0.052 HD
ENDBRANCH 134 135
ENDBRANCH  29 134
BRANCH   6 139
ATOM    139  O   UNL     1       1.265  16.553  29.021  0.00  0.00    -0.379 OA
BRANCH 139 140
ATOM    140  C   UNL     1       0.055  15.836  29.240  0.00  0.00    +0.037 C 
ATOM    141  H   UNL     1       0.191  14.772  29.015  0.00  0.00    +0.052 HD
ATOM    142  H   UNL     1      -0.704  16.240  28.562  0.00  0.00    +0.052 HD
ATOM    143  H   UNL     1      -0.296  15.966  30.267  0.00  0.00    +0.052 HD
ENDBRANCH 139 140
ENDBRANCH   6 139
BRANCH  16 144
ATOM    144  O   UNL     1      -1.665  22.150  24.107  0.00  0.00    -0.379 OA
BRANCH 144 145
ATOM    145  C   UNL     1      -2.416  23.331  24.351  0.00  0.00    +0.037 C 
ATOM    146  H   UNL     1      -2.686  23.409  25.406  0.00  0.00    +0.052 HD
ATOM    147  H   UNL     1      -1.868  24.221  24.030  0.00  0.00    +0.052 HD
ATOM    148  H   UNL     1      -3.341  23.267  23.771  0.00  0.00    +0.052 HD
ENDBRANCH 144 145
ENDBRANCH  16 144
BRANCH   4 149
ATOM    149  O   UNL     1       4.937  17.338  30.556  0.00  0.00    -0.376 OA
BRANCH 149 150
ATOM    150  C   UNL     1       4.390  16.643  31.669  0.00  0.00    +0.037 C 
ATOM    151  H   UNL     1       4.900  15.677  31.757  0.00  0.00    +0.052 HD
ATOM    152  H   UNL     1       4.560  17.205  32.594  0.00  0.00    +0.052 HD
ATOM    153  H   UNL     1       3.321  16.457  31.528  0.00  0.00    +0.052 HD
ENDBRANCH 149 150
ENDBRANCH   4 149
TORSDOF 33
ENDMDL
MODEL 6
REMARK VINA RESULT:      -5.1      1.280      1.601
REMARK  Name = Sphinxolide B_conf3
REMARK  33 active torsions:
REMARK  status: ('A' for Active; 'I' for Inactive)
REMARK    1  A    between atoms: C_1  and  C_2
REMARK    2  A    between atoms: C_5  and  O_67
REMARK    3  A    between atoms: C_7  and  O_65
REMARK    4  A    between atoms: C_8  and  C_64
REMARK    5  A    between atoms: C_10  and  O_63
REMARK    6  A    between atoms: C_17  and  O_61
REMARK    7  A    between atoms: C_19  and  C_60
REMARK    8  A    between atoms: C_26  and  C_37
REMARK    9  A    between atoms: C_27  and  C_36
REMARK   10  A    between atoms: C_30  and  O_34
REMARK   11  A    between atoms: C_32  and  O_33
REMARK   12  A    between atoms: O_34  and  C_35
REMARK   13  A    between atoms: C_37  and  C_38
REMARK   14  A    between atoms: C_37  and  C_39
REMARK   15  A    between atoms: C_39  and  C_40
REMARK   16  A    between atoms: C_39  and  O_58
REMARK   17  A    between atoms: C_40  and  C_41
REMARK   18  A    between atoms: C_40  and  C_42
REMARK   19  A    between atoms: C_42  and  C_43
REMARK   20  A    between atoms: C_43  and  C_44
REMARK   21  A    between atoms: C_44  and  C_46
REMARK   22  A    between atoms: C_46  and  C_47
REMARK   23  A    between atoms: C_46  and  C_48
REMARK   24  A    between atoms: C_48  and  C_49
REMARK   25  A    between atoms: C_48  and  O_56
REMARK   26  A    between atoms: C_49  and  C_50
REMARK   27  A    between atoms: C_51  and  N_52
REMARK   28  A    between atoms: N_52  and  C_53
REMARK   29  A    between atoms: O_56  and  C_57
REMARK   30  A    between atoms: O_58  and  C_59
REMARK   31  A    between atoms: O_61  and  C_62
REMARK   32  A    between atoms: O_65  and  C_66
REMARK   33  A    between atoms: O_67  and  C_68
REMARK                            x       y       z     vdW  Elec       q    Type
REMARK                         _______ _______ _______ _____ _____    ______ ____
ROOT
ATOM      1  C   UNL     1     -12.226  12.879  19.601  0.00  0.00    +0.000 C 
ATOM      2  C   UNL     1     -10.931  13.316  20.247  0.00  0.00    -0.080 C 
ATOM      3  C   UNL     1     -10.783  14.490  20.884  0.00  0.00    -0.059 C 
ATOM      4  C   UNL     1      -9.542  14.932  21.618  0.00  0.00    +0.079 C 
ATOM      5  C   UNL     1      -9.845  15.276  23.093  0.00  0.00    +0.004 C 
ATOM      6  C   UNL     1      -9.781  14.115  24.113  0.00  0.00    +0.067 C 
ATOM      7  C   UNL     1     -10.825  12.986  23.841  0.00  0.00    +0.022 C 
ATOM      8  C   UNL     1     -11.717  12.722  25.099  0.00  0.00    +0.138 C 
ATOM      9  C   UNL     1     -13.051  11.984  24.853  0.00  0.00    +0.114 C 
ATOM     10  C   UNL     1     -12.818  10.505  24.691  0.00  0.00    -0.029 C 
ATOM     11  C   UNL     1     -11.833   9.956  25.432  0.00  0.00    +0.024 C 
ATOM     12  C   UNL     1     -10.967  10.753  26.327  0.00  0.00    +0.332 C 
ATOM     13  O   UNL     1     -10.259  10.207  27.162  0.00  0.00    -0.246 OA
ATOM     14  O   UNL     1     -10.983  12.102  26.175  0.00  0.00    -0.455 OA
ATOM     15  C   UNL     1     -13.756   9.752  23.763  0.00  0.00    -0.002 C 
ATOM     16  C   UNL     1     -13.570   8.238  23.488  0.00  0.00    +0.066 C 
ATOM     17  C   UNL     1     -12.297   7.918  22.649  0.00  0.00    -0.005 C 
ATOM     18  C   UNL     1     -12.321   6.548  21.968  0.00  0.00    -0.070 C 
ATOM     19  C   UNL     1     -11.891   6.263  20.721  0.00  0.00    -0.062 C 
ATOM     20  C   UNL     1     -11.233   7.114  19.748  0.00  0.00    -0.055 C 
ATOM     21  C   UNL     1     -10.784   6.583  18.598  0.00  0.00    +0.023 C 
ATOM     22  C   UNL     1      -9.917   7.215  17.586  0.00  0.00    +0.332 C 
ATOM     23  O   UNL     1      -9.313   6.524  16.776  0.00  0.00    -0.246 OA
ATOM     24  O   UNL     1      -9.827   8.560  17.711  0.00  0.00    -0.457 OA
ATOM     25  C   UNL     1      -8.706   9.181  17.015  0.00  0.00    +0.114 C 
ATOM     26  C   UNL     1      -9.155   9.833  15.670  0.00  0.00    +0.012 C 
ATOM     27  C   UNL     1     -10.283  10.830  15.823  0.00  0.00    -0.079 C 
ATOM     28  C   UNL     1     -10.168  12.154  15.623  0.00  0.00    -0.059 C 
ATOM     29  C   UNL     1     -11.286  13.152  15.777  0.00  0.00    +0.079 C 
ATOM     30  C   UNL     1     -11.479  13.587  17.240  0.00  0.00    +0.004 C 
ATOM     31  C   UNL     1     -12.050  12.472  18.122  0.00  0.00    +0.064 C 
ATOM     32  H   UNL     1     -12.965  13.692  19.657  0.00  0.00    +0.037 HD
ATOM     33  H   UNL     1     -10.102  12.612  20.212  0.00  0.00    +0.057 HD
ATOM     34  H   UNL     1     -11.613  15.195  20.903  0.00  0.00    +0.059 HD
ATOM     35  H   UNL     1      -8.737  14.190  21.561  0.00  0.00    +0.064 HD
ATOM     36  H   UNL     1     -10.820  15.776  23.172  0.00  0.00    +0.032 HD
ATOM     37  H   UNL     1      -9.108  16.025  23.413  0.00  0.00    +0.032 HD
ATOM     38  H   UNL     1      -9.985  14.577  25.089  0.00  0.00    +0.060 HD
ATOM     39  H   UNL     1     -11.525  13.368  23.091  0.00  0.00    +0.036 HD
ATOM     40  H   UNL     1     -12.009  13.713  25.478  0.00  0.00    +0.077 HD
ATOM     41  H   UNL     1     -13.703  12.105  25.730  0.00  0.00    +0.068 HD
ATOM     42  H   UNL     1     -11.621   8.896  25.448  0.00  0.00    +0.069 HD
ATOM     43  H   UNL     1     -14.770   9.896  24.159  0.00  0.00    +0.034 HD
ATOM     44  H   UNL     1     -13.743  10.245  22.785  0.00  0.00    +0.034 HD
ATOM     45  H   UNL     1     -14.440   7.905  22.903  0.00  0.00    +0.060 HD
ATOM     46  H   UNL     1     -12.173   8.699  21.890  0.00  0.00    +0.034 HD
ATOM     47  H   UNL     1     -11.413   7.940  23.295  0.00  0.00    +0.034 HD
ATOM     48  H   UNL     1     -11.992   5.224  20.399  0.00  0.00    +0.062 HD
ATOM     49  H   UNL     1     -11.030   8.148  20.001  0.00  0.00    +0.062 HD
ATOM     50  H   UNL     1     -10.953   5.533  18.375  0.00  0.00    +0.069 HD
ATOM     51  H   UNL     1      -7.983   8.399  16.764  0.00  0.00    +0.074 HD
ATOM     52  H   UNL     1      -8.286  10.336  15.230  0.00  0.00    +0.038 HD
ATOM     53  H   UNL     1     -11.249  10.416  16.113  0.00  0.00    +0.057 HD
ATOM     54  H   UNL     1      -9.212  12.570  15.318  0.00  0.00    +0.059 HD
ATOM     55  H   UNL     1     -12.207  12.731  15.357  0.00  0.00    +0.064 HD
ATOM     56  H   UNL     1     -12.161  14.447  17.270  0.00  0.00    +0.032 HD
ATOM     57  H   UNL     1     -10.525  13.951  17.637  0.00  0.00    +0.032 HD
ATOM     58  H   UNL     1     -11.397  11.595  18.097  0.00  0.00    +0.060 HD
ENDROOT
BRANCH   1  59
ATOM     59  C   UNL     1     -12.801  11.701  20.399  0.00  0.00    -0.057 C 
ATOM     60  H   UNL     1     -12.148  11.424  21.233  0.00  0.00    +0.024 HD
ATOM     61  H   UNL     1     -13.777  11.957  20.811  0.00  0.00    +0.024 HD
ATOM     62  H   UNL     1     -12.933  10.818  19.766  0.00  0.00    +0.024 HD
ENDBRANCH   1  59
BRANCH  26  63
ATOM     63  C   UNL     1      -9.595   8.781  14.643  0.00  0.00    -0.056 C 
ATOM     64  H   UNL     1     -10.688   8.683  14.627  0.00  0.00    +0.024 HD
ATOM     65  H   UNL     1      -9.278   9.069  13.636  0.00  0.00    +0.024 HD
ATOM     66  H   UNL     1      -9.179   7.792  14.864  0.00  0.00    +0.024 HD
ENDBRANCH  26  63
BRANCH  18  67
ATOM     67  C   UNL     1     -12.823   5.398  22.816  0.00  0.00    -0.043 C 
ATOM     68  H   UNL     1     -13.755   5.677  23.321  0.00  0.00    +0.027 HD
ATOM     69  H   UNL     1     -12.997   4.510  22.200  0.00  0.00    +0.027 HD
ATOM     70  H   UNL     1     -12.114   5.116  23.602  0.00  0.00    +0.027 HD
ENDBRANCH  18  67
BRANCH   7  71
ATOM     71  C   UNL     1     -10.166  11.728  23.257  0.00  0.00    -0.057 C 
ATOM     72  H   UNL     1     -10.687  11.381  22.361  0.00  0.00    +0.023 HD
ATOM     73  H   UNL     1      -9.125  11.906  22.968  0.00  0.00    +0.023 HD
ATOM     74  H   UNL     1     -10.191  10.897  23.967  0.00  0.00    +0.023 HD
ENDBRANCH   7  71
BRANCH  31  75
ATOM     75  O   UNL     1     -13.317  12.069  17.588  0.00  0.00    -0.391 OA
ATOM     76  H   UNL     1     -13.215  11.956  16.626  0.00  0.00    +0.210 HD
ENDBRANCH  31  75
BRANCH  25  77
ATOM     77  C   UNL     1      -8.008  10.157  18.016  0.00  0.00    +0.020 C 
ATOM     78  H   UNL     1      -7.742  11.067  17.469  0.00  0.00    +0.036 HD
BRANCH  77  79
ATOM     79  C   UNL     1      -9.003  10.651  19.089  0.00  0.00    -0.057 C 
ATOM     80  H   UNL     1      -8.643  11.560  19.582  0.00  0.00    +0.023 HD
ATOM     81  H   UNL     1      -9.164   9.887  19.857  0.00  0.00    +0.023 HD
ATOM     82  H   UNL     1      -9.985  10.860  18.652  0.00  0.00    +0.023 HD
ENDBRANCH  77  79
BRANCH  77  83
ATOM     83  C   UNL     1      -6.740   9.582  18.744  0.00  0.00    +0.067 C 
ATOM     84  H   UNL     1      -6.850   9.737  19.827  0.00  0.00    +0.060 HD
BRANCH  83  85
ATOM     85  C   UNL     1      -5.412  10.292  18.352  0.00  0.00    -0.017 C 
ATOM     86  H   UNL     1      -4.584   9.648  18.659  0.00  0.00    +0.032 HD
BRANCH  85  87
ATOM     87  C   UNL     1      -5.288  10.484  16.837  0.00  0.00    -0.060 C 
ATOM     88  H   UNL     1      -5.815  11.387  16.512  0.00  0.00    +0.023 HD
ATOM     89  H   UNL     1      -4.244  10.607  16.534  0.00  0.00    +0.023 HD
ATOM     90  H   UNL     1      -5.690   9.628  16.287  0.00  0.00    +0.023 HD
ENDBRANCH  85  87
BRANCH  85  91
ATOM     91  C   UNL     1      -5.159  11.625  19.111  0.00  0.00    -0.041 C 
ATOM     92  H   UNL     1      -4.806  11.399  20.125  0.00  0.00    +0.027 HD
ATOM     93  H   UNL     1      -6.132  12.117  19.248  0.00  0.00    +0.027 HD
BRANCH  91  94
ATOM     94  C   UNL     1      -4.225  12.645  18.455  0.00  0.00    +0.007 C 
ATOM     95  H   UNL     1      -3.870  12.237  17.500  0.00  0.00    +0.034 HD
ATOM     96  H   UNL     1      -3.342  12.808  19.076  0.00  0.00    +0.034 HD
BRANCH  94  97
ATOM     97  C   UNL     1      -4.860  13.986  18.128  0.00  0.00    +0.139 C 
ATOM     98  O   UNL     1      -6.063  14.092  17.884  0.00  0.00    -0.297 OA
BRANCH  97  99
ATOM     99  C   UNL     1      -3.924  15.186  18.076  0.00  0.00    +0.041 C 
ATOM    100  H   UNL     1      -4.376  15.973  18.692  0.00  0.00    +0.040 HD
BRANCH  99 101
ATOM    101  C   UNL     1      -3.862  15.733  16.653  0.00  0.00    -0.053 C 
ATOM    102  H   UNL     1      -3.978  16.822  16.660  0.00  0.00    +0.024 HD
ATOM    103  H   UNL     1      -4.665  15.335  16.024  0.00  0.00    +0.024 HD
ATOM    104  H   UNL     1      -2.902  15.499  16.182  0.00  0.00    +0.024 HD
ENDBRANCH  99 101
BRANCH  99 105
ATOM    105  C   UNL     1      -2.554  14.829  18.694  0.00  0.00    +0.071 C 
ATOM    106  H   UNL     1      -2.563  13.777  19.013  0.00  0.00    +0.061 HD
BRANCH 105 107
ATOM    107  C   UNL     1      -1.357  15.039  17.740  0.00  0.00    -0.006 C 
ATOM    108  H   UNL     1      -1.430  16.015  17.247  0.00  0.00    +0.033 HD
ATOM    109  H   UNL     1      -1.347  14.276  16.955  0.00  0.00    +0.033 HD
BRANCH 107 110
ATOM    110  C   UNL     1      -0.048  15.019  18.497  0.00  0.00    -0.067 C 
ATOM    111  C   UNL     1       0.688  13.910  18.654  0.00  0.00    -0.005 C 
ATOM    112  H   UNL     1       0.245  15.979  18.911  0.00  0.00    +0.059 HD
ATOM    113  H   UNL     1       0.328  12.981  18.213  0.00  0.00    +0.078 HD
BRANCH 111 114
ATOM    114  N   UNL     1       1.889  13.790  19.338  0.00  0.00    -0.284 N 
ATOM    115  C   UNL     1       2.921  12.922  19.003  0.00  0.00    +0.206 C 
ATOM    116  O   UNL     1       3.996  12.824  19.584  0.00  0.00    -0.279 OA
ATOM    117  H   UNL     1       2.708  12.293  18.127  0.00  0.00    +0.126 HD
BRANCH 114 118
ATOM    118  C   UNL     1       2.083  14.661  20.492  0.00  0.00    +0.007 C 
ATOM    119  H   UNL     1       2.976  14.335  21.036  0.00  0.00    +0.043 HD
ATOM    120  H   UNL     1       1.230  14.635  21.177  0.00  0.00    +0.043 HD
ATOM    121  H   UNL     1       2.219  15.691  20.149  0.00  0.00    +0.043 HD
ENDBRANCH 114 118
ENDBRANCH 111 114
ENDBRANCH 107 110
ENDBRANCH 105 107
BRANCH 105 122
ATOM    122  O   UNL     1      -2.332  15.673  19.844  0.00  0.00    -0.379 OA
BRANCH 122 123
ATOM    123  C   UNL     1      -2.815  15.115  21.058  0.00  0.00    +0.037 C 
ATOM    124  H   UNL     1      -2.809  14.025  21.014  0.00  0.00    +0.052 HD
ATOM    125  H   UNL     1      -3.842  15.452  21.205  0.00  0.00    +0.052 HD
ATOM    126  H   UNL     1      -2.216  15.460  21.904  0.00  0.00    +0.052 HD
ENDBRANCH 122 123
ENDBRANCH 105 122
ENDBRANCH  99 105
ENDBRANCH  97  99
ENDBRANCH  94  97
ENDBRANCH  91  94
ENDBRANCH  85  91
ENDBRANCH  83  85
BRANCH  83 127
ATOM    127  O   UNL     1      -6.568   8.180  18.504  0.00  0.00    -0.379 OA
BRANCH 127 128
ATOM    128  C   UNL     1      -6.906   7.355  19.616  0.00  0.00    +0.037 C 
ATOM    129  H   UNL     1      -6.868   7.914  20.554  0.00  0.00    +0.052 HD
ATOM    130  H   UNL     1      -6.173   6.542  19.664  0.00  0.00    +0.052 HD
ATOM    131  H   UNL     1      -7.893   6.909  19.485  0.00  0.00    +0.052 HD
ENDBRANCH 127 128
ENDBRANCH  83 127
ENDBRANCH  77  83
ENDBRANCH  25  77
BRANCH   9 132
ATOM    132  O   UNL     1     -13.751  12.520  23.740  0.00  0.00    -0.384 OA
ATOM    133  H   UNL     1     -13.087  12.800  23.085  0.00  0.00    +0.210 HD
ENDBRANCH   9 132
BRANCH  29 134
ATOM    134  O   UNL     1     -10.890  14.295  15.003  0.00  0.00    -0.376 OA
BRANCH 134 135
ATOM    135  C   UNL     1     -11.955  15.205  14.768  0.00  0.00    +0.037 C 
ATOM    136  H   UNL     1     -11.597  16.071  14.201  0.00  0.00    +0.052 HD
ATOM    137  H   UNL     1     -12.329  15.553  15.736  0.00  0.00    +0.052 HD
ATOM    138  H   UNL     1     -12.777  14.721  14.233  0.00  0.00    +0.052 HD
ENDBRANCH 134 135
ENDBRANCH  29 134
BRANCH   6 139
ATOM    139  O   UNL     1      -8.431  13.633  24.091  0.00  0.00    -0.379 OA
BRANCH 139 140
ATOM    140  C   UNL     1      -7.517  14.489  24.768  0.00  0.00    +0.037 C 
ATOM    141  H   UNL     1      -6.883  13.912  25.449  0.00  0.00    +0.052 HD
ATOM    142  H   UNL     1      -8.099  15.206  25.357  0.00  0.00    +0.052 HD
ATOM    143  H   UNL     1      -6.903  15.046  24.055  0.00  0.00    +0.052 HD
ENDBRANCH 139 140
ENDBRANCH   6 139
BRANCH  16 144
ATOM    144  O   UNL     1     -13.524   7.489  24.714  0.00  0.00    -0.379 OA
BRANCH 144 145
ATOM    145  C   UNL     1     -14.783   7.359  25.359  0.00  0.00    +0.037 C 
ATOM    146  H   UNL     1     -15.547   7.944  24.842  0.00  0.00    +0.052 HD
ATOM    147  H   UNL     1     -15.086   6.311  25.427  0.00  0.00    +0.052 HD
ATOM    148  H   UNL     1     -14.684   7.758  26.372  0.00  0.00    +0.052 HD
ENDBRANCH 144 145
ENDBRANCH  16 144
BRANCH   4 149
ATOM    149  O   UNL     1      -9.125  16.157  20.992  0.00  0.00    -0.376 OA
BRANCH 149 150
ATOM    150  C   UNL     1      -7.846  16.047  20.380  0.00  0.00    +0.037 C 
ATOM    151  H   UNL     1      -7.250  16.919  20.668  0.00  0.00    +0.052 HD
ATOM    152  H   UNL     1      -7.329  15.147  20.729  0.00  0.00    +0.052 HD
ATOM    153  H   UNL     1      -7.934  16.036  19.289  0.00  0.00    +0.052 HD
ENDBRANCH 149 150
ENDBRANCH   4 149
TORSDOF 33
ENDMDL
MODEL 7
REMARK VINA RESULT:      -5.0      1.678      2.461
REMARK  Name = Sphinxolide B_conf3
REMARK  33 active torsions:
REMARK  status: ('A' for Active; 'I' for Inactive)
REMARK    1  A    between atoms: C_1  and  C_2
REMARK    2  A    between atoms: C_5  and  O_67
REMARK    3  A    between atoms: C_7  and  O_65
REMARK    4  A    between atoms: C_8  and  C_64
REMARK    5  A    between atoms: C_10  and  O_63
REMARK    6  A    between atoms: C_17  and  O_61
REMARK    7  A    between atoms: C_19  and  C_60
REMARK    8  A    between atoms: C_26  and  C_37
REMARK    9  A    between atoms: C_27  and  C_36
REMARK   10  A    between atoms: C_30  and  O_34
REMARK   11  A    between atoms: C_32  and  O_33
REMARK   12  A    between atoms: O_34  and  C_35
REMARK   13  A    between atoms: C_37  and  C_38
REMARK   14  A    between atoms: C_37  and  C_39
REMARK   15  A    between atoms: C_39  and  C_40
REMARK   16  A    between atoms: C_39  and  O_58
REMARK   17  A    between atoms: C_40  and  C_41
REMARK   18  A    between atoms: C_40  and  C_42
REMARK   19  A    between atoms: C_42  and  C_43
REMARK   20  A    between atoms: C_43  and  C_44
REMARK   21  A    between atoms: C_44  and  C_46
REMARK   22  A    between atoms: C_46  and  C_47
REMARK   23  A    between atoms: C_46  and  C_48
REMARK   24  A    between atoms: C_48  and  C_49
REMARK   25  A    between atoms: C_48  and  O_56
REMARK   26  A    between atoms: C_49  and  C_50
REMARK   27  A    between atoms: C_51  and  N_52
REMARK   28  A    between atoms: N_52  and  C_53
REMARK   29  A    between atoms: O_56  and  C_57
REMARK   30  A    between atoms: O_58  and  C_59
REMARK   31  A    between atoms: O_61  and  C_62
REMARK   32  A    between atoms: O_65  and  C_66
REMARK   33  A    between atoms: O_67  and  C_68
REMARK                            x       y       z     vdW  Elec       q    Type
REMARK                         _______ _______ _______ _____ _____    ______ ____
ROOT
ATOM      1  C   UNL     1     -10.877  14.658  18.230  0.00  0.00    +0.000 C 
ATOM      2  C   UNL     1      -9.396  14.955  18.281  0.00  0.00    -0.080 C 
ATOM      3  C   UNL     1      -8.882  16.182  18.089  0.00  0.00    -0.059 C 
ATOM      4  C   UNL     1      -7.423  16.545  18.216  0.00  0.00    +0.079 C 
ATOM      5  C   UNL     1      -7.205  17.673  19.247  0.00  0.00    +0.004 C 
ATOM      6  C   UNL     1      -7.012  17.250  20.723  0.00  0.00    +0.067 C 
ATOM      7  C   UNL     1      -8.250  16.516  21.328  0.00  0.00    +0.022 C 
ATOM      8  C   UNL     1      -8.745  17.222  22.635  0.00  0.00    +0.138 C 
ATOM      9  C   UNL     1     -10.187  16.901  23.084  0.00  0.00    +0.114 C 
ATOM     10  C   UNL     1     -10.245  15.561  23.769  0.00  0.00    -0.029 C 
ATOM     11  C   UNL     1      -9.177  15.209  24.516  0.00  0.00    +0.024 C 
ATOM     12  C   UNL     1      -7.968  16.052  24.629  0.00  0.00    +0.332 C 
ATOM     13  O   UNL     1      -7.131  15.834  25.495  0.00  0.00    -0.246 OA
ATOM     14  O   UNL     1      -7.822  17.060  23.731  0.00  0.00    -0.455 OA
ATOM     15  C   UNL     1     -11.525  14.758  23.617  0.00  0.00    -0.002 C 
ATOM     16  C   UNL     1     -11.668  13.346  24.240  0.00  0.00    +0.066 C 
ATOM     17  C   UNL     1     -10.776  12.275  23.543  0.00  0.00    -0.005 C 
ATOM     18  C   UNL     1     -11.218  10.832  23.792  0.00  0.00    -0.070 C 
ATOM     19  C   UNL     1     -11.239   9.830  22.888  0.00  0.00    -0.062 C 
ATOM     20  C   UNL     1     -10.786   9.813  21.510  0.00  0.00    -0.055 C 
ATOM     21  C   UNL     1     -10.797   8.658  20.822  0.00  0.00    +0.023 C 
ATOM     22  C   UNL     1     -10.194   8.383  19.505  0.00  0.00    +0.332 C 
ATOM     23  O   UNL     1      -9.980   7.230  19.156  0.00  0.00    -0.246 OA
ATOM     24  O   UNL     1      -9.864   9.500  18.814  0.00  0.00    -0.457 OA
ATOM     25  C   UNL     1      -8.928   9.303  17.713  0.00  0.00    +0.114 C 
ATOM     26  C   UNL     1      -9.660   9.265  16.336  0.00  0.00    +0.012 C 
ATOM     27  C   UNL     1     -10.520  10.481  16.070  0.00  0.00    -0.079 C 
ATOM     28  C   UNL     1     -10.269  11.405  15.127  0.00  0.00    -0.059 C 
ATOM     29  C   UNL     1     -11.120  12.620  14.859  0.00  0.00    +0.079 C 
ATOM     30  C   UNL     1     -10.787  13.783  15.811  0.00  0.00    +0.004 C 
ATOM     31  C   UNL     1     -11.226  13.515  17.253  0.00  0.00    +0.064 C 
ATOM     32  H   UNL     1     -11.429  15.561  17.928  0.00  0.00    +0.037 HD
ATOM     33  H   UNL     1      -8.736  14.125  18.522  0.00  0.00    +0.057 HD
ATOM     34  H   UNL     1      -9.548  17.006  17.834  0.00  0.00    +0.059 HD
ATOM     35  H   UNL     1      -6.798  15.679  18.465  0.00  0.00    +0.064 HD
ATOM     36  H   UNL     1      -8.021  18.407  19.183  0.00  0.00    +0.032 HD
ATOM     37  H   UNL     1      -6.299  18.219  18.949  0.00  0.00    +0.032 HD
ATOM     38  H   UNL     1      -6.835  18.186  21.270  0.00  0.00    +0.060 HD
ATOM     39  H   UNL     1      -9.077  16.645  20.624  0.00  0.00    +0.036 HD
ATOM     40  H   UNL     1      -8.751  18.299  22.414  0.00  0.00    +0.077 HD
ATOM     41  H   UNL     1     -10.513  17.646  23.824  0.00  0.00    +0.068 HD
ATOM     42  H   UNL     1      -9.137  14.304  25.106  0.00  0.00    +0.069 HD
ATOM     43  H   UNL     1     -12.336  15.382  24.018  0.00  0.00    +0.034 HD
ATOM     44  H   UNL     1     -11.736  14.645  22.548  0.00  0.00    +0.034 HD
ATOM     45  H   UNL     1     -12.715  13.037  24.108  0.00  0.00    +0.060 HD
ATOM     46  H   UNL     1     -10.772  12.472  22.465  0.00  0.00    +0.034 HD
ATOM     47  H   UNL     1      -9.745  12.362  23.901  0.00  0.00    +0.034 HD
ATOM     48  H   UNL     1     -11.591   8.861  23.247  0.00  0.00    +0.062 HD
ATOM     49  H   UNL     1     -10.359  10.712  21.082  0.00  0.00    +0.062 HD
ATOM     50  H   UNL     1     -11.186   7.752  21.278  0.00  0.00    +0.069 HD
ATOM     51  H   UNL     1      -8.445   8.329  17.844  0.00  0.00    +0.074 HD
ATOM     52  H   UNL     1      -8.900   9.181  15.550  0.00  0.00    +0.038 HD
ATOM     53  H   UNL     1     -11.403  10.588  16.700  0.00  0.00    +0.057 HD
ATOM     54  H   UNL     1      -9.400  11.295  14.485  0.00  0.00    +0.059 HD
ATOM     55  H   UNL     1     -12.178  12.341  14.919  0.00  0.00    +0.064 HD
ATOM     56  H   UNL     1     -11.286  14.692  15.451  0.00  0.00    +0.032 HD
ATOM     57  H   UNL     1      -9.713  13.994  15.760  0.00  0.00    +0.032 HD
ATOM     58  H   UNL     1     -10.755  12.604  17.632  0.00  0.00    +0.060 HD
ENDROOT
BRANCH   1  59
ATOM     59  C   UNL     1     -11.356  14.298  19.644  0.00  0.00    -0.057 C 
ATOM     60  H   UNL     1     -12.282  13.714  19.617  0.00  0.00    +0.024 HD
ATOM     61  H   UNL     1     -10.603  13.707  20.165  0.00  0.00    +0.024 HD
ATOM     62  H   UNL     1     -11.541  15.196  20.243  0.00  0.00    +0.024 HD
ENDBRANCH   1  59
BRANCH  26  63
ATOM     63  C   UNL     1     -10.548   8.022  16.194  0.00  0.00    -0.056 C 
ATOM     64  H   UNL     1      -9.951   7.104  16.269  0.00  0.00    +0.024 HD
ATOM     65  H   UNL     1     -11.297   7.990  16.991  0.00  0.00    +0.024 HD
ATOM     66  H   UNL     1     -11.070   7.996  15.232  0.00  0.00    +0.024 HD
ENDBRANCH  26  63
BRANCH  18  67
ATOM     67  C   UNL     1     -11.608  10.497  25.218  0.00  0.00    -0.043 C 
ATOM     68  H   UNL     1     -10.768  10.024  25.739  0.00  0.00    +0.027 HD
ATOM     69  H   UNL     1     -11.907  11.401  25.759  0.00  0.00    +0.027 HD
ATOM     70  H   UNL     1     -12.445   9.793  25.269  0.00  0.00    +0.027 HD
ENDBRANCH  18  67
BRANCH   7  71
ATOM     71  C   UNL     1      -8.002  15.009  21.478  0.00  0.00    -0.057 C 
ATOM     72  H   UNL     1      -7.072  14.704  20.992  0.00  0.00    +0.023 HD
ATOM     73  H   UNL     1      -7.921  14.708  22.528  0.00  0.00    +0.023 HD
ATOM     74  H   UNL     1      -8.798  14.423  21.011  0.00  0.00    +0.023 HD
ENDBRANCH   7  71
BRANCH  31  75
ATOM     75  O   UNL     1     -12.642  13.295  17.268  0.00  0.00    -0.391 OA
ATOM     76  H   UNL     1     -12.815  12.495  17.795  0.00  0.00    +0.210 HD
ENDBRANCH  31  75
BRANCH  25  77
ATOM     77  C   UNL     1      -7.816  10.394  17.836  0.00  0.00    +0.020 C 
ATOM     78  H   UNL     1      -7.517  10.685  16.824  0.00  0.00    +0.036 HD
BRANCH  77  79
ATOM     79  C   UNL     1      -8.386  11.697  18.439  0.00  0.00    -0.057 C 
ATOM     80  H   UNL     1      -9.475  11.651  18.538  0.00  0.00    +0.023 HD
ATOM     81  H   UNL     1      -8.136  12.561  17.814  0.00  0.00    +0.023 HD
ATOM     82  H   UNL     1      -7.956  11.897  19.426  0.00  0.00    +0.023 HD
ENDBRANCH  77  79
BRANCH  77  83
ATOM     83  C   UNL     1      -6.550   9.976  18.667  0.00  0.00    +0.067 C 
ATOM     84  H   UNL     1      -6.722  10.219  19.725  0.00  0.00    +0.060 HD
BRANCH  83  85
ATOM     85  C   UNL     1      -5.254  10.739  18.268  0.00  0.00    -0.017 C 
ATOM     86  H   UNL     1      -4.415  10.273  18.792  0.00  0.00    +0.032 HD
BRANCH  85  87
ATOM     87  C   UNL     1      -4.960  10.626  16.769  0.00  0.00    -0.060 C 
ATOM     88  H   UNL     1      -4.397  11.495  16.413  0.00  0.00    +0.023 HD
ATOM     89  H   UNL     1      -4.348   9.747  16.546  0.00  0.00    +0.023 HD
ATOM     90  H   UNL     1      -5.880  10.542  16.182  0.00  0.00    +0.023 HD
ENDBRANCH  85  87
BRANCH  85  91
ATOM     91  C   UNL     1      -5.220  12.220  18.739  0.00  0.00    -0.041 C 
ATOM     92  H   UNL     1      -5.258  12.249  19.835  0.00  0.00    +0.027 HD
ATOM     93  H   UNL     1      -6.155  12.694  18.406  0.00  0.00    +0.027 HD
BRANCH  91  94
ATOM     94  C   UNL     1      -4.068  13.095  18.237  0.00  0.00    +0.007 C 
ATOM     95  H   UNL     1      -4.454  13.787  17.478  0.00  0.00    +0.034 HD
ATOM     96  H   UNL     1      -3.310  12.480  17.747  0.00  0.00    +0.034 HD
BRANCH  94  97
ATOM     97  C   UNL     1      -3.404  13.958  19.296  0.00  0.00    +0.139 C 
ATOM     98  O   UNL     1      -3.685  13.851  20.491  0.00  0.00    -0.297 OA
BRANCH  97  99
ATOM     99  C   UNL     1      -2.404  14.994  18.798  0.00  0.00    +0.041 C 
ATOM    100  H   UNL     1      -2.647  15.941  19.295  0.00  0.00    +0.040 HD
BRANCH  99 101
ATOM    101  C   UNL     1      -2.603  15.227  17.303  0.00  0.00    -0.053 C 
ATOM    102  H   UNL     1      -3.357  16.004  17.138  0.00  0.00    +0.024 HD
ATOM    103  H   UNL     1      -2.958  14.328  16.790  0.00  0.00    +0.024 HD
ATOM    104  H   UNL     1      -1.672  15.555  16.828  0.00  0.00    +0.024 HD
ENDBRANCH  99 101
BRANCH  99 105
ATOM    105  C   UNL     1      -0.968  14.598  19.208  0.00  0.00    +0.071 C 
ATOM    106  H   UNL     1      -0.994  13.632  19.733  0.00  0.00    +0.061 HD
BRANCH 105 107
ATOM    107  C   UNL     1       0.018  14.482  18.024  0.00  0.00    -0.006 C 
ATOM    108  H   UNL     1       0.275  15.478  17.644  0.00  0.00    +0.033 HD
ATOM    109  H   UNL     1      -0.432  13.923  17.197  0.00  0.00    +0.033 HD
BRANCH 107 110
ATOM    110  C   UNL     1       1.309  13.822  18.452  0.00  0.00    -0.067 C 
ATOM    111  C   UNL     1       2.424  14.511  18.731  0.00  0.00    -0.005 C 
ATOM    112  H   UNL     1       1.261  12.739  18.509  0.00  0.00    +0.059 HD
ATOM    113  H   UNL     1       2.397  15.597  18.648  0.00  0.00    +0.078 HD
BRANCH 111 114
ATOM    114  N   UNL     1       3.653  13.997  19.118  0.00  0.00    -0.284 N 
ATOM    115  C   UNL     1       4.877  14.637  18.961  0.00  0.00    +0.206 C 
ATOM    116  O   UNL     1       5.966  14.206  19.321  0.00  0.00    -0.279 OA
ATOM    117  H   UNL     1       4.806  15.619  18.471  0.00  0.00    +0.126 HD
BRANCH 114 118
ATOM    118  C   UNL     1       3.651  12.685  19.755  0.00  0.00    +0.007 C 
ATOM    119  H   UNL     1       3.954  12.799  20.802  0.00  0.00    +0.043 HD
ATOM    120  H   UNL     1       4.340  11.988  19.269  0.00  0.00    +0.043 HD
ATOM    121  H   UNL     1       2.643  12.262  19.710  0.00  0.00    +0.043 HD
ENDBRANCH 114 118
ENDBRANCH 111 114
ENDBRANCH 107 110
ENDBRANCH 105 107
BRANCH 105 122
ATOM    122  O   UNL     1      -0.447  15.610  20.096  0.00  0.00    -0.379 OA
BRANCH 122 123
ATOM    123  C   UNL     1      -0.352  16.894  19.497  0.00  0.00    +0.037 C 
ATOM    124  H   UNL     1       0.626  17.038  19.037  0.00  0.00    +0.052 HD
ATOM    125  H   UNL     1      -0.485  17.646  20.276  0.00  0.00    +0.052 HD
ATOM    126  H   UNL     1      -1.141  17.030  18.752  0.00  0.00    +0.052 HD
ENDBRANCH 122 123
ENDBRANCH 105 122
ENDBRANCH  99 105
ENDBRANCH  97  99
ENDBRANCH  94  97
ENDBRANCH  91  94
ENDBRANCH  85  91
ENDBRANCH  83  85
BRANCH  83 127
ATOM    127  O   UNL     1      -6.276   8.573  18.566  0.00  0.00    -0.379 OA
BRANCH 127 128
ATOM    128  C   UNL     1      -6.496   7.850  19.773  0.00  0.00    +0.037 C 
ATOM    129  H   UNL     1      -7.557   7.636  19.922  0.00  0.00    +0.052 HD
ATOM    130  H   UNL     1      -6.145   8.471  20.605  0.00  0.00    +0.052 HD
ATOM    131  H   UNL     1      -5.922   6.922  19.782  0.00  0.00    +0.052 HD
ENDBRANCH 127 128
ENDBRANCH  83 127
ENDBRANCH  77  83
ENDBRANCH  25  77
BRANCH   9 132
ATOM    132  O   UNL     1     -11.102  16.965  22.001  0.00  0.00    -0.384 OA
ATOM    133  H   UNL     1     -11.951  17.287  22.354  0.00  0.00    +0.210 HD
ENDBRANCH   9 132
BRANCH  29 134
ATOM    134  O   UNL     1     -10.807  13.019  13.515  0.00  0.00    -0.376 OA
BRANCH 134 135
ATOM    135  C   UNL     1     -11.601  12.359  12.540  0.00  0.00    +0.037 C 
ATOM    136  H   UNL     1     -11.767  11.315  12.827  0.00  0.00    +0.052 HD
ATOM    137  H   UNL     1     -11.060  12.376  11.588  0.00  0.00    +0.052 HD
ATOM    138  H   UNL     1     -12.560  12.867  12.401  0.00  0.00    +0.052 HD
ENDBRANCH 134 135
ENDBRANCH  29 134
BRANCH   6 139
ATOM    139  O   UNL     1      -5.825  16.448  20.759  0.00  0.00    -0.379 OA
BRANCH 139 140
ATOM    140  C   UNL     1      -4.627  17.217  20.769  0.00  0.00    +0.037 C 
ATOM    141  H   UNL     1      -3.749  16.563  20.724  0.00  0.00    +0.052 HD
ATOM    142  H   UNL     1      -4.594  17.780  21.707  0.00  0.00    +0.052 HD
ATOM    143  H   UNL     1      -4.613  17.930  19.939  0.00  0.00    +0.052 HD
ENDBRANCH 139 140
ENDBRANCH   6 139
BRANCH  16 144
ATOM    144  O   UNL     1     -11.366  13.366  25.645  0.00  0.00    -0.379 OA
BRANCH 144 145
ATOM    145  C   UNL     1     -12.369  13.976  26.443  0.00  0.00    +0.037 C 
ATOM    146  H   UNL     1     -13.217  13.302  26.584  0.00  0.00    +0.052 HD
ATOM    147  H   UNL     1     -11.968  14.293  27.409  0.00  0.00    +0.052 HD
ATOM    148  H   UNL     1     -12.729  14.861  25.911  0.00  0.00    +0.052 HD
ENDBRANCH 144 145
ENDBRANCH  16 144
BRANCH   4 149
ATOM    149  O   UNL     1      -7.034  17.079  16.939  0.00  0.00    -0.376 OA
BRANCH 149 150
ATOM    150  C   UNL     1      -5.812  16.525  16.467  0.00  0.00    +0.037 C 
ATOM    151  H   UNL     1      -4.987  17.135  16.850  0.00  0.00    +0.052 HD
ATOM    152  H   UNL     1      -5.685  15.503  16.839  0.00  0.00    +0.052 HD
ATOM    153  H   UNL     1      -5.773  16.540  15.374  0.00  0.00    +0.052 HD
ENDBRANCH 149 150
ENDBRANCH   4 149
TORSDOF 33
ENDMDL
MODEL 8
REMARK VINA RESULT:      -4.9      3.328      9.403
REMARK  Name = Sphinxolide B_conf3
REMARK  33 active torsions:
REMARK  status: ('A' for Active; 'I' for Inactive)
REMARK    1  A    between atoms: C_1  and  C_2
REMARK    2  A    between atoms: C_5  and  O_67
REMARK    3  A    between atoms: C_7  and  O_65
REMARK    4  A    between atoms: C_8  and  C_64
REMARK    5  A    between atoms: C_10  and  O_63
REMARK    6  A    between atoms: C_17  and  O_61
REMARK    7  A    between atoms: C_19  and  C_60
REMARK    8  A    between atoms: C_26  and  C_37
REMARK    9  A    between atoms: C_27  and  C_36
REMARK   10  A    between atoms: C_30  and  O_34
REMARK   11  A    between atoms: C_32  and  O_33
REMARK   12  A    between atoms: O_34  and  C_35
REMARK   13  A    between atoms: C_37  and  C_38
REMARK   14  A    between atoms: C_37  and  C_39
REMARK   15  A    between atoms: C_39  and  C_40
REMARK   16  A    between atoms: C_39  and  O_58
REMARK   17  A    between atoms: C_40  and  C_41
REMARK   18  A    between atoms: C_40  and  C_42
REMARK   19  A    between atoms: C_42  and  C_43
REMARK   20  A    between atoms: C_43  and  C_44
REMARK   21  A    between atoms: C_44  and  C_46
REMARK   22  A    between atoms: C_46  and  C_47
REMARK   23  A    between atoms: C_46  and  C_48
REMARK   24  A    between atoms: C_48  and  C_49
REMARK   25  A    between atoms: C_48  and  O_56
REMARK   26  A    between atoms: C_49  and  C_50
REMARK   27  A    between atoms: C_51  and  N_52
REMARK   28  A    between atoms: N_52  and  C_53
REMARK   29  A    between atoms: O_56  and  C_57
REMARK   30  A    between atoms: O_58  and  C_59
REMARK   31  A    between atoms: O_61  and  C_62
REMARK   32  A    between atoms: O_65  and  C_66
REMARK   33  A    between atoms: O_67  and  C_68
REMARK                            x       y       z     vdW  Elec       q    Type
REMARK                         _______ _______ _______ _____ _____    ______ ____
ROOT
ATOM      1  C   UNL     1      -6.405  14.837  23.200  0.00  0.00    +0.000 C 
ATOM      2  C   UNL     1      -6.720  16.129  22.482  0.00  0.00    -0.080 C 
ATOM      3  C   UNL     1      -5.868  17.166  22.420  0.00  0.00    -0.059 C 
ATOM      4  C   UNL     1      -6.099  18.439  21.645  0.00  0.00    +0.079 C 
ATOM      5  C   UNL     1      -4.967  18.700  20.628  0.00  0.00    +0.004 C 
ATOM      6  C   UNL     1      -5.120  18.064  19.225  0.00  0.00    +0.067 C 
ATOM      7  C   UNL     1      -5.159  16.503  19.248  0.00  0.00    +0.022 C 
ATOM      8  C   UNL     1      -4.064  15.895  18.310  0.00  0.00    +0.138 C 
ATOM      9  C   UNL     1      -3.684  14.420  18.565  0.00  0.00    +0.114 C 
ATOM     10  C   UNL     1      -4.718  13.495  17.980  0.00  0.00    -0.029 C 
ATOM     11  C   UNL     1      -5.306  13.885  16.830  0.00  0.00    +0.024 C 
ATOM     12  C   UNL     1      -5.012  15.179  16.180  0.00  0.00    +0.332 C 
ATOM     13  O   UNL     1      -5.364  15.396  15.028  0.00  0.00    -0.246 OA
ATOM     14  O   UNL     1      -4.352  16.112  16.914  0.00  0.00    -0.455 OA
ATOM     15  C   UNL     1      -4.956  12.178  18.697  0.00  0.00    -0.002 C 
ATOM     16  C   UNL     1      -6.035  11.179  18.206  0.00  0.00    +0.066 C 
ATOM     17  C   UNL     1      -7.491  11.691  18.421  0.00  0.00    -0.005 C 
ATOM     18  C   UNL     1      -8.554  10.592  18.399  0.00  0.00    -0.070 C 
ATOM     19  C   UNL     1      -9.626  10.493  19.213  0.00  0.00    -0.062 C 
ATOM     20  C   UNL     1     -10.103  11.406  20.234  0.00  0.00    -0.055 C 
ATOM     21  C   UNL     1     -11.271  11.159  20.851  0.00  0.00    +0.023 C 
ATOM     22  C   UNL     1     -12.027  12.051  21.749  0.00  0.00    +0.332 C 
ATOM     23  O   UNL     1     -13.214  11.847  21.963  0.00  0.00    -0.246 OA
ATOM     24  O   UNL     1     -11.301  13.095  22.216  0.00  0.00    -0.457 OA
ATOM     25  C   UNL     1     -12.076  14.199  22.771  0.00  0.00    +0.114 C 
ATOM     26  C   UNL     1     -12.099  14.159  24.330  0.00  0.00    +0.012 C 
ATOM     27  C   UNL     1     -10.723  14.127  24.959  0.00  0.00    -0.079 C 
ATOM     28  C   UNL     1     -10.189  15.123  25.686  0.00  0.00    -0.059 C 
ATOM     29  C   UNL     1      -8.819  15.099  26.312  0.00  0.00    +0.079 C 
ATOM     30  C   UNL     1      -7.718  15.499  25.314  0.00  0.00    +0.004 C 
ATOM     31  C   UNL     1      -7.487  14.444  24.228  0.00  0.00    +0.064 C 
ATOM     32  H   UNL     1      -5.439  14.924  23.721  0.00  0.00    +0.037 HD
ATOM     33  H   UNL     1      -7.676  16.184  21.967  0.00  0.00    +0.057 HD
ATOM     34  H   UNL     1      -4.918  17.108  22.950  0.00  0.00    +0.059 HD
ATOM     35  H   UNL     1      -7.072  18.447  21.138  0.00  0.00    +0.064 HD
ATOM     36  H   UNL     1      -3.998  18.405  21.056  0.00  0.00    +0.032 HD
ATOM     37  H   UNL     1      -4.901  19.787  20.481  0.00  0.00    +0.032 HD
ATOM     38  H   UNL     1      -4.242  18.402  18.657  0.00  0.00    +0.060 HD
ATOM     39  H   UNL     1      -4.858  16.188  20.252  0.00  0.00    +0.036 HD
ATOM     40  H   UNL     1      -3.143  16.462  18.510  0.00  0.00    +0.077 HD
ATOM     41  H   UNL     1      -2.737  14.194  18.055  0.00  0.00    +0.068 HD
ATOM     42  H   UNL     1      -6.011  13.272  16.285  0.00  0.00    +0.069 HD
ATOM     43  H   UNL     1      -3.993  11.649  18.709  0.00  0.00    +0.034 HD
ATOM     44  H   UNL     1      -5.192  12.393  19.745  0.00  0.00    +0.034 HD
ATOM     45  H   UNL     1      -5.920  10.260  18.800  0.00  0.00    +0.060 HD
ATOM     46  H   UNL     1      -7.536  12.221  19.379  0.00  0.00    +0.034 HD
ATOM     47  H   UNL     1      -7.751  12.407  17.634  0.00  0.00    +0.034 HD
ATOM     48  H   UNL     1     -10.278   9.633  19.052  0.00  0.00    +0.062 HD
ATOM     49  H   UNL     1      -9.557  12.323  20.422  0.00  0.00    +0.062 HD
ATOM     50  H   UNL     1     -11.834  10.258  20.621  0.00  0.00    +0.069 HD
ATOM     51  H   UNL     1     -13.112  14.094  22.434  0.00  0.00    +0.074 HD
ATOM     52  H   UNL     1     -12.637  15.045  24.685  0.00  0.00    +0.038 HD
ATOM     53  H   UNL     1     -10.147  13.215  24.799  0.00  0.00    +0.057 HD
ATOM     54  H   UNL     1     -10.766  16.027  25.863  0.00  0.00    +0.059 HD
ATOM     55  H   UNL     1      -8.634  14.108  26.740  0.00  0.00    +0.064 HD
ATOM     56  H   UNL     1      -6.779  15.655  25.862  0.00  0.00    +0.032 HD
ATOM     57  H   UNL     1      -7.968  16.469  24.871  0.00  0.00    +0.032 HD
ATOM     58  H   UNL     1      -8.413  14.256  23.677  0.00  0.00    +0.060 HD
ENDROOT
BRANCH   1  59
ATOM     59  C   UNL     1      -6.247  13.720  22.159  0.00  0.00    -0.057 C 
ATOM     60  H   UNL     1      -7.192  13.515  21.644  0.00  0.00    +0.024 HD
ATOM     61  H   UNL     1      -5.512  13.999  21.405  0.00  0.00    +0.024 HD
ATOM     62  H   UNL     1      -5.906  12.789  22.622  0.00  0.00    +0.024 HD
ENDBRANCH   1  59
BRANCH  26  63
ATOM     63  C   UNL     1     -12.885  12.951  24.860  0.00  0.00    -0.056 C 
ATOM     64  H   UNL     1     -13.728  13.276  25.483  0.00  0.00    +0.024 HD
ATOM     65  H   UNL     1     -13.298  12.368  24.032  0.00  0.00    +0.024 HD
ATOM     66  H   UNL     1     -12.261  12.289  25.470  0.00  0.00    +0.024 HD
ENDBRANCH  26  63
BRANCH  18  67
ATOM     67  C   UNL     1      -8.406   9.553  17.306  0.00  0.00    -0.043 C 
ATOM     68  H   UNL     1      -7.808   9.954  16.479  0.00  0.00    +0.027 HD
ATOM     69  H   UNL     1      -7.926   8.649  17.694  0.00  0.00    +0.027 HD
ATOM     70  H   UNL     1      -9.369   9.254  16.879  0.00  0.00    +0.027 HD
ENDBRANCH  18  67
BRANCH   7  71
ATOM     71  C   UNL     1      -6.575  15.964  19.001  0.00  0.00    -0.057 C 
ATOM     72  H   UNL     1      -7.286  16.773  18.811  0.00  0.00    +0.023 HD
ATOM     73  H   UNL     1      -6.616  15.300  18.131  0.00  0.00    +0.023 HD
ATOM     74  H   UNL     1      -6.955  15.420  19.870  0.00  0.00    +0.023 HD
ENDBRANCH   7  71
BRANCH  31  75
ATOM     75  O   UNL     1      -7.116  13.211  24.859  0.00  0.00    -0.391 OA
ATOM     76  H   UNL     1      -7.372  12.482  24.266  0.00  0.00    +0.210 HD
ENDBRANCH  31  75
BRANCH  25  77
ATOM     77  C   UNL     1     -11.519  15.524  22.157  0.00  0.00    +0.020 C 
ATOM     78  H   UNL     1     -11.227  16.180  22.983  0.00  0.00    +0.036 HD
BRANCH  77  79
ATOM     79  C   UNL     1     -10.193  15.269  21.405  0.00  0.00    -0.057 C 
ATOM     80  H   UNL     1      -9.473  16.075  21.577  0.00  0.00    +0.023 HD
ATOM     81  H   UNL     1     -10.364  15.187  20.327  0.00  0.00    +0.023 HD
ATOM     82  H   UNL     1      -9.737  14.324  21.717  0.00  0.00    +0.023 HD
ENDBRANCH  77  79
BRANCH  77  83
ATOM     83  C   UNL     1     -12.498  16.283  21.191  0.00  0.00    +0.067 C 
ATOM     84  H   UNL     1     -13.530  16.128  21.535  0.00  0.00    +0.060 HD
BRANCH  83  85
ATOM     85  C   UNL     1     -12.463  15.766  19.724  0.00  0.00    -0.017 C 
ATOM     86  H   UNL     1     -11.596  15.108  19.620  0.00  0.00    +0.032 HD
BRANCH  85  87
ATOM     87  C   UNL     1     -13.699  14.929  19.380  0.00  0.00    -0.060 C 
ATOM     88  H   UNL     1     -13.527  14.323  18.486  0.00  0.00    +0.023 HD
ATOM     89  H   UNL     1     -13.946  14.231  20.186  0.00  0.00    +0.023 HD
ATOM     90  H   UNL     1     -14.579  15.558  19.212  0.00  0.00    +0.023 HD
ENDBRANCH  85  87
BRANCH  85  91
ATOM     91  C   UNL     1     -12.225  16.880  18.665  0.00  0.00    -0.041 C 
ATOM     92  H   UNL     1     -12.174  17.851  19.173  0.00  0.00    +0.027 HD
ATOM     93  H   UNL     1     -13.124  16.933  18.034  0.00  0.00    +0.027 HD
BRANCH  91  94
ATOM     94  C   UNL     1     -11.025  16.720  17.730  0.00  0.00    +0.007 C 
ATOM     95  H   UNL     1     -10.142  16.460  18.328  0.00  0.00    +0.034 HD
ATOM     96  H   UNL     1     -10.800  17.667  17.234  0.00  0.00    +0.034 HD
BRANCH  94  97
ATOM     97  C   UNL     1     -11.161  15.627  16.684  0.00  0.00    +0.139 C 
ATOM     98  O   UNL     1     -11.812  15.795  15.651  0.00  0.00    -0.297 OA
BRANCH  97  99
ATOM     99  C   UNL     1     -10.486  14.298  16.998  0.00  0.00    +0.041 C 
ATOM    100  H   UNL     1     -10.463  14.199  18.090  0.00  0.00    +0.040 HD
BRANCH  99 101
ATOM    101  C   UNL     1      -9.032  14.336  16.538  0.00  0.00    -0.053 C 
ATOM    102  H   UNL     1      -8.446  14.996  17.186  0.00  0.00    +0.024 HD
ATOM    103  H   UNL     1      -8.932  14.724  15.519  0.00  0.00    +0.024 HD
ATOM    104  H   UNL     1      -8.580  13.339  16.577  0.00  0.00    +0.024 HD
ENDBRANCH  99 101
BRANCH  99 105
ATOM    105  C   UNL     1     -11.315  13.124  16.433  0.00  0.00    +0.071 C 
ATOM    106  H   UNL     1     -12.091  13.519  15.760  0.00  0.00    +0.061 HD
BRANCH 105 107
ATOM    107  C   UNL     1     -10.484  12.078  15.658  0.00  0.00    -0.006 C 
ATOM    108  H   UNL     1     -10.645  11.078  16.077  0.00  0.00    +0.033 HD
ATOM    109  H   UNL     1      -9.414  12.297  15.736  0.00  0.00    +0.033 HD
BRANCH 107 110
ATOM    110  C   UNL     1     -10.895  12.023  14.204  0.00  0.00    -0.067 C 
ATOM    111  C   UNL     1     -11.219  13.113  13.494  0.00  0.00    -0.005 C 
ATOM    112  H   UNL     1     -10.915  11.023  13.782  0.00  0.00    +0.059 HD
ATOM    113  H   UNL     1     -11.180  14.084  13.988  0.00  0.00    +0.078 HD
BRANCH 111 114
ATOM    114  N   UNL     1     -11.619  13.163  12.167  0.00  0.00    -0.284 N 
ATOM    115  C   UNL     1     -10.821  13.562  11.102  0.00  0.00    +0.206 C 
ATOM    116  O   UNL     1     -11.154  13.586   9.922  0.00  0.00    -0.279 OA
ATOM    117  H   UNL     1      -9.806  13.866  11.395  0.00  0.00    +0.126 HD
BRANCH 114 118
ATOM    118  C   UNL     1     -12.984  12.744  11.872  0.00  0.00    +0.007 C 
ATOM    119  H   UNL     1     -13.516  13.577  11.399  0.00  0.00    +0.043 HD
ATOM    120  H   UNL     1     -13.531  12.453  12.774  0.00  0.00    +0.043 HD
ATOM    121  H   UNL     1     -12.962  11.889  11.191  0.00  0.00    +0.043 HD
ENDBRANCH 114 118
ENDBRANCH 111 114
ENDBRANCH 107 110
ENDBRANCH 105 107
BRANCH 105 122
ATOM    122  O   UNL     1     -11.946  12.434  17.532  0.00  0.00    -0.379 OA
BRANCH 122 123
ATOM    123  C   UNL     1     -13.212  11.879  17.202  0.00  0.00    +0.037 C 
ATOM    124  H   UNL     1     -13.490  12.129  16.178  0.00  0.00    +0.052 HD
ATOM    125  H   UNL     1     -13.957  12.300  17.879  0.00  0.00    +0.052 HD
ATOM    126  H   UNL     1     -13.202  10.794  17.335  0.00  0.00    +0.052 HD
ENDBRANCH 122 123
ENDBRANCH 105 122
ENDBRANCH  99 105
ENDBRANCH  97  99
ENDBRANCH  94  97
ENDBRANCH  91  94
ENDBRANCH  85  91
ENDBRANCH  83  85
BRANCH  83 127
ATOM    127  O   UNL     1     -12.240  17.693  21.159  0.00  0.00    -0.379 OA
BRANCH 127 128
ATOM    128  C   UNL     1     -12.350  18.332  22.428  0.00  0.00    +0.037 C 
ATOM    129  H   UNL     1     -13.114  19.114  22.416  0.00  0.00    +0.052 HD
ATOM    130  H   UNL     1     -11.382  18.793  22.655  0.00  0.00    +0.052 HD
ATOM    131  H   UNL     1     -12.569  17.607  23.212  0.00  0.00    +0.052 HD
ENDBRANCH 127 128
ENDBRANCH  83 127
ENDBRANCH  77  83
ENDBRANCH  25  77
BRANCH   9 132
ATOM    132  O   UNL     1      -3.482  14.160  19.946  0.00  0.00    -0.384 OA
ATOM    133  H   UNL     1      -2.947  14.890  20.305  0.00  0.00    +0.210 HD
ENDBRANCH   9 132
BRANCH  29 134
ATOM    134  O   UNL     1      -8.862  16.073  27.367  0.00  0.00    -0.376 OA
BRANCH 134 135
ATOM    135  C   UNL     1      -8.197  17.283  27.036  0.00  0.00    +0.037 C 
ATOM    136  H   UNL     1      -8.865  18.138  27.187  0.00  0.00    +0.052 HD
ATOM    137  H   UNL     1      -7.917  17.243  25.978  0.00  0.00    +0.052 HD
ATOM    138  H   UNL     1      -7.287  17.410  27.630  0.00  0.00    +0.052 HD
ENDBRANCH 134 135
ENDBRANCH  29 134
BRANCH   6 139
ATOM    139  O   UNL     1      -6.304  18.635  18.652  0.00  0.00    -0.379 OA
BRANCH 139 140
ATOM    140  C   UNL     1      -6.078  19.241  17.383  0.00  0.00    +0.037 C 
ATOM    141  H   UNL     1      -5.020  19.170  17.107  0.00  0.00    +0.052 HD
ATOM    142  H   UNL     1      -6.347  20.299  17.461  0.00  0.00    +0.052 HD
ATOM    143  H   UNL     1      -6.704  18.781  16.614  0.00  0.00    +0.052 HD
ENDBRANCH 139 140
ENDBRANCH   6 139
BRANCH  16 144
ATOM    144  O   UNL     1      -5.851  10.857  16.817  0.00  0.00    -0.379 OA
BRANCH 144 145
ATOM    145  C   UNL     1      -4.821   9.911  16.575  0.00  0.00    +0.037 C 
ATOM    146  H   UNL     1      -4.977   9.006  17.166  0.00  0.00    +0.052 HD
ATOM    147  H   UNL     1      -4.751   9.665  15.512  0.00  0.00    +0.052 HD
ATOM    148  H   UNL     1      -3.873  10.357  16.890  0.00  0.00    +0.052 HD
ENDBRANCH 144 145
ENDBRANCH  16 144
BRANCH   4 149
ATOM    149  O   UNL     1      -6.038  19.506  22.605  0.00  0.00    -0.376 OA
BRANCH 149 150
ATOM    150  C   UNL     1      -4.820  19.508  23.340  0.00  0.00    +0.037 C 
ATOM    151  H   UNL     1      -4.023  19.875  22.686  0.00  0.00    +0.052 HD
ATOM    152  H   UNL     1      -4.894  20.179  24.203  0.00  0.00    +0.052 HD
ATOM    153  H   UNL     1      -4.560  18.496  23.667  0.00  0.00    +0.052 HD
ENDBRANCH 149 150
ENDBRANCH   4 149
TORSDOF 33
ENDMDL
MODEL 9
REMARK VINA RESULT:      -4.8      2.230      8.351
REMARK  Name = Sphinxolide B_conf3
REMARK  33 active torsions:
REMARK  status: ('A' for Active; 'I' for Inactive)
REMARK    1  A    between atoms: C_1  and  C_2
REMARK    2  A    between atoms: C_5  and  O_67
REMARK    3  A    between atoms: C_7  and  O_65
REMARK    4  A    between atoms: C_8  and  C_64
REMARK    5  A    between atoms: C_10  and  O_63
REMARK    6  A    between atoms: C_17  and  O_61
REMARK    7  A    between atoms: C_19  and  C_60
REMARK    8  A    between atoms: C_26  and  C_37
REMARK    9  A    between atoms: C_27  and  C_36
REMARK   10  A    between atoms: C_30  and  O_34
REMARK   11  A    between atoms: C_32  and  O_33
REMARK   12  A    between atoms: O_34  and  C_35
REMARK   13  A    between atoms: C_37  and  C_38
REMARK   14  A    between atoms: C_37  and  C_39
REMARK   15  A    between atoms: C_39  and  C_40
REMARK   16  A    between atoms: C_39  and  O_58
REMARK   17  A    between atoms: C_40  and  C_41
REMARK   18  A    between atoms: C_40  and  C_42
REMARK   19  A    between atoms: C_42  and  C_43
REMARK   20  A    between atoms: C_43  and  C_44
REMARK   21  A    between atoms: C_44  and  C_46
REMARK   22  A    between atoms: C_46  and  C_47
REMARK   23  A    between atoms: C_46  and  C_48
REMARK   24  A    between atoms: C_48  and  C_49
REMARK   25  A    between atoms: C_48  and  O_56
REMARK   26  A    between atoms: C_49  and  C_50
REMARK   27  A    between atoms: C_51  and  N_52
REMARK   28  A    between atoms: N_52  and  C_53
REMARK   29  A    between atoms: O_56  and  C_57
REMARK   30  A    between atoms: O_58  and  C_59
REMARK   31  A    between atoms: O_61  and  C_62
REMARK   32  A    between atoms: O_65  and  C_66
REMARK   33  A    between atoms: O_67  and  C_68
REMARK                            x       y       z     vdW  Elec       q    Type
REMARK                         _______ _______ _______ _____ _____    ______ ____
ROOT
ATOM      1  C   UNL     1     -11.320  11.456  21.867  0.00  0.00    +0.000 C 
ATOM      2  C   UNL     1     -10.045  11.019  21.181  0.00  0.00    -0.080 C 
ATOM      3  C   UNL     1      -9.895   9.818  20.598  0.00  0.00    -0.059 C 
ATOM      4  C   UNL     1      -8.678   9.370  19.827  0.00  0.00    +0.079 C 
ATOM      5  C   UNL     1      -9.041   8.943  18.388  0.00  0.00    +0.004 C 
ATOM      6  C   UNL     1      -9.059  10.051  17.309  0.00  0.00    +0.067 C 
ATOM      7  C   UNL     1     -10.120  11.165  17.574  0.00  0.00    +0.022 C 
ATOM      8  C   UNL     1     -11.078  11.340  16.349  0.00  0.00    +0.138 C 
ATOM      9  C   UNL     1     -12.419  12.056  16.623  0.00  0.00    +0.114 C 
ATOM     10  C   UNL     1     -12.220  13.547  16.698  0.00  0.00    -0.029 C 
ATOM     11  C   UNL     1     -11.287  14.081  15.883  0.00  0.00    +0.024 C 
ATOM     12  C   UNL     1     -10.443  13.262  14.988  0.00  0.00    +0.332 C 
ATOM     13  O   UNL     1      -9.790  13.781  14.092  0.00  0.00    -0.246 OA
ATOM     14  O   UNL     1     -10.414  11.922  15.209  0.00  0.00    -0.455 OA
ATOM     15  C   UNL     1     -13.133  14.323  17.631  0.00  0.00    -0.002 C 
ATOM     16  C   UNL     1     -12.977  15.853  17.820  0.00  0.00    +0.066 C 
ATOM     17  C   UNL     1     -11.675  16.249  18.579  0.00  0.00    -0.005 C 
ATOM     18  C   UNL     1     -11.705  17.651  19.190  0.00  0.00    -0.070 C 
ATOM     19  C   UNL     1     -11.225  18.011  20.398  0.00  0.00    -0.062 C 
ATOM     20  C   UNL     1     -10.497  17.229  21.380  0.00  0.00    -0.055 C 
ATOM     21  C   UNL     1     -10.009  17.830  22.478  0.00  0.00    +0.023 C 
ATOM     22  C   UNL     1      -9.077  17.275  23.476  0.00  0.00    +0.332 C 
ATOM     23  O   UNL     1      -8.456  18.021  24.220  0.00  0.00    -0.246 OA
ATOM     24  O   UNL     1      -8.956  15.927  23.415  0.00  0.00    -0.457 OA
ATOM     25  C   UNL     1      -7.786  15.372  24.087  0.00  0.00    +0.114 C 
ATOM     26  C   UNL     1      -8.152  14.779  25.483  0.00  0.00    +0.012 C 
ATOM     27  C   UNL     1      -9.257  13.748  25.436  0.00  0.00    -0.079 C 
ATOM     28  C   UNL     1      -9.096  12.440  25.697  0.00  0.00    -0.059 C 
ATOM     29  C   UNL     1     -10.192  11.407  25.649  0.00  0.00    +0.079 C 
ATOM     30  C   UNL     1     -10.442  10.891  24.221  0.00  0.00    +0.004 C 
ATOM     31  C   UNL     1     -11.085  11.943  23.313  0.00  0.00    +0.064 C 
ATOM     32  H   UNL     1     -12.037  10.622  21.888  0.00  0.00    +0.037 HD
ATOM     33  H   UNL     1      -9.236  11.745  21.140  0.00  0.00    +0.057 HD
ATOM     34  H   UNL     1     -10.705   9.092  20.655  0.00  0.00    +0.059 HD
ATOM     35  H   UNL     1      -7.892  10.135  19.807  0.00  0.00    +0.064 HD
ATOM     36  H   UNL     1     -10.005   8.414  18.383  0.00  0.00    +0.032 HD
ATOM     37  H   UNL     1      -8.299   8.197  18.070  0.00  0.00    +0.032 HD
ATOM     38  H   UNL     1      -9.296   9.533  16.368  0.00  0.00    +0.060 HD
ATOM     39  H   UNL     1     -10.772  10.804  18.376  0.00  0.00    +0.036 HD
ATOM     40  H   UNL     1     -11.360  10.324  16.036  0.00  0.00    +0.077 HD
ATOM     41  H   UNL     1     -13.107  11.873  15.786  0.00  0.00    +0.068 HD
ATOM     42  H   UNL     1     -11.106  15.144  15.802  0.00  0.00    +0.069 HD
ATOM     43  H   UNL     1     -14.161  14.132  17.293  0.00  0.00    +0.034 HD
ATOM     44  H   UNL     1     -13.060  13.882  18.631  0.00  0.00    +0.034 HD
ATOM     45  H   UNL     1     -13.827  16.193  18.429  0.00  0.00    +0.060 HD
ATOM     46  H   UNL     1     -11.493  15.512  19.369  0.00  0.00    +0.034 HD
ATOM     47  H   UNL     1     -10.822  16.216  17.892  0.00  0.00    +0.034 HD
ATOM     48  H   UNL     1     -11.339  19.063  20.671  0.00  0.00    +0.062 HD
ATOM     49  H   UNL     1     -10.277  16.189  21.170  0.00  0.00    +0.062 HD
ATOM     50  H   UNL     1     -10.197  18.886  22.655  0.00  0.00    +0.069 HD
ATOM     51  H   UNL     1      -7.074  16.185  24.262  0.00  0.00    +0.074 HD
ATOM     52  H   UNL     1      -7.249  14.323  25.905  0.00  0.00    +0.038 HD
ATOM     53  H   UNL     1     -10.248  14.121  25.173  0.00  0.00    +0.057 HD
ATOM     54  H   UNL     1      -8.116  12.065  25.976  0.00  0.00    +0.059 HD
ATOM     55  H   UNL     1     -11.103  11.825  26.091  0.00  0.00    +0.064 HD
ATOM     56  H   UNL     1     -11.100  10.014  24.268  0.00  0.00    +0.032 HD
ATOM     57  H   UNL     1      -9.498  10.532  23.797  0.00  0.00    +0.032 HD
ATOM     58  H   UNL     1     -10.457  12.837  23.261  0.00  0.00    +0.060 HD
ENDROOT
BRANCH   1  59
ATOM     59  C   UNL     1     -11.965  12.576  21.039  0.00  0.00    -0.057 C 
ATOM     60  H   UNL     1     -12.971  12.815  21.403  0.00  0.00    +0.024 HD
ATOM     61  H   UNL     1     -11.367  13.485  21.090  0.00  0.00    +0.024 HD
ATOM     62  H   UNL     1     -12.047  12.295  19.984  0.00  0.00    +0.024 HD
ENDBRANCH   1  59
BRANCH  26  63
ATOM     63  C   UNL     1      -8.572  15.873  26.476  0.00  0.00    -0.056 C 
ATOM     64  H   UNL     1      -8.355  16.870  26.074  0.00  0.00    +0.024 HD
ATOM     65  H   UNL     1      -9.647  15.825  26.670  0.00  0.00    +0.024 HD
ATOM     66  H   UNL     1      -8.046  15.783  27.433  0.00  0.00    +0.024 HD
ENDBRANCH  26  63
BRANCH  18  67
ATOM     67  C   UNL     1     -12.279  18.743  18.310  0.00  0.00    -0.043 C 
ATOM     68  H   UNL     1     -13.309  18.970  18.609  0.00  0.00    +0.027 HD
ATOM     69  H   UNL     1     -11.673  19.652  18.378  0.00  0.00    +0.027 HD
ATOM     70  H   UNL     1     -12.317  18.454  17.254  0.00  0.00    +0.027 HD
ENDBRANCH  18  67
BRANCH   7  71
ATOM     71  C   UNL     1      -9.469  12.468  18.060  0.00  0.00    -0.057 C 
ATOM     72  H   UNL     1      -8.751  12.283  18.864  0.00  0.00    +0.023 HD
ATOM     73  H   UNL     1      -8.922  12.977  17.261  0.00  0.00    +0.023 HD
ATOM     74  H   UNL     1     -10.212  13.160  18.467  0.00  0.00    +0.023 HD
ENDBRANCH   7  71
BRANCH  31  75
ATOM     75  O   UNL     1     -12.336  12.341  23.887  0.00  0.00    -0.391 OA
ATOM     76  H   UNL     1     -12.232  13.244  24.237  0.00  0.00    +0.210 HD
ENDBRANCH  31  75
BRANCH  25  77
ATOM     77  C   UNL     1      -7.109  14.364  23.104  0.00  0.00    +0.020 C 
ATOM     78  H   UNL     1      -6.840  13.469  23.672  0.00  0.00    +0.036 HD
BRANCH  77  79
ATOM     79  C   UNL     1      -8.124  13.844  22.061  0.00  0.00    -0.057 C 
ATOM     80  H   UNL     1      -8.092  14.436  21.140  0.00  0.00    +0.023 HD
ATOM     81  H   UNL     1      -9.145  13.880  22.455  0.00  0.00    +0.023 HD
ATOM     82  H   UNL     1      -7.929  12.798  21.806  0.00  0.00    +0.023 HD
ENDBRANCH  77  79
BRANCH  77  83
ATOM     83  C   UNL     1      -5.850  14.910  22.339  0.00  0.00    +0.067 C 
ATOM     84  H   UNL     1      -4.957  14.745  22.958  0.00  0.00    +0.060 HD
BRANCH  83  85
ATOM     85  C   UNL     1      -5.893  16.442  22.066  0.00  0.00    -0.017 C 
ATOM     86  H   UNL     1      -6.862  16.817  22.406  0.00  0.00    +0.032 HD
BRANCH  85  87
ATOM     87  C   UNL     1      -4.821  17.197  22.858  0.00  0.00    -0.060 C 
ATOM     88  H   UNL     1      -5.261  18.022  23.425  0.00  0.00    +0.023 HD
ATOM     89  H   UNL     1      -4.330  16.545  23.587  0.00  0.00    +0.023 HD
ATOM     90  H   UNL     1      -4.043  17.599  22.202  0.00  0.00    +0.023 HD
ENDBRANCH  85  87
BRANCH  85  91
ATOM     91  C   UNL     1      -5.848  16.817  20.558  0.00  0.00    -0.041 C 
ATOM     92  H   UNL     1      -5.348  16.014  20.003  0.00  0.00    +0.027 HD
ATOM     93  H   UNL     1      -5.190  17.692  20.455  0.00  0.00    +0.027 HD
BRANCH  91  94
ATOM     94  C   UNL     1      -7.174  17.168  19.878  0.00  0.00    +0.007 C 
ATOM     95  H   UNL     1      -7.726  17.867  20.518  0.00  0.00    +0.034 HD
ATOM     96  H   UNL     1      -7.796  16.276  19.775  0.00  0.00    +0.034 HD
BRANCH  94  97
ATOM     97  C   UNL     1      -7.046  17.847  18.525  0.00  0.00    +0.139 C 
ATOM     98  O   UNL     1      -7.008  19.074  18.416  0.00  0.00    -0.297 OA
BRANCH  97  99
ATOM     99  C   UNL     1      -7.010  16.933  17.307  0.00  0.00    +0.041 C 
ATOM    100  H   UNL     1      -7.566  17.440  16.508  0.00  0.00    +0.040 HD
BRANCH  99 101
ATOM    101  C   UNL     1      -7.766  15.642  17.607  0.00  0.00    -0.053 C 
ATOM    102  H   UNL     1      -7.276  14.794  17.117  0.00  0.00    +0.024 HD
ATOM    103  H   UNL     1      -8.795  15.671  17.235  0.00  0.00    +0.024 HD
ATOM    104  H   UNL     1      -7.790  15.441  18.683  0.00  0.00    +0.024 HD
ENDBRANCH  99 101
BRANCH  99 105
ATOM    105  C   UNL     1      -5.557  16.737  16.822  0.00  0.00    +0.071 C 
ATOM    106  H   UNL     1      -4.963  17.623  17.089  0.00  0.00    +0.061 HD
BRANCH 105 107
ATOM    107  C   UNL     1      -4.859  15.488  17.405  0.00  0.00    -0.006 C 
ATOM    108  H   UNL     1      -4.777  14.707  16.640  0.00  0.00    +0.033 HD
ATOM    109  H   UNL     1      -5.438  15.073  18.237  0.00  0.00    +0.033 HD
BRANCH 107 110
ATOM    110  C   UNL     1      -3.455  15.812  17.863  0.00  0.00    -0.067 C 
ATOM    111  C   UNL     1      -2.588  14.879  18.278  0.00  0.00    -0.005 C 
ATOM    112  H   UNL     1      -3.208  16.870  17.835  0.00  0.00    +0.059 HD
ATOM    113  H   UNL     1      -2.910  13.837  18.282  0.00  0.00    +0.078 HD
BRANCH 111 114
ATOM    114  N   UNL     1      -1.291  15.078  18.726  0.00  0.00    -0.284 N 
ATOM    115  C   UNL     1      -0.145  14.958  17.950  0.00  0.00    +0.206 C 
ATOM    116  O   UNL     1       1.004  15.156  18.327  0.00  0.00    -0.279 OA
ATOM    117  H   UNL     1      -0.341  14.665  16.909  0.00  0.00    +0.126 HD
BRANCH 114 118
ATOM    118  C   UNL     1      -1.126  15.461  20.124  0.00  0.00    +0.007 C 
ATOM    119  H   UNL     1      -0.203  16.042  20.226  0.00  0.00    +0.043 HD
ATOM    120  H   UNL     1      -1.063  14.592  20.786  0.00  0.00    +0.043 HD
ATOM    121  H   UNL     1      -1.979  16.071  20.436  0.00  0.00    +0.043 HD
ENDBRANCH 114 118
ENDBRANCH 111 114
ENDBRANCH 107 110
ENDBRANCH 105 107
BRANCH 105 122
ATOM    122  O   UNL     1      -5.566  16.585  15.386  0.00  0.00    -0.379 OA
BRANCH 122 123
ATOM    123  C   UNL     1      -5.194  15.284  14.952  0.00  0.00    +0.037 C 
ATOM    124  H   UNL     1      -5.462  15.131  13.906  0.00  0.00    +0.052 HD
ATOM    125  H   UNL     1      -5.731  14.554  15.560  0.00  0.00    +0.052 HD
ATOM    126  H   UNL     1      -4.122  15.125  15.093  0.00  0.00    +0.052 HD
ENDBRANCH 122 123
ENDBRANCH 105 122
ENDBRANCH  99 105
ENDBRANCH  97  99
ENDBRANCH  94  97
ENDBRANCH  91  94
ENDBRANCH  85  91
ENDBRANCH  83  85
BRANCH  83 127
ATOM    127  O   UNL     1      -5.654  14.252  21.081  0.00  0.00    -0.379 OA
BRANCH 127 128
ATOM    128  C   UNL     1      -4.485  13.439  21.027  0.00  0.00    +0.037 C 
ATOM    129  H   UNL     1      -3.887  13.658  20.139  0.00  0.00    +0.052 HD
ATOM    130  H   UNL     1      -4.808  12.392  20.982  0.00  0.00    +0.052 HD
ATOM    131  H   UNL     1      -3.881  13.565  21.926  0.00  0.00    +0.052 HD
ENDBRANCH 127 128
ENDBRANCH  83 127
ENDBRANCH  77  83
ENDBRANCH  25  77
BRANCH   9 132
ATOM    132  O   UNL     1     -13.050  11.561  17.794  0.00  0.00    -0.384 OA
ATOM    133  H   UNL     1     -12.354  11.189  18.366  0.00  0.00    +0.210 HD
ENDBRANCH   9 132
BRANCH  29 134
ATOM    134  O   UNL     1      -9.727  10.316  26.459  0.00  0.00    -0.376 OA
BRANCH 134 135
ATOM    135  C   UNL     1      -9.240  10.731  27.727  0.00  0.00    +0.037 C 
ATOM    136  H   UNL     1      -8.480  10.031  28.090  0.00  0.00    +0.052 HD
ATOM    137  H   UNL     1     -10.077  10.733  28.433  0.00  0.00    +0.052 HD
ATOM    138  H   UNL     1      -8.825  11.742  27.679  0.00  0.00    +0.052 HD
ENDBRANCH 134 135
ENDBRANCH  29 134
BRANCH   6 139
ATOM    139  O   UNL     1      -7.723  10.568  17.241  0.00  0.00    -0.379 OA
BRANCH 139 140
ATOM    140  C   UNL     1      -6.793   9.649  16.675  0.00  0.00    +0.037 C 
ATOM    141  H   UNL     1      -6.204  10.134  15.889  0.00  0.00    +0.052 HD
ATOM    142  H   UNL     1      -7.361   8.827  16.228  0.00  0.00    +0.052 HD
ATOM    143  H   UNL     1      -6.135   9.236  17.445  0.00  0.00    +0.052 HD
ENDBRANCH 139 140
ENDBRANCH   6 139
BRANCH  16 144
ATOM    144  O   UNL     1     -13.011  16.538  16.557  0.00  0.00    -0.379 OA
BRANCH 144 145
ATOM    145  C   UNL     1     -14.302  16.602  15.969  0.00  0.00    +0.037 C 
ATOM    146  H   UNL     1     -14.609  15.622  15.598  0.00  0.00    +0.052 HD
ATOM    147  H   UNL     1     -15.040  16.992  16.675  0.00  0.00    +0.052 HD
ATOM    148  H   UNL     1     -14.248  17.281  15.113  0.00  0.00    +0.052 HD
ENDBRANCH 144 145
ENDBRANCH  16 144
BRANCH   4 149
ATOM    149  O   UNL     1      -8.197   8.191  20.493  0.00  0.00    -0.376 OA
BRANCH 149 150
ATOM    150  C   UNL     1      -7.087   7.603  19.827  0.00  0.00    +0.037 C 
ATOM    151  H   UNL     1      -6.174   7.889  20.361  0.00  0.00    +0.052 HD
ATOM    152  H   UNL     1      -7.165   6.511  19.841  0.00  0.00    +0.052 HD
ATOM    153  H   UNL     1      -7.011   7.967  18.798  0.00  0.00    +0.052 HD
ENDBRANCH 149 150
ENDBRANCH   4 149
TORSDOF 33
ENDMDL
MODEL 10
REMARK VINA RESULT:      -4.8      2.666      5.104
REMARK  Name = Sphinxolide B_conf3
REMARK  33 active torsions:
REMARK  status: ('A' for Active; 'I' for Inactive)
REMARK    1  A    between atoms: C_1  and  C_2
REMARK    2  A    between atoms: C_5  and  O_67
REMARK    3  A    between atoms: C_7  and  O_65
REMARK    4  A    between atoms: C_8  and  C_64
REMARK    5  A    between atoms: C_10  and  O_63
REMARK    6  A    between atoms: C_17  and  O_61
REMARK    7  A    between atoms: C_19  and  C_60
REMARK    8  A    between atoms: C_26  and  C_37
REMARK    9  A    between atoms: C_27  and  C_36
REMARK   10  A    between atoms: C_30  and  O_34
REMARK   11  A    between atoms: C_32  and  O_33
REMARK   12  A    between atoms: O_34  and  C_35
REMARK   13  A    between atoms: C_37  and  C_38
REMARK   14  A    between atoms: C_37  and  C_39
REMARK   15  A    between atoms: C_39  and  C_40
REMARK   16  A    between atoms: C_39  and  O_58
REMARK   17  A    between atoms: C_40  and  C_41
REMARK   18  A    between atoms: C_40  and  C_42
REMARK   19  A    between atoms: C_42  and  C_43
REMARK   20  A    between atoms: C_43  and  C_44
REMARK   21  A    between atoms: C_44  and  C_46
REMARK   22  A    between atoms: C_46  and  C_47
REMARK   23  A    between atoms: C_46  and  C_48
REMARK   24  A    between atoms: C_48  and  C_49
REMARK   25  A    between atoms: C_48  and  O_56
REMARK   26  A    between atoms: C_49  and  C_50
REMARK   27  A    between atoms: C_51  and  N_52
REMARK   28  A    between atoms: N_52  and  C_53
REMARK   29  A    between atoms: O_56  and  C_57
REMARK   30  A    between atoms: O_58  and  C_59
REMARK   31  A    between atoms: O_61  and  C_62
REMARK   32  A    between atoms: O_65  and  C_66
REMARK   33  A    between atoms: O_67  and  C_68
REMARK                            x       y       z     vdW  Elec       q    Type
REMARK                         _______ _______ _______ _____ _____    ______ ____
ROOT
ATOM      1  C   UNL     1     -13.136   9.281  20.299  0.00  0.00    +0.000 C 
ATOM      2  C   UNL     1     -12.009   9.630  21.244  0.00  0.00    -0.080 C 
ATOM      3  C   UNL     1     -12.175  10.380  22.347  0.00  0.00    -0.059 C 
ATOM      4  C   UNL     1     -11.104  10.682  23.365  0.00  0.00    +0.079 C 
ATOM      5  C   UNL     1     -11.524  10.236  24.782  0.00  0.00    +0.004 C 
ATOM      6  C   UNL     1     -11.202   8.777  25.185  0.00  0.00    +0.067 C 
ATOM      7  C   UNL     1     -11.924   7.711  24.301  0.00  0.00    +0.022 C 
ATOM      8  C   UNL     1     -12.757   6.718  25.178  0.00  0.00    +0.138 C 
ATOM      9  C   UNL     1     -13.858   5.917  24.450  0.00  0.00    +0.114 C 
ATOM     10  C   UNL     1     -13.260   4.764  23.687  0.00  0.00    -0.029 C 
ATOM     11  C   UNL     1     -12.190   4.155  24.240  0.00  0.00    +0.024 C 
ATOM     12  C   UNL     1     -11.575   4.610  25.504  0.00  0.00    +0.332 C 
ATOM     13  O   UNL     1     -10.777   3.901  26.103  0.00  0.00    -0.246 OA
ATOM     14  O   UNL     1     -11.922   5.840  25.961  0.00  0.00    -0.455 OA
ATOM     15  C   UNL     1     -13.955   4.346  22.403  0.00  0.00    -0.002 C 
ATOM     16  C   UNL     1     -13.391   3.205  21.518  0.00  0.00    +0.066 C 
ATOM     17  C   UNL     1     -12.055   3.581  20.809  0.00  0.00    -0.005 C 
ATOM     18  C   UNL     1     -11.719   2.708  19.599  0.00  0.00    -0.070 C 
ATOM     19  C   UNL     1     -11.198   3.126  18.426  0.00  0.00    -0.062 C 
ATOM     20  C   UNL     1     -10.745   4.446  18.029  0.00  0.00    -0.055 C 
ATOM     21  C   UNL     1     -10.146   4.611  16.837  0.00  0.00    +0.023 C 
ATOM     22  C   UNL     1      -9.436   5.803  16.338  0.00  0.00    +0.332 C 
ATOM     23  O   UNL     1      -8.657   5.706  15.399  0.00  0.00    -0.246 OA
ATOM     24  O   UNL     1      -9.687   6.925  17.054  0.00  0.00    -0.457 OA
ATOM     25  C   UNL     1      -8.737   8.015  16.865  0.00  0.00    +0.114 C 
ATOM     26  C   UNL     1      -9.296   9.104  15.897  0.00  0.00    +0.012 C 
ATOM     27  C   UNL     1     -10.640   9.658  16.315  0.00  0.00    -0.079 C 
ATOM     28  C   UNL     1     -10.853  10.916  16.736  0.00  0.00    -0.059 C 
ATOM     29  C   UNL     1     -12.188  11.473  17.157  0.00  0.00    +0.079 C 
ATOM     30  C   UNL     1     -12.524  11.134  18.620  0.00  0.00    +0.004 C 
ATOM     31  C   UNL     1     -12.823   9.648  18.833  0.00  0.00    +0.064 C 
ATOM     32  H   UNL     1     -14.055   9.802  20.605  0.00  0.00    +0.037 HD
ATOM     33  H   UNL     1     -11.030   9.211  21.018  0.00  0.00    +0.057 HD
ATOM     34  H   UNL     1     -13.155  10.807  22.559  0.00  0.00    +0.059 HD
ATOM     35  H   UNL     1     -10.138  10.235  23.098  0.00  0.00    +0.064 HD
ATOM     36  H   UNL     1     -12.595  10.428  24.937  0.00  0.00    +0.032 HD
ATOM     37  H   UNL     1     -11.005  10.888  25.498  0.00  0.00    +0.032 HD
ATOM     38  H   UNL     1     -11.541   8.684  26.226  0.00  0.00    +0.060 HD
ATOM     39  H   UNL     1     -12.675   8.241  23.708  0.00  0.00    +0.036 HD
ATOM     40  H   UNL     1     -13.297   7.338  25.910  0.00  0.00    +0.077 HD
ATOM     41  H   UNL     1     -14.543   5.481  25.191  0.00  0.00    +0.068 HD
ATOM     42  H   UNL     1     -11.722   3.276  23.817  0.00  0.00    +0.069 HD
ATOM     43  H   UNL     1     -14.984   4.077  22.677  0.00  0.00    +0.034 HD
ATOM     44  H   UNL     1     -14.038   5.225  21.754  0.00  0.00    +0.034 HD
ATOM     45  H   UNL     1     -14.134   3.007  20.732  0.00  0.00    +0.060 HD
ATOM     46  H   UNL     1     -12.108   4.630  20.497  0.00  0.00    +0.034 HD
ATOM     47  H   UNL     1     -11.222   3.487  21.515  0.00  0.00    +0.034 HD
ATOM     48  H   UNL     1     -11.028   2.357  17.670  0.00  0.00    +0.062 HD
ATOM     49  H   UNL     1     -10.812   5.264  18.737  0.00  0.00    +0.062 HD
ATOM     50  H   UNL     1     -10.043   3.773  16.154  0.00  0.00    +0.069 HD
ATOM     51  H   UNL     1      -7.835   7.607  16.398  0.00  0.00    +0.074 HD
ATOM     52  H   UNL     1      -8.568   9.922  15.848  0.00  0.00    +0.038 HD
ATOM     53  H   UNL     1     -11.481   8.966  16.256  0.00  0.00    +0.057 HD
ATOM     54  H   UNL     1     -10.022  11.615  16.781  0.00  0.00    +0.059 HD
ATOM     55  H   UNL     1     -12.963  11.112  16.472  0.00  0.00    +0.064 HD
ATOM     56  H   UNL     1     -13.398  11.721  18.931  0.00  0.00    +0.032 HD
ATOM     57  H   UNL     1     -11.701  11.464  19.264  0.00  0.00    +0.032 HD
ATOM     58  H   UNL     1     -11.973   9.038  18.515  0.00  0.00    +0.060 HD
ENDROOT
BRANCH   1  59
ATOM     59  C   UNL     1     -13.422   7.777  20.409  0.00  0.00    -0.057 C 
ATOM     60  H   UNL     1     -12.694   7.275  21.055  0.00  0.00    +0.024 HD
ATOM     61  H   UNL     1     -14.413   7.604  20.828  0.00  0.00    +0.024 HD
ATOM     62  H   UNL     1     -13.392   7.292  19.428  0.00  0.00    +0.024 HD
ENDBRANCH   1  59
BRANCH  26  63
ATOM     63  C   UNL     1      -9.431   8.577  14.461  0.00  0.00    -0.056 C 
ATOM     64  H   UNL     1     -10.123   9.200  13.880  0.00  0.00    +0.024 HD
ATOM     65  H   UNL     1      -8.464   8.599  13.950  0.00  0.00    +0.024 HD
ATOM     66  H   UNL     1      -9.811   7.550  14.433  0.00  0.00    +0.024 HD
ENDBRANCH  26  63
BRANCH  18  67
ATOM     67  C   UNL     1     -11.942   1.220  19.775  0.00  0.00    -0.043 C 
ATOM     68  H   UNL     1     -12.555   1.031  20.664  0.00  0.00    +0.027 HD
ATOM     69  H   UNL     1     -12.439   0.797  18.896  0.00  0.00    +0.027 HD
ATOM     70  H   UNL     1     -11.007   0.670  19.918  0.00  0.00    +0.027 HD
ENDBRANCH  18  67
BRANCH   7  71
ATOM     71  C   UNL     1     -10.957   7.032  23.322  0.00  0.00    -0.057 C 
ATOM     72  H   UNL     1     -11.174   7.309  22.286  0.00  0.00    +0.023 HD
ATOM     73  H   UNL     1      -9.916   7.313  23.510  0.00  0.00    +0.023 HD
ATOM     74  H   UNL     1     -11.036   5.943  23.370  0.00  0.00    +0.023 HD
ENDBRANCH   7  71
BRANCH  31  75
ATOM     75  O   UNL     1     -13.935   9.282  18.006  0.00  0.00    -0.391 OA
ATOM     76  H   UNL     1     -13.675   9.417  17.077  0.00  0.00    +0.210 HD
ENDBRANCH  31  75
BRANCH  25  77
ATOM     77  C   UNL     1      -8.331   8.541  18.279  0.00  0.00    +0.020 C 
ATOM     78  H   UNL     1      -9.240   8.614  18.884  0.00  0.00    +0.036 HD
BRANCH  77  79
ATOM     79  C   UNL     1      -7.473   7.499  19.030  0.00  0.00    -0.057 C 
ATOM     80  H   UNL     1      -8.095   6.726  19.494  0.00  0.00    +0.023 HD
ATOM     81  H   UNL     1      -6.876   7.974  19.815  0.00  0.00    +0.023 HD
ATOM     82  H   UNL     1      -6.761   7.012  18.355  0.00  0.00    +0.023 HD
ENDBRANCH  77  79
BRANCH  77  83
ATOM     83  C   UNL     1      -7.568   9.914  18.294  0.00  0.00    +0.067 C 
ATOM     84  H   UNL     1      -7.927  10.532  17.460  0.00  0.00    +0.060 HD
BRANCH  83  85
ATOM     85  C   UNL     1      -6.031   9.783  18.086  0.00  0.00    -0.017 C 
ATOM     86  H   UNL     1      -5.711   8.836  18.528  0.00  0.00    +0.032 HD
BRANCH  85  87
ATOM     87  C   UNL     1      -5.654   9.731  16.602  0.00  0.00    -0.060 C 
ATOM     88  H   UNL     1      -4.619   9.403  16.471  0.00  0.00    +0.023 HD
ATOM     89  H   UNL     1      -6.278   9.017  16.056  0.00  0.00    +0.023 HD
ATOM     90  H   UNL     1      -5.775  10.706  16.120  0.00  0.00    +0.023 HD
ENDBRANCH  85  87
BRANCH  85  91
ATOM     91  C   UNL     1      -5.196  10.856  18.842  0.00  0.00    -0.041 C 
ATOM     92  H   UNL     1      -4.430  10.353  19.446  0.00  0.00    +0.027 HD
ATOM     93  H   UNL     1      -5.863  11.342  19.568  0.00  0.00    +0.027 HD
BRANCH  91  94
ATOM     94  C   UNL     1      -4.551  11.965  18.008  0.00  0.00    +0.007 C 
ATOM     95  H   UNL     1      -4.509  11.641  16.960  0.00  0.00    +0.034 HD
ATOM     96  H   UNL     1      -3.520  12.131  18.327  0.00  0.00    +0.034 HD
BRANCH  94  97
ATOM     97  C   UNL     1      -5.295  13.290  18.008  0.00  0.00    +0.139 C 
ATOM     98  O   UNL     1      -6.512  13.351  17.830  0.00  0.00    -0.297 OA
BRANCH  97  99
ATOM     99  C   UNL     1      -4.449  14.543  18.200  0.00  0.00    +0.041 C 
ATOM    100  H   UNL     1      -4.914  15.125  19.005  0.00  0.00    +0.040 HD
BRANCH  99 101
ATOM    101  C   UNL     1      -4.518  15.409  16.946  0.00  0.00    -0.053 C 
ATOM    102  H   UNL     1      -4.353  16.461  17.202  0.00  0.00    +0.024 HD
ATOM    103  H   UNL     1      -5.496  15.352  16.459  0.00  0.00    +0.024 HD
ATOM    104  H   UNL     1      -3.751  15.115  16.221  0.00  0.00    +0.024 HD
ENDBRANCH  99 101
BRANCH  99 105
ATOM    105  C   UNL     1      -3.021  14.166  18.651  0.00  0.00    +0.071 C 
ATOM    106  H   UNL     1      -2.799  13.137  18.332  0.00  0.00    +0.061 HD
BRANCH 105 107
ATOM    107  C   UNL     1      -1.918  15.097  18.100  0.00  0.00    -0.006 C 
ATOM    108  H   UNL     1      -1.754  15.939  18.783  0.00  0.00    +0.033 HD
ATOM    109  H   UNL     1      -2.210  15.515  17.131  0.00  0.00    +0.033 HD
BRANCH 107 110
ATOM    110  C   UNL     1      -0.601  14.365  17.972  0.00  0.00    -0.067 C 
ATOM    111  C   UNL     1       0.447  14.601  18.772  0.00  0.00    -0.005 C 
ATOM    112  H   UNL     1      -0.571  13.635  17.169  0.00  0.00    +0.059 HD
ATOM    113  H   UNL     1       0.344  15.354  19.554  0.00  0.00    +0.078 HD
BRANCH 111 114
ATOM    114  N   UNL     1       1.693  13.994  18.725  0.00  0.00    -0.284 N 
ATOM    115  C   UNL     1       2.895  14.597  19.077  0.00  0.00    +0.206 C 
ATOM    116  O   UNL     1       3.999  14.064  19.064  0.00  0.00    -0.279 OA
ATOM    117  H   UNL     1       2.791  15.644  19.395  0.00  0.00    +0.126 HD
BRANCH 114 118
ATOM    118  C   UNL     1       1.735  12.604  18.285  0.00  0.00    +0.007 C 
ATOM    119  H   UNL     1       1.110  12.002  18.954  0.00  0.00    +0.043 HD
ATOM    120  H   UNL     1       2.751  12.196  18.300  0.00  0.00    +0.043 HD
ATOM    121  H   UNL     1       1.351  12.536  17.263  0.00  0.00    +0.043 HD
ENDBRANCH 114 118
ENDBRANCH 111 114
ENDBRANCH 107 110
ENDBRANCH 105 107
BRANCH 105 122
ATOM    122  O   UNL     1      -2.958  14.241  20.092  0.00  0.00    -0.379 OA
BRANCH 122 123
ATOM    123  C   UNL     1      -3.042  15.568  20.593  0.00  0.00    +0.037 C 
ATOM    124  H   UNL     1      -3.926  16.075  20.207  0.00  0.00    +0.052 HD
ATOM    125  H   UNL     1      -2.156  16.114  20.266  0.00  0.00    +0.052 HD
ATOM    126  H   UNL     1      -3.057  15.565  21.686  0.00  0.00    +0.052 HD
ENDBRANCH 122 123
ENDBRANCH 105 122
ENDBRANCH  99 105
ENDBRANCH  97  99
ENDBRANCH  94  97
ENDBRANCH  91  94
ENDBRANCH  85  91
ENDBRANCH  83  85
BRANCH  83 127
ATOM    127  O   UNL     1      -7.779  10.637  19.514  0.00  0.00    -0.379 OA
BRANCH 127 128
ATOM    128  C   UNL     1      -9.152  10.826  19.846  0.00  0.00    +0.037 C 
ATOM    129  H   UNL     1      -9.393  11.886  19.956  0.00  0.00    +0.052 HD
ATOM    130  H   UNL     1      -9.336  10.324  20.803  0.00  0.00    +0.052 HD
ATOM    131  H   UNL     1      -9.800  10.369  19.098  0.00  0.00    +0.052 HD
ENDBRANCH 127 128
ENDBRANCH  83 127
ENDBRANCH  77  83
ENDBRANCH  25  77
BRANCH   9 132
ATOM    132  O   UNL     1     -14.638   6.746  23.602  0.00  0.00    -0.384 OA
ATOM    133  H   UNL     1     -15.124   7.369  24.170  0.00  0.00    +0.210 HD
ENDBRANCH   9 132
BRANCH  29 134
ATOM    134  O   UNL     1     -12.067  12.899  17.029  0.00  0.00    -0.376 OA
BRANCH 134 135
ATOM    135  C   UNL     1     -10.848  13.404  17.555  0.00  0.00    +0.037 C 
ATOM    136  H   UNL     1     -10.007  13.099  16.924  0.00  0.00    +0.052 HD
ATOM    137  H   UNL     1     -10.704  12.982  18.555  0.00  0.00    +0.052 HD
ATOM    138  H   UNL     1     -10.876  14.495  17.640  0.00  0.00    +0.052 HD
ENDBRANCH 134 135
ENDBRANCH  29 134
BRANCH   6 139
ATOM    139  O   UNL     1      -9.774   8.653  25.140  0.00  0.00    -0.379 OA
BRANCH 139 140
ATOM    140  C   UNL     1      -9.224   8.060  26.312  0.00  0.00    +0.037 C 
ATOM    141  H   UNL     1      -8.195   7.731  26.129  0.00  0.00    +0.052 HD
ATOM    142  H   UNL     1      -9.830   7.184  26.563  0.00  0.00    +0.052 HD
ATOM    143  H   UNL     1      -9.257   8.756  27.154  0.00  0.00    +0.052 HD
ENDBRANCH 139 140
ENDBRANCH   6 139
BRANCH  16 144
ATOM    144  O   UNL     1     -13.194   2.004  22.283  0.00  0.00    -0.379 OA
BRANCH 144 145
ATOM    145  C   UNL     1     -14.399   1.337  22.630  0.00  0.00    +0.037 C 
ATOM    146  H   UNL     1     -14.379   1.015  23.673  0.00  0.00    +0.052 HD
ATOM    147  H   UNL     1     -15.270   1.970  22.442  0.00  0.00    +0.052 HD
ATOM    148  H   UNL     1     -14.480   0.443  22.005  0.00  0.00    +0.052 HD
ENDBRANCH 144 145
ENDBRANCH  16 144
BRANCH   4 149
ATOM    149  O   UNL     1     -10.987  12.114  23.406  0.00  0.00    -0.376 OA
BRANCH 149 150
ATOM    150  C   UNL     1      -9.669  12.561  23.113  0.00  0.00    +0.037 C 
ATOM    151  H   UNL     1      -8.970  12.016  23.755  0.00  0.00    +0.052 HD
ATOM    152  H   UNL     1      -9.415  12.348  22.069  0.00  0.00    +0.052 HD
ATOM    153  H   UNL     1      -9.565  13.631  23.319  0.00  0.00    +0.052 HD
ENDBRANCH 149 150
ENDBRANCH   4 149
TORSDOF 33
ENDMDL
