MODEL 1
REMARK VINA RESULT:      -5.8      0.000      0.000
REMARK  Name = Sphinxolide B_conf1
REMARK  33 active torsions:
REMARK  status: ('A' for Active; 'I' for Inactive)
REMARK    1  A    between atoms: C_1  and  C_2
REMARK    2  A    between atoms: C_5  and  O_67
REMARK    3  A    between atoms: C_7  and  O_65
REMARK    4  A    between atoms: C_8  and  C_64
REMARK    5  A    between atoms: C_10  and  O_63
REMARK    6  A    between atoms: C_17  and  O_61
REMARK    7  A    between atoms: C_19  and  C_60
REMARK    8  A    between atoms: C_26  and  C_37
REMARK    9  A    between atoms: C_27  and  C_36
REMARK   10  A    between atoms: C_30  and  O_34
REMARK   11  A    between atoms: C_32  and  O_33
REMARK   12  A    between atoms: O_34  and  C_35
REMARK   13  A    between atoms: C_37  and  C_38
REMARK   14  A    between atoms: C_37  and  C_39
REMARK   15  A    between atoms: C_39  and  C_40
REMARK   16  A    between atoms: C_39  and  O_58
REMARK   17  A    between atoms: C_40  and  C_41
REMARK   18  A    between atoms: C_40  and  C_42
REMARK   19  A    between atoms: C_42  and  C_43
REMARK   20  A    between atoms: C_43  and  C_44
REMARK   21  A    between atoms: C_44  and  C_46
REMARK   22  A    between atoms: C_46  and  C_47
REMARK   23  A    between atoms: C_46  and  C_48
REMARK   24  A    between atoms: C_48  and  C_49
REMARK   25  A    between atoms: C_48  and  O_56
REMARK   26  A    between atoms: C_49  and  C_50
REMARK   27  A    between atoms: C_51  and  N_52
REMARK   28  A    between atoms: N_52  and  C_53
REMARK   29  A    between atoms: O_56  and  C_57
REMARK   30  A    between atoms: O_58  and  C_59
REMARK   31  A    between atoms: O_61  and  C_62
REMARK   32  A    between atoms: O_65  and  C_66
REMARK   33  A    between atoms: O_67  and  C_68
REMARK                            x       y       z     vdW  Elec       q    Type
REMARK                         _______ _______ _______ _____ _____    ______ ____
ROOT
ATOM      1  C   UNL     1     -11.656  14.798  22.757  0.00  0.00    +0.000 C 
ATOM      2  C   UNL     1     -10.692  15.304  21.702  0.00  0.00    -0.080 C 
ATOM      3  C   UNL     1     -10.821  16.382  20.906  0.00  0.00    -0.059 C 
ATOM      4  C   UNL     1      -9.850  16.855  19.833  0.00  0.00    +0.079 C 
ATOM      5  C   UNL     1      -8.735  15.842  19.524  0.00  0.00    +0.004 C 
ATOM      6  C   UNL     1      -7.735  16.287  18.445  0.00  0.00    +0.067 C 
ATOM      7  C   UNL     1      -6.651  15.189  18.148  0.00  0.00    +0.022 C 
ATOM      8  C   UNL     1      -5.819  14.817  19.425  0.00  0.00    +0.138 C 
ATOM      9  C   UNL     1      -6.122  13.417  20.018  0.00  0.00    +0.114 C 
ATOM     10  C   UNL     1      -5.498  12.350  19.151  0.00  0.00    -0.029 C 
ATOM     11  C   UNL     1      -4.326  12.642  18.561  0.00  0.00    +0.024 C 
ATOM     12  C   UNL     1      -3.644  13.937  18.738  0.00  0.00    +0.332 C 
ATOM     13  O   UNL     1      -2.463  14.063  18.441  0.00  0.00    -0.246 OA
ATOM     14  O   UNL     1      -4.387  14.960  19.226  0.00  0.00    -0.455 OA
ATOM     15  C   UNL     1      -6.234  11.026  19.001  0.00  0.00    -0.002 C 
ATOM     16  C   UNL     1      -5.570   9.898  18.175  0.00  0.00    +0.066 C 
ATOM     17  C   UNL     1      -6.374   8.573  18.286  0.00  0.00    -0.005 C 
ATOM     18  C   UNL     1      -7.838   8.639  17.876  0.00  0.00    -0.070 C 
ATOM     19  C   UNL     1      -8.895   8.583  18.709  0.00  0.00    -0.062 C 
ATOM     20  C   UNL     1      -8.870   8.495  20.154  0.00  0.00    -0.055 C 
ATOM     21  C   UNL     1      -9.995   8.503  20.883  0.00  0.00    +0.023 C 
ATOM     22  C   UNL     1      -9.928   8.442  22.356  0.00  0.00    +0.332 C 
ATOM     23  O   UNL     1      -8.917   8.240  23.012  0.00  0.00    -0.246 OA
ATOM     24  O   UNL     1     -11.177   8.674  22.821  0.00  0.00    -0.457 OA
ATOM     25  C   UNL     1     -11.394   8.689  24.262  0.00  0.00    +0.114 C 
ATOM     26  C   UNL     1     -11.977  10.094  24.614  0.00  0.00    +0.012 C 
ATOM     27  C   UNL     1     -11.038  11.178  24.088  0.00  0.00    -0.079 C 
ATOM     28  C   UNL     1     -10.290  12.050  24.785  0.00  0.00    -0.059 C 
ATOM     29  C   UNL     1      -9.388  13.068  24.138  0.00  0.00    +0.079 C 
ATOM     30  C   UNL     1      -9.722  14.522  24.519  0.00  0.00    +0.004 C 
ATOM     31  C   UNL     1     -11.133  15.047  24.199  0.00  0.00    +0.064 C 
ATOM     32  H   UNL     1     -11.752  13.717  22.603  0.00  0.00    +0.037 HD
ATOM     33  H   UNL     1      -9.803  14.687  21.590  0.00  0.00    +0.057 HD
ATOM     34  H   UNL     1     -11.707  17.005  21.004  0.00  0.00    +0.059 HD
ATOM     35  H   UNL     1     -10.419  17.047  18.914  0.00  0.00    +0.064 HD
ATOM     36  H   UNL     1      -8.180  15.659  20.449  0.00  0.00    +0.032 HD
ATOM     37  H   UNL     1      -9.206  14.907  19.199  0.00  0.00    +0.032 HD
ATOM     38  H   UNL     1      -7.225  17.204  18.774  0.00  0.00    +0.060 HD
ATOM     39  H   UNL     1      -7.196  14.298  17.804  0.00  0.00    +0.036 HD
ATOM     40  H   UNL     1      -6.048  15.551  20.207  0.00  0.00    +0.077 HD
ATOM     41  H   UNL     1      -5.670  13.349  21.015  0.00  0.00    +0.068 HD
ATOM     42  H   UNL     1      -3.781  11.942  17.936  0.00  0.00    +0.069 HD
ATOM     43  H   UNL     1      -6.421  10.641  20.012  0.00  0.00    +0.034 HD
ATOM     44  H   UNL     1      -7.203  11.259  18.543  0.00  0.00    +0.034 HD
ATOM     45  H   UNL     1      -4.565   9.719  18.579  0.00  0.00    +0.060 HD
ATOM     46  H   UNL     1      -6.279   8.212  19.316  0.00  0.00    +0.034 HD
ATOM     47  H   UNL     1      -5.895   7.796  17.681  0.00  0.00    +0.034 HD
ATOM     48  H   UNL     1      -9.894   8.628  18.269  0.00  0.00    +0.062 HD
ATOM     49  H   UNL     1      -7.911   8.431  20.661  0.00  0.00    +0.062 HD
ATOM     50  H   UNL     1     -10.981   8.568  20.436  0.00  0.00    +0.069 HD
ATOM     51  H   UNL     1     -10.422   8.608  24.771  0.00  0.00    +0.074 HD
ATOM     52  H   UNL     1     -12.902  10.247  24.048  0.00  0.00    +0.038 HD
ATOM     53  H   UNL     1     -10.989  11.232  22.999  0.00  0.00    +0.057 HD
ATOM     54  H   UNL     1     -10.294  12.054  25.872  0.00  0.00    +0.059 HD
ATOM     55  H   UNL     1      -9.411  12.971  23.047  0.00  0.00    +0.064 HD
ATOM     56  H   UNL     1      -8.981  15.172  24.033  0.00  0.00    +0.032 HD
ATOM     57  H   UNL     1      -9.541  14.644  25.598  0.00  0.00    +0.032 HD
ATOM     58  H   UNL     1     -11.115  16.129  24.385  0.00  0.00    +0.060 HD
ENDROOT
BRANCH   1  59
ATOM     59  C   UNL     1     -13.083  15.352  22.594  0.00  0.00    -0.057 C 
ATOM     60  H   UNL     1     -13.821  14.543  22.546  0.00  0.00    +0.024 HD
ATOM     61  H   UNL     1     -13.359  15.980  23.450  0.00  0.00    +0.024 HD
ATOM     62  H   UNL     1     -13.180  15.959  21.688  0.00  0.00    +0.024 HD
ENDBRANCH   1  59
BRANCH  26  63
ATOM     63  C   UNL     1     -12.298  10.285  26.097  0.00  0.00    -0.056 C 
ATOM     64  H   UNL     1     -13.124   9.643  26.418  0.00  0.00    +0.024 HD
ATOM     65  H   UNL     1     -11.428  10.060  26.727  0.00  0.00    +0.024 HD
ATOM     66  H   UNL     1     -12.557  11.320  26.322  0.00  0.00    +0.024 HD
ENDBRANCH  26  63
BRANCH  18  67
ATOM     67  C   UNL     1      -8.081   8.747  16.389  0.00  0.00    -0.043 C 
ATOM     68  H   UNL     1      -7.180   9.090  15.872  0.00  0.00    +0.027 HD
ATOM     69  H   UNL     1      -8.881   9.454  16.150  0.00  0.00    +0.027 HD
ATOM     70  H   UNL     1      -8.377   7.776  15.975  0.00  0.00    +0.027 HD
ENDBRANCH  18  67
BRANCH   7  71
ATOM     71  C   UNL     1      -5.776  15.622  16.961  0.00  0.00    -0.057 C 
ATOM     72  H   UNL     1      -6.386  16.004  16.135  0.00  0.00    +0.023 HD
ATOM     73  H   UNL     1      -5.058  16.393  17.252  0.00  0.00    +0.023 HD
ATOM     74  H   UNL     1      -5.176  14.788  16.584  0.00  0.00    +0.023 HD
ENDBRANCH   7  71
BRANCH  31  75
ATOM     75  O   UNL     1     -12.040  14.497  25.163  0.00  0.00    -0.391 OA
ATOM     76  H   UNL     1     -12.741  15.151  25.315  0.00  0.00    +0.210 HD
ENDBRANCH  31  75
BRANCH  25  77
ATOM     77  C   UNL     1     -12.194   7.385  24.595  0.00  0.00    +0.020 C 
ATOM     78  H   UNL     1     -13.168   7.729  24.966  0.00  0.00    +0.036 HD
BRANCH  77  79
ATOM     79  C   UNL     1     -12.528   6.586  23.325  0.00  0.00    -0.057 C 
ATOM     80  H   UNL     1     -13.365   7.000  22.767  0.00  0.00    +0.023 HD
ATOM     81  H   UNL     1     -12.759   5.543  23.569  0.00  0.00    +0.023 HD
ATOM     82  H   UNL     1     -11.664   6.574  22.649  0.00  0.00    +0.023 HD
ENDBRANCH  77  79
BRANCH  77  83
ATOM     83  C   UNL     1     -11.622   6.442  25.707  0.00  0.00    +0.067 C 
ATOM     84  H   UNL     1     -11.239   7.087  26.513  0.00  0.00    +0.060 HD
BRANCH  83  85
ATOM     85  C   UNL     1     -10.417   5.565  25.233  0.00  0.00    -0.017 C 
ATOM     86  H   UNL     1     -10.277   5.672  24.159  0.00  0.00    +0.032 HD
BRANCH  85  87
ATOM     87  C   UNL     1      -9.120   6.066  25.889  0.00  0.00    -0.060 C 
ATOM     88  H   UNL     1      -8.252   5.798  25.283  0.00  0.00    +0.023 HD
ATOM     89  H   UNL     1      -9.117   7.156  25.992  0.00  0.00    +0.023 HD
ATOM     90  H   UNL     1      -8.986   5.633  26.885  0.00  0.00    +0.023 HD
ENDBRANCH  85  87
BRANCH  85  91
ATOM     91  C   UNL     1     -10.574   4.050  25.507  0.00  0.00    -0.041 C 
ATOM     92  H   UNL     1     -10.324   3.483  24.602  0.00  0.00    +0.027 HD
ATOM     93  H   UNL     1     -11.623   3.815  25.725  0.00  0.00    +0.027 HD
BRANCH  91  94
ATOM     94  C   UNL     1      -9.710   3.555  26.677  0.00  0.00    +0.007 C 
ATOM     95  H   UNL     1      -8.911   2.926  26.271  0.00  0.00    +0.034 HD
ATOM     96  H   UNL     1      -9.248   4.396  27.192  0.00  0.00    +0.034 HD
BRANCH  94  97
ATOM     97  C   UNL     1     -10.484   2.720  27.695  0.00  0.00    +0.139 C 
ATOM     98  O   UNL     1     -10.602   1.497  27.572  0.00  0.00    -0.297 OA
BRANCH  97  99
ATOM     99  C   UNL     1     -11.067   3.399  28.935  0.00  0.00    +0.041 C 
ATOM    100  H   UNL     1     -10.866   2.690  29.750  0.00  0.00    +0.040 HD
BRANCH  99 101
ATOM    101  C   UNL     1     -12.587   3.543  28.922  0.00  0.00    -0.053 C 
ATOM    102  H   UNL     1     -13.011   3.421  27.920  0.00  0.00    +0.024 HD
ATOM    103  H   UNL     1     -12.886   4.526  29.298  0.00  0.00    +0.024 HD
ATOM    104  H   UNL     1     -13.048   2.789  29.567  0.00  0.00    +0.024 HD
ENDBRANCH  99 101
BRANCH  99 105
ATOM    105  C   UNL     1     -10.311   4.710  29.250  0.00  0.00    +0.071 C 
ATOM    106  H   UNL     1      -9.677   4.991  28.398  0.00  0.00    +0.061 HD
BRANCH 105 107
ATOM    107  C   UNL     1     -11.250   5.893  29.572  0.00  0.00    -0.006 C 
ATOM    108  H   UNL     1     -12.222   5.749  29.094  0.00  0.00    +0.033 HD
ATOM    109  H   UNL     1     -11.418   5.952  30.654  0.00  0.00    +0.033 HD
BRANCH 107 110
ATOM    110  C   UNL     1     -10.718   7.218  29.079  0.00  0.00    -0.067 C 
ATOM    111  C   UNL     1      -9.568   7.752  29.520  0.00  0.00    -0.005 C 
ATOM    112  H   UNL     1     -11.338   7.735  28.353  0.00  0.00    +0.059 HD
ATOM    113  H   UNL     1      -8.975   7.196  30.243  0.00  0.00    +0.078 HD
BRANCH 111 114
ATOM    114  N   UNL     1      -9.043   8.977  29.137  0.00  0.00    -0.284 N 
ATOM    115  C   UNL     1      -8.708   9.218  27.808  0.00  0.00    +0.206 C 
ATOM    116  O   UNL     1      -8.239  10.253  27.349  0.00  0.00    -0.279 OA
ATOM    117  H   UNL     1      -8.906   8.350  27.155  0.00  0.00    +0.126 HD
BRANCH 114 118
ATOM    118  C   UNL     1      -8.828  10.049  30.099  0.00  0.00    +0.007 C 
ATOM    119  H   UNL     1      -9.747  10.220  30.670  0.00  0.00    +0.043 HD
ATOM    120  H   UNL     1      -8.031   9.807  30.807  0.00  0.00    +0.043 HD
ATOM    121  H   UNL     1      -8.545  10.960  29.560  0.00  0.00    +0.043 HD
ENDBRANCH 114 118
ENDBRANCH 111 114
ENDBRANCH 107 110
ENDBRANCH 105 107
BRANCH 105 122
ATOM    122  O   UNL     1      -9.488   4.506  30.416  0.00  0.00    -0.379 OA
BRANCH 122 123
ATOM    123  C   UNL     1     -10.227   4.501  31.632  0.00  0.00    +0.037 C 
ATOM    124  H   UNL     1     -10.779   5.443  31.699  0.00  0.00    +0.052 HD
ATOM    125  H   UNL     1      -9.551   4.435  32.489  0.00  0.00    +0.052 HD
ATOM    126  H   UNL     1     -10.945   3.677  31.653  0.00  0.00    +0.052 HD
ENDBRANCH 122 123
ENDBRANCH 105 122
ENDBRANCH  99 105
ENDBRANCH  97  99
ENDBRANCH  94  97
ENDBRANCH  91  94
ENDBRANCH  85  91
ENDBRANCH  83  85
BRANCH  83 127
ATOM    127  O   UNL     1     -12.671   5.629  26.230  0.00  0.00    -0.379 OA
BRANCH 127 128
ATOM    128  C   UNL     1     -13.738   6.372  26.814  0.00  0.00    +0.037 C 
ATOM    129  H   UNL     1     -14.548   6.517  26.094  0.00  0.00    +0.052 HD
ATOM    130  H   UNL     1     -13.345   7.350  27.102  0.00  0.00    +0.052 HD
ATOM    131  H   UNL     1     -14.114   5.868  27.709  0.00  0.00    +0.052 HD
ENDBRANCH 127 128
ENDBRANCH  83 127
ENDBRANCH  77  83
ENDBRANCH  25  77
BRANCH   9 132
ATOM    132  O   UNL     1      -7.517  13.209  20.166  0.00  0.00    -0.384 OA
ATOM    133  H   UNL     1      -7.806  13.717  20.943  0.00  0.00    +0.210 HD
ENDBRANCH   9 132
BRANCH  29 134
ATOM    134  O   UNL     1      -8.035  12.839  24.567  0.00  0.00    -0.376 OA
BRANCH 134 135
ATOM    135  C   UNL     1      -7.086  13.716  23.974  0.00  0.00    +0.037 C 
ATOM    136  H   UNL     1      -6.239  13.812  24.660  0.00  0.00    +0.052 HD
ATOM    137  H   UNL     1      -6.712  13.313  23.029  0.00  0.00    +0.052 HD
ATOM    138  H   UNL     1      -7.517  14.712  23.820  0.00  0.00    +0.052 HD
ENDBRANCH 134 135
ENDBRANCH  29 134
BRANCH   6 139
ATOM    139  O   UNL     1      -8.487  16.529  17.242  0.00  0.00    -0.379 OA
BRANCH 139 140
ATOM    140  C   UNL     1      -9.326  15.436  16.883  0.00  0.00    +0.037 C 
ATOM    141  H   UNL     1      -9.669  15.589  15.856  0.00  0.00    +0.052 HD
ATOM    142  H   UNL     1      -8.771  14.497  16.928  0.00  0.00    +0.052 HD
ATOM    143  H   UNL     1     -10.200  15.384  17.538  0.00  0.00    +0.052 HD
ENDBRANCH 139 140
ENDBRANCH   6 139
BRANCH  16 144
ATOM    144  O   UNL     1      -5.452  10.334  16.813  0.00  0.00    -0.379 OA
BRANCH 144 145
ATOM    145  C   UNL     1      -4.529   9.577  16.041  0.00  0.00    +0.037 C 
ATOM    146  H   UNL     1      -4.446   8.556  16.427  0.00  0.00    +0.052 HD
ATOM    147  H   UNL     1      -3.548  10.057  16.118  0.00  0.00    +0.052 HD
ATOM    148  H   UNL     1      -4.817   9.562  14.986  0.00  0.00    +0.052 HD
ENDBRANCH 144 145
ENDBRANCH  16 144
BRANCH   4 149
ATOM    149  O   UNL     1      -9.228  18.066  20.288  0.00  0.00    -0.376 OA
BRANCH 149 150
ATOM    150  C   UNL     1      -9.737  19.237  19.665  0.00  0.00    +0.037 C 
ATOM    151  H   UNL     1     -10.048  19.031  18.636  0.00  0.00    +0.052 HD
ATOM    152  H   UNL     1      -8.940  19.982  19.642  0.00  0.00    +0.052 HD
ATOM    153  H   UNL     1     -10.574  19.651  20.234  0.00  0.00    +0.052 HD
ENDBRANCH 149 150
ENDBRANCH   4 149
TORSDOF 33
ENDMDL
MODEL 2
REMARK VINA RESULT:      -5.8      6.616     12.156
REMARK  Name = Sphinxolide B_conf1
REMARK  33 active torsions:
REMARK  status: ('A' for Active; 'I' for Inactive)
REMARK    1  A    between atoms: C_1  and  C_2
REMARK    2  A    between atoms: C_5  and  O_67
REMARK    3  A    between atoms: C_7  and  O_65
REMARK    4  A    between atoms: C_8  and  C_64
REMARK    5  A    between atoms: C_10  and  O_63
REMARK    6  A    between atoms: C_17  and  O_61
REMARK    7  A    between atoms: C_19  and  C_60
REMARK    8  A    between atoms: C_26  and  C_37
REMARK    9  A    between atoms: C_27  and  C_36
REMARK   10  A    between atoms: C_30  and  O_34
REMARK   11  A    between atoms: C_32  and  O_33
REMARK   12  A    between atoms: O_34  and  C_35
REMARK   13  A    between atoms: C_37  and  C_38
REMARK   14  A    between atoms: C_37  and  C_39
REMARK   15  A    between atoms: C_39  and  C_40
REMARK   16  A    between atoms: C_39  and  O_58
REMARK   17  A    between atoms: C_40  and  C_41
REMARK   18  A    between atoms: C_40  and  C_42
REMARK   19  A    between atoms: C_42  and  C_43
REMARK   20  A    between atoms: C_43  and  C_44
REMARK   21  A    between atoms: C_44  and  C_46
REMARK   22  A    between atoms: C_46  and  C_47
REMARK   23  A    between atoms: C_46  and  C_48
REMARK   24  A    between atoms: C_48  and  C_49
REMARK   25  A    between atoms: C_48  and  O_56
REMARK   26  A    between atoms: C_49  and  C_50
REMARK   27  A    between atoms: C_51  and  N_52
REMARK   28  A    between atoms: N_52  and  C_53
REMARK   29  A    between atoms: O_56  and  C_57
REMARK   30  A    between atoms: O_58  and  C_59
REMARK   31  A    between atoms: O_61  and  C_62
REMARK   32  A    between atoms: O_65  and  C_66
REMARK   33  A    between atoms: O_67  and  C_68
REMARK                            x       y       z     vdW  Elec       q    Type
REMARK                         _______ _______ _______ _____ _____    ______ ____
ROOT
ATOM      1  C   UNL     1      -2.172  22.312  16.863  0.00  0.00    +0.000 C 
ATOM      2  C   UNL     1      -0.669  22.215  17.042  0.00  0.00    -0.080 C 
ATOM      3  C   UNL     1       0.294  22.836  16.336  0.00  0.00    -0.059 C 
ATOM      4  C   UNL     1       1.800  22.701  16.517  0.00  0.00    +0.079 C 
ATOM      5  C   UNL     1       2.204  21.565  17.472  0.00  0.00    +0.004 C 
ATOM      6  C   UNL     1       3.718  21.401  17.680  0.00  0.00    +0.067 C 
ATOM      7  C   UNL     1       4.061  20.197  18.630  0.00  0.00    +0.022 C 
ATOM      8  C   UNL     1       3.416  20.360  20.050  0.00  0.00    +0.138 C 
ATOM      9  C   UNL     1       2.236  19.398  20.346  0.00  0.00    +0.114 C 
ATOM     10  C   UNL     1       2.764  18.009  20.611  0.00  0.00    -0.029 C 
ATOM     11  C   UNL     1       3.948  17.909  21.241  0.00  0.00    +0.024 C 
ATOM     12  C   UNL     1       4.721  19.086  21.677  0.00  0.00    +0.332 C 
ATOM     13  O   UNL     1       5.625  18.967  22.495  0.00  0.00    -0.246 OA
ATOM     14  O   UNL     1       4.389  20.279  21.125  0.00  0.00    -0.455 OA
ATOM     15  C   UNL     1       1.930  16.823  20.148  0.00  0.00    -0.002 C 
ATOM     16  C   UNL     1       2.425  15.394  20.478  0.00  0.00    +0.066 C 
ATOM     17  C   UNL     1       1.362  14.329  20.093  0.00  0.00    -0.005 C 
ATOM     18  C   UNL     1       0.906  14.329  18.641  0.00  0.00    -0.070 C 
ATOM     19  C   UNL     1      -0.296  14.738  18.191  0.00  0.00    -0.062 C 
ATOM     20  C   UNL     1      -1.381  15.297  18.969  0.00  0.00    -0.055 C 
ATOM     21  C   UNL     1      -2.518  15.722  18.398  0.00  0.00    +0.023 C 
ATOM     22  C   UNL     1      -3.590  16.313  19.222  0.00  0.00    +0.332 C 
ATOM     23  O   UNL     1      -3.613  16.338  20.443  0.00  0.00    -0.246 OA
ATOM     24  O   UNL     1      -4.504  16.832  18.371  0.00  0.00    -0.457 OA
ATOM     25  C   UNL     1      -5.674  17.502  18.927  0.00  0.00    +0.114 C 
ATOM     26  C   UNL     1      -5.661  18.961  18.372  0.00  0.00    +0.012 C 
ATOM     27  C   UNL     1      -4.321  19.616  18.700  0.00  0.00    -0.079 C 
ATOM     28  C   UNL     1      -4.071  20.641  19.534  0.00  0.00    -0.059 C 
ATOM     29  C   UNL     1      -2.689  21.186  19.780  0.00  0.00    +0.079 C 
ATOM     30  C   UNL     1      -2.543  22.681  19.441  0.00  0.00    +0.004 C 
ATOM     31  C   UNL     1      -2.847  23.128  18.000  0.00  0.00    +0.064 C 
ATOM     32  H   UNL     1      -2.558  21.287  16.893  0.00  0.00    +0.037 HD
ATOM     33  H   UNL     1      -0.367  21.539  17.840  0.00  0.00    +0.057 HD
ATOM     34  H   UNL     1       0.006  23.511  15.533  0.00  0.00    +0.059 HD
ATOM     35  H   UNL     1       2.250  22.514  15.534  0.00  0.00    +0.064 HD
ATOM     36  H   UNL     1       1.747  21.765  18.446  0.00  0.00    +0.032 HD
ATOM     37  H   UNL     1       1.802  20.626  17.073  0.00  0.00    +0.032 HD
ATOM     38  H   UNL     1       4.131  22.322  18.116  0.00  0.00    +0.060 HD
ATOM     39  H   UNL     1       3.653  19.296  18.152  0.00  0.00    +0.036 HD
ATOM     40  H   UNL     1       3.022  21.381  20.131  0.00  0.00    +0.077 HD
ATOM     41  H   UNL     1       1.716  19.740  21.249  0.00  0.00    +0.068 HD
ATOM     42  H   UNL     1       4.408  16.962  21.500  0.00  0.00    +0.069 HD
ATOM     43  H   UNL     1       0.927  16.943  20.578  0.00  0.00    +0.034 HD
ATOM     44  H   UNL     1       1.844  16.911  19.057  0.00  0.00    +0.034 HD
ATOM     45  H   UNL     1       2.592  15.328  21.562  0.00  0.00    +0.060 HD
ATOM     46  H   UNL     1       0.506  14.454  20.764  0.00  0.00    +0.034 HD
ATOM     47  H   UNL     1       1.741  13.326  20.320  0.00  0.00    +0.034 HD
ATOM     48  H   UNL     1      -0.490  14.668  17.118  0.00  0.00    +0.062 HD
ATOM     49  H   UNL     1      -1.267  15.383  20.046  0.00  0.00    +0.062 HD
ATOM     50  H   UNL     1      -2.691  15.665  17.329  0.00  0.00    +0.069 HD
ATOM     51  H   UNL     1      -5.560  17.573  20.018  0.00  0.00    +0.074 HD
ATOM     52  H   UNL     1      -5.678  18.925  17.277  0.00  0.00    +0.038 HD
ATOM     53  H   UNL     1      -3.472  19.179  18.172  0.00  0.00    +0.057 HD
ATOM     54  H   UNL     1      -4.870  21.125  20.088  0.00  0.00    +0.059 HD
ATOM     55  H   UNL     1      -1.939  20.619  19.218  0.00  0.00    +0.064 HD
ATOM     56  H   UNL     1      -1.520  22.984  19.700  0.00  0.00    +0.032 HD
ATOM     57  H   UNL     1      -3.189  23.253  20.126  0.00  0.00    +0.032 HD
ATOM     58  H   UNL     1      -2.526  24.175  17.921  0.00  0.00    +0.060 HD
ENDROOT
BRANCH   1  59
ATOM     59  C   UNL     1      -2.587  22.855  15.484  0.00  0.00    -0.057 C 
ATOM     60  H   UNL     1      -1.714  23.023  14.843  0.00  0.00    +0.024 HD
ATOM     61  H   UNL     1      -3.232  22.140  14.960  0.00  0.00    +0.024 HD
ATOM     62  H   UNL     1      -3.134  23.800  15.570  0.00  0.00    +0.024 HD
ENDBRANCH   1  59
BRANCH  26  63
ATOM     63  C   UNL     1      -6.844  19.815  18.831  0.00  0.00    -0.056 C 
ATOM     64  H   UNL     1      -6.550  20.533  19.603  0.00  0.00    +0.024 HD
ATOM     65  H   UNL     1      -7.281  20.376  17.995  0.00  0.00    +0.024 HD
ATOM     66  H   UNL     1      -7.656  19.200  19.221  0.00  0.00    +0.024 HD
ENDBRANCH  26  63
BRANCH  18  67
ATOM     67  C   UNL     1       1.913  13.788  17.653  0.00  0.00    -0.043 C 
ATOM     68  H   UNL     1       2.679  13.198  18.165  0.00  0.00    +0.027 HD
ATOM     69  H   UNL     1       2.429  14.585  17.109  0.00  0.00    +0.027 HD
ATOM     70  H   UNL     1       1.420  13.156  16.906  0.00  0.00    +0.027 HD
ENDBRANCH  18  67
BRANCH   7  71
ATOM     71  C   UNL     1       5.583  19.985  18.678  0.00  0.00    -0.057 C 
ATOM     72  H   UNL     1       6.114  20.786  18.153  0.00  0.00    +0.023 HD
ATOM     73  H   UNL     1       5.949  19.937  19.707  0.00  0.00    +0.023 HD
ATOM     74  H   UNL     1       5.866  19.031  18.221  0.00  0.00    +0.023 HD
ENDBRANCH   7  71
BRANCH  31  75
ATOM     75  O   UNL     1      -4.270  23.140  17.830  0.00  0.00    -0.391 OA
ATOM     76  H   UNL     1      -4.465  22.782  16.949  0.00  0.00    +0.210 HD
ENDBRANCH  31  75
BRANCH  25  77
ATOM     77  C   UNL     1      -6.889  16.553  18.655  0.00  0.00    +0.020 C 
ATOM     78  H   UNL     1      -7.771  17.207  18.641  0.00  0.00    +0.036 HD
BRANCH  77  79
ATOM     79  C   UNL     1      -6.834  15.955  17.239  0.00  0.00    -0.057 C 
ATOM     80  H   UNL     1      -5.975  15.304  17.083  0.00  0.00    +0.023 HD
ATOM     81  H   UNL     1      -6.808  16.746  16.482  0.00  0.00    +0.023 HD
ATOM     82  H   UNL     1      -7.732  15.355  17.049  0.00  0.00    +0.023 HD
ENDBRANCH  77  79
BRANCH  77  83
ATOM     83  C   UNL     1      -7.197  15.441  19.713  0.00  0.00    +0.067 C 
ATOM     84  H   UNL     1      -6.947  15.856  20.701  0.00  0.00    +0.060 HD
BRANCH  83  85
ATOM     85  C   UNL     1      -6.330  14.150  19.544  0.00  0.00    -0.017 C 
ATOM     86  H   UNL     1      -5.457  14.365  18.932  0.00  0.00    +0.032 HD
BRANCH  85  87
ATOM     87  C   UNL     1      -5.797  13.701  20.914  0.00  0.00    -0.060 C 
ATOM     88  H   UNL     1      -4.707  13.623  20.897  0.00  0.00    +0.023 HD
ATOM     89  H   UNL     1      -6.057  14.415  21.701  0.00  0.00    +0.023 HD
ATOM     90  H   UNL     1      -6.203  12.724  21.197  0.00  0.00    +0.023 HD
ENDBRANCH  85  87
BRANCH  85  91
ATOM     91  C   UNL     1      -7.061  12.965  18.869  0.00  0.00    -0.041 C 
ATOM     92  H   UNL     1      -7.103  13.126  17.784  0.00  0.00    +0.027 HD
ATOM     93  H   UNL     1      -8.106  12.929  19.204  0.00  0.00    +0.027 HD
BRANCH  91  94
ATOM     94  C   UNL     1      -6.408  11.606  19.160  0.00  0.00    +0.007 C 
ATOM     95  H   UNL     1      -5.979  11.640  20.168  0.00  0.00    +0.034 HD
ATOM     96  H   UNL     1      -7.153  10.813  19.138  0.00  0.00    +0.034 HD
BRANCH  94  97
ATOM     97  C   UNL     1      -5.282  11.251  18.191  0.00  0.00    +0.139 C 
ATOM     98  O   UNL     1      -4.327  12.011  18.003  0.00  0.00    -0.297 OA
BRANCH  97  99
ATOM     99  C   UNL     1      -5.298   9.892  17.489  0.00  0.00    +0.041 C 
ATOM    100  H   UNL     1      -4.522   9.313  18.008  0.00  0.00    +0.040 HD
BRANCH  99 101
ATOM    101  C   UNL     1      -4.837   9.927  16.034  0.00  0.00    -0.053 C 
ATOM    102  H   UNL     1      -5.373  10.675  15.442  0.00  0.00    +0.024 HD
ATOM    103  H   UNL     1      -4.982   8.952  15.558  0.00  0.00    +0.024 HD
ATOM    104  H   UNL     1      -3.771  10.166  15.976  0.00  0.00    +0.024 HD
ENDBRANCH  99 101
BRANCH  99 105
ATOM    105  C   UNL     1      -6.650   9.177  17.706  0.00  0.00    +0.071 C 
ATOM    106  H   UNL     1      -7.347   9.844  18.232  0.00  0.00    +0.061 HD
BRANCH 105 107
ATOM    107  C   UNL     1      -7.315   8.714  16.391  0.00  0.00    -0.006 C 
ATOM    108  H   UNL     1      -6.625   8.839  15.552  0.00  0.00    +0.033 HD
ATOM    109  H   UNL     1      -7.569   7.650  16.456  0.00  0.00    +0.033 HD
BRANCH 107 110
ATOM    110  C   UNL     1      -8.557   9.503  16.050  0.00  0.00    -0.067 C 
ATOM    111  C   UNL     1      -8.945  10.587  16.740  0.00  0.00    -0.005 C 
ATOM    112  H   UNL     1      -9.141   9.125  15.217  0.00  0.00    +0.059 HD
ATOM    113  H   UNL     1      -8.324  10.935  17.564  0.00  0.00    +0.078 HD
BRANCH 111 114
ATOM    114  N   UNL     1     -10.089  11.333  16.503  0.00  0.00    -0.284 N 
ATOM    115  C   UNL     1     -10.441  11.697  15.207  0.00  0.00    +0.206 C 
ATOM    116  O   UNL     1     -11.421  12.351  14.871  0.00  0.00    -0.279 OA
ATOM    117  H   UNL     1      -9.721  11.332  14.452  0.00  0.00    +0.126 HD
BRANCH 114 118
ATOM    118  C   UNL     1     -10.962  11.756  17.589  0.00  0.00    +0.007 C 
ATOM    119  H   UNL     1     -10.406  11.748  18.532  0.00  0.00    +0.043 HD
ATOM    120  H   UNL     1     -11.346  12.768  17.432  0.00  0.00    +0.043 HD
ATOM    121  H   UNL     1     -11.814  11.071  17.649  0.00  0.00    +0.043 HD
ENDBRANCH 114 118
ENDBRANCH 111 114
ENDBRANCH 107 110
ENDBRANCH 105 107
BRANCH 105 122
ATOM    122  O   UNL     1      -6.430   7.991  18.496  0.00  0.00    -0.379 OA
BRANCH 122 123
ATOM    123  C   UNL     1      -7.189   7.968  19.699  0.00  0.00    +0.037 C 
ATOM    124  H   UNL     1      -8.247   8.037  19.436  0.00  0.00    +0.052 HD
ATOM    125  H   UNL     1      -6.933   8.824  20.329  0.00  0.00    +0.052 HD
ATOM    126  H   UNL     1      -7.029   7.036  20.248  0.00  0.00    +0.052 HD
ENDBRANCH 122 123
ENDBRANCH 105 122
ENDBRANCH  99 105
ENDBRANCH  97  99
ENDBRANCH  94  97
ENDBRANCH  91  94
ENDBRANCH  85  91
ENDBRANCH  83  85
BRANCH  83 127
ATOM    127  O   UNL     1      -8.589  15.129  19.686  0.00  0.00    -0.379 OA
BRANCH 127 128
ATOM    128  C   UNL     1      -9.245  15.311  20.937  0.00  0.00    +0.037 C 
ATOM    129  H   UNL     1      -9.718  16.297  20.986  0.00  0.00    +0.052 HD
ATOM    130  H   UNL     1      -8.488  15.246  21.723  0.00  0.00    +0.052 HD
ATOM    131  H   UNL     1      -9.989  14.527  21.102  0.00  0.00    +0.052 HD
ENDBRANCH 127 128
ENDBRANCH  83 127
ENDBRANCH  77  83
ENDBRANCH  25  77
BRANCH   9 132
ATOM    132  O   UNL     1       1.293  19.396  19.286  0.00  0.00    -0.384 OA
ATOM    133  H   UNL     1       0.444  19.095  19.652  0.00  0.00    +0.210 HD
ENDBRANCH   9 132
BRANCH  29 134
ATOM    134  O   UNL     1      -2.373  21.058  21.178  0.00  0.00    -0.376 OA
BRANCH 134 135
ATOM    135  C   UNL     1      -2.757  22.181  21.961  0.00  0.00    +0.037 C 
ATOM    136  H   UNL     1      -3.444  22.790  21.367  0.00  0.00    +0.052 HD
ATOM    137  H   UNL     1      -3.281  21.868  22.869  0.00  0.00    +0.052 HD
ATOM    138  H   UNL     1      -1.886  22.795  22.215  0.00  0.00    +0.052 HD
ENDBRANCH 134 135
ENDBRANCH  29 134
BRANCH   6 139
ATOM    139  O   UNL     1       4.300  21.148  16.388  0.00  0.00    -0.379 OA
BRANCH 139 140
ATOM    140  C   UNL     1       5.189  22.178  15.968  0.00  0.00    +0.037 C 
ATOM    141  H   UNL     1       6.050  21.712  15.482  0.00  0.00    +0.052 HD
ATOM    142  H   UNL     1       4.699  22.837  15.249  0.00  0.00    +0.052 HD
ATOM    143  H   UNL     1       5.543  22.760  16.823  0.00  0.00    +0.052 HD
ENDBRANCH 139 140
ENDBRANCH   6 139
BRANCH  16 144
ATOM    144  O   UNL     1       3.670  15.170  19.801  0.00  0.00    -0.379 OA
BRANCH 144 145
ATOM    145  C   UNL     1       4.452  14.122  20.358  0.00  0.00    +0.037 C 
ATOM    146  H   UNL     1       3.818  13.276  20.644  0.00  0.00    +0.052 HD
ATOM    147  H   UNL     1       4.943  14.505  21.258  0.00  0.00    +0.052 HD
ATOM    148  H   UNL     1       5.228  13.796  19.660  0.00  0.00    +0.052 HD
ENDBRANCH 144 145
ENDBRANCH  16 144
BRANCH   4 149
ATOM    149  O   UNL     1       2.302  23.931  17.062  0.00  0.00    -0.376 OA
BRANCH 149 150
ATOM    150  C   UNL     1       1.698  24.295  18.295  0.00  0.00    +0.037 C 
ATOM    151  H   UNL     1       2.403  24.185  19.124  0.00  0.00    +0.052 HD
ATOM    152  H   UNL     1       0.854  23.625  18.470  0.00  0.00    +0.052 HD
ATOM    153  H   UNL     1       1.318  25.319  18.258  0.00  0.00    +0.052 HD
ENDBRANCH 149 150
ENDBRANCH   4 149
TORSDOF 33
ENDMDL
MODEL 3
REMARK VINA RESULT:      -5.7      6.596     12.003
REMARK  Name = Sphinxolide B_conf1
REMARK  33 active torsions:
REMARK  status: ('A' for Active; 'I' for Inactive)
REMARK    1  A    between atoms: C_1  and  C_2
REMARK    2  A    between atoms: C_5  and  O_67
REMARK    3  A    between atoms: C_7  and  O_65
REMARK    4  A    between atoms: C_8  and  C_64
REMARK    5  A    between atoms: C_10  and  O_63
REMARK    6  A    between atoms: C_17  and  O_61
REMARK    7  A    between atoms: C_19  and  C_60
REMARK    8  A    between atoms: C_26  and  C_37
REMARK    9  A    between atoms: C_27  and  C_36
REMARK   10  A    between atoms: C_30  and  O_34
REMARK   11  A    between atoms: C_32  and  O_33
REMARK   12  A    between atoms: O_34  and  C_35
REMARK   13  A    between atoms: C_37  and  C_38
REMARK   14  A    between atoms: C_37  and  C_39
REMARK   15  A    between atoms: C_39  and  C_40
REMARK   16  A    between atoms: C_39  and  O_58
REMARK   17  A    between atoms: C_40  and  C_41
REMARK   18  A    between atoms: C_40  and  C_42
REMARK   19  A    between atoms: C_42  and  C_43
REMARK   20  A    between atoms: C_43  and  C_44
REMARK   21  A    between atoms: C_44  and  C_46
REMARK   22  A    between atoms: C_46  and  C_47
REMARK   23  A    between atoms: C_46  and  C_48
REMARK   24  A    between atoms: C_48  and  C_49
REMARK   25  A    between atoms: C_48  and  O_56
REMARK   26  A    between atoms: C_49  and  C_50
REMARK   27  A    between atoms: C_51  and  N_52
REMARK   28  A    between atoms: N_52  and  C_53
REMARK   29  A    between atoms: O_56  and  C_57
REMARK   30  A    between atoms: O_58  and  C_59
REMARK   31  A    between atoms: O_61  and  C_62
REMARK   32  A    between atoms: O_65  and  C_66
REMARK   33  A    between atoms: O_67  and  C_68
REMARK                            x       y       z     vdW  Elec       q    Type
REMARK                         _______ _______ _______ _____ _____    ______ ____
ROOT
ATOM      1  C   UNL     1      -2.370  22.459  17.033  0.00  0.00    +0.000 C 
ATOM      2  C   UNL     1      -0.860  22.321  17.020  0.00  0.00    -0.080 C 
ATOM      3  C   UNL     1       0.020  22.893  16.178  0.00  0.00    -0.059 C 
ATOM      4  C   UNL     1       1.533  22.717  16.168  0.00  0.00    +0.079 C 
ATOM      5  C   UNL     1       2.026  21.597  17.099  0.00  0.00    +0.004 C 
ATOM      6  C   UNL     1       3.550  21.392  17.117  0.00  0.00    +0.067 C 
ATOM      7  C   UNL     1       3.980  20.205  18.052  0.00  0.00    +0.022 C 
ATOM      8  C   UNL     1       3.528  20.427  19.537  0.00  0.00    +0.138 C 
ATOM      9  C   UNL     1       2.371  19.509  20.012  0.00  0.00    +0.114 C 
ATOM     10  C   UNL     1       2.892  18.113  20.250  0.00  0.00    -0.029 C 
ATOM     11  C   UNL     1       4.144  17.995  20.726  0.00  0.00    +0.024 C 
ATOM     12  C   UNL     1       4.998  19.160  21.023  0.00  0.00    +0.332 C 
ATOM     13  O   UNL     1       5.996  19.035  21.721  0.00  0.00    -0.246 OA
ATOM     14  O   UNL     1       4.629  20.346  20.481  0.00  0.00    -0.455 OA
ATOM     15  C   UNL     1       1.974  16.941  19.935  0.00  0.00    -0.002 C 
ATOM     16  C   UNL     1       2.469  15.507  20.244  0.00  0.00    +0.066 C 
ATOM     17  C   UNL     1       1.337  14.465  20.032  0.00  0.00    -0.005 C 
ATOM     18  C   UNL     1       0.698  14.439  18.651  0.00  0.00    -0.070 C 
ATOM     19  C   UNL     1      -0.541  14.871  18.346  0.00  0.00    -0.062 C 
ATOM     20  C   UNL     1      -1.501  15.484  19.239  0.00  0.00    -0.055 C 
ATOM     21  C   UNL     1      -2.690  15.927  18.805  0.00  0.00    +0.023 C 
ATOM     22  C   UNL     1      -3.631  16.574  19.741  0.00  0.00    +0.332 C 
ATOM     23  O   UNL     1      -3.495  16.633  20.953  0.00  0.00    -0.246 OA
ATOM     24  O   UNL     1      -4.634  17.096  18.999  0.00  0.00    -0.457 OA
ATOM     25  C   UNL     1      -5.703  17.816  19.679  0.00  0.00    +0.114 C 
ATOM     26  C   UNL     1      -5.724  19.259  19.081  0.00  0.00    +0.012 C 
ATOM     27  C   UNL     1      -4.335  19.882  19.214  0.00  0.00    -0.079 C 
ATOM     28  C   UNL     1      -3.952  20.920  19.976  0.00  0.00    -0.059 C 
ATOM     29  C   UNL     1      -2.536  21.430  20.026  0.00  0.00    +0.079 C 
ATOM     30  C   UNL     1      -2.396  22.910  19.624  0.00  0.00    +0.004 C 
ATOM     31  C   UNL     1      -2.871  23.326  18.221  0.00  0.00    +0.064 C 
ATOM     32  H   UNL     1      -2.777  21.447  17.144  0.00  0.00    +0.037 HD
ATOM     33  H   UNL     1      -0.475  21.659  17.794  0.00  0.00    +0.057 HD
ATOM     34  H   UNL     1      -0.351  23.553  15.398  0.00  0.00    +0.059 HD
ATOM     35  H   UNL     1       1.847  22.489  15.142  0.00  0.00    +0.064 HD
ATOM     36  H   UNL     1       1.704  21.837  18.117  0.00  0.00    +0.032 HD
ATOM     37  H   UNL     1       1.551  20.659  16.785  0.00  0.00    +0.032 HD
ATOM     38  H   UNL     1       4.039  22.312  17.467  0.00  0.00    +0.060 HD
ATOM     39  H   UNL     1       3.490  19.304  17.658  0.00  0.00    +0.036 HD
ATOM     40  H   UNL     1       3.175  21.461  19.635  0.00  0.00    +0.077 HD
ATOM     41  H   UNL     1       1.982  19.892  20.963  0.00  0.00    +0.068 HD
ATOM     42  H   UNL     1       4.608  17.041  20.954  0.00  0.00    +0.069 HD
ATOM     43  H   UNL     1       1.038  17.103  20.486  0.00  0.00    +0.034 HD
ATOM     44  H   UNL     1       1.750  17.001  18.863  0.00  0.00    +0.034 HD
ATOM     45  H   UNL     1       2.773  15.466  21.299  0.00  0.00    +0.060 HD
ATOM     46  H   UNL     1       0.578  14.634  20.803  0.00  0.00    +0.034 HD
ATOM     47  H   UNL     1       1.716  13.457  20.240  0.00  0.00    +0.034 HD
ATOM     48  H   UNL     1      -0.873  14.777  17.309  0.00  0.00    +0.062 HD
ATOM     49  H   UNL     1      -1.246  15.596  20.290  0.00  0.00    +0.062 HD
ATOM     50  H   UNL     1      -3.001  15.846  17.770  0.00  0.00    +0.069 HD
ATOM     51  H   UNL     1      -5.448  17.914  20.743  0.00  0.00    +0.074 HD
ATOM     52  H   UNL     1      -5.882  19.193  17.999  0.00  0.00    +0.038 HD
ATOM     53  H   UNL     1      -3.574  19.404  18.595  0.00  0.00    +0.057 HD
ATOM     54  H   UNL     1      -4.660  21.444  20.612  0.00  0.00    +0.059 HD
ATOM     55  H   UNL     1      -1.881  20.825  19.390  0.00  0.00    +0.064 HD
ATOM     56  H   UNL     1      -1.340  23.189  19.740  0.00  0.00    +0.032 HD
ATOM     57  H   UNL     1      -2.933  23.520  20.368  0.00  0.00    +0.032 HD
ATOM     58  H   UNL     1      -2.535  24.360  18.069  0.00  0.00    +0.060 HD
ENDROOT
BRANCH   1  59
ATOM     59  C   UNL     1      -2.946  22.976  15.702  0.00  0.00    -0.057 C 
ATOM     60  H   UNL     1      -3.597  23.843  15.861  0.00  0.00    +0.024 HD
ATOM     61  H   UNL     1      -2.143  23.302  15.030  0.00  0.00    +0.024 HD
ATOM     62  H   UNL     1      -3.524  22.204  15.185  0.00  0.00    +0.024 HD
ENDBRANCH   1  59
BRANCH  26  63
ATOM     63  C   UNL     1      -6.815  20.161  19.661  0.00  0.00    -0.056 C 
ATOM     64  H   UNL     1      -7.766  19.629  19.763  0.00  0.00    +0.024 HD
ATOM     65  H   UNL     1      -6.532  20.546  20.648  0.00  0.00    +0.024 HD
ATOM     66  H   UNL     1      -6.976  21.044  19.041  0.00  0.00    +0.024 HD
ENDBRANCH  26  63
BRANCH  18  67
ATOM     67  C   UNL     1       1.555  13.840  17.560  0.00  0.00    -0.043 C 
ATOM     68  H   UNL     1       2.617  13.963  17.790  0.00  0.00    +0.027 HD
ATOM     69  H   UNL     1       1.377  14.310  16.589  0.00  0.00    +0.027 HD
ATOM     70  H   UNL     1       1.339  12.772  17.443  0.00  0.00    +0.027 HD
ENDBRANCH  18  67
BRANCH   7  71
ATOM     71  C   UNL     1       5.489  19.948  17.912  0.00  0.00    -0.057 C 
ATOM     72  H   UNL     1       6.075  20.747  18.379  0.00  0.00    +0.023 HD
ATOM     73  H   UNL     1       5.777  18.994  18.360  0.00  0.00    +0.023 HD
ATOM     74  H   UNL     1       5.785  19.880  16.860  0.00  0.00    +0.023 HD
ENDBRANCH   7  71
BRANCH  31  75
ATOM     75  O   UNL     1      -4.304  23.376  18.234  0.00  0.00    -0.391 OA
ATOM     76  H   UNL     1      -4.577  23.786  19.071  0.00  0.00    +0.210 HD
ENDBRANCH  31  75
BRANCH  25  77
ATOM     77  C   UNL     1      -6.968  16.897  19.594  0.00  0.00    +0.020 C 
ATOM     78  H   UNL     1      -7.826  17.583  19.601  0.00  0.00    +0.036 HD
BRANCH  77  79
ATOM     79  C   UNL     1      -7.059  16.183  18.235  0.00  0.00    -0.057 C 
ATOM     80  H   UNL     1      -6.583  15.204  18.234  0.00  0.00    +0.023 HD
ATOM     81  H   UNL     1      -6.603  16.789  17.445  0.00  0.00    +0.023 HD
ATOM     82  H   UNL     1      -8.110  16.031  17.959  0.00  0.00    +0.023 HD
ENDBRANCH  77  79
BRANCH  77  83
ATOM     83  C   UNL     1      -7.217  15.889  20.766  0.00  0.00    +0.067 C 
ATOM     84  H   UNL     1      -6.831  14.911  20.439  0.00  0.00    +0.060 HD
BRANCH  83  85
ATOM     85  C   UNL     1      -8.728  15.676  21.106  0.00  0.00    -0.017 C 
ATOM     86  H   UNL     1      -8.863  15.614  22.184  0.00  0.00    +0.032 HD
BRANCH  85  87
ATOM     87  C   UNL     1      -9.542  16.892  20.637  0.00  0.00    -0.060 C 
ATOM     88  H   UNL     1      -9.764  17.555  21.477  0.00  0.00    +0.023 HD
ATOM     89  H   UNL     1      -8.993  17.483  19.897  0.00  0.00    +0.023 HD
ATOM     90  H   UNL     1     -10.491  16.585  20.187  0.00  0.00    +0.023 HD
ENDBRANCH  85  87
BRANCH  85  91
ATOM     91  C   UNL     1      -9.348  14.388  20.511  0.00  0.00    -0.041 C 
ATOM     92  H   UNL     1      -9.263  14.409  19.417  0.00  0.00    +0.027 HD
ATOM     93  H   UNL     1     -10.424  14.357  20.724  0.00  0.00    +0.027 HD
BRANCH  91  94
ATOM     94  C   UNL     1      -8.705  13.102  21.051  0.00  0.00    +0.007 C 
ATOM     95  H   UNL     1      -7.848  13.382  21.673  0.00  0.00    +0.034 HD
ATOM     96  H   UNL     1      -9.411  12.558  21.676  0.00  0.00    +0.034 HD
BRANCH  94  97
ATOM     97  C   UNL     1      -8.196  12.169  19.955  0.00  0.00    +0.139 C 
ATOM     98  O   UNL     1      -8.737  11.083  19.727  0.00  0.00    -0.297 OA
BRANCH  97  99
ATOM     99  C   UNL     1      -7.032  12.617  19.069  0.00  0.00    +0.041 C 
ATOM    100  H   UNL     1      -6.876  13.669  19.343  0.00  0.00    +0.040 HD
BRANCH  99 101
ATOM    101  C   UNL     1      -7.352  12.655  17.577  0.00  0.00    -0.053 C 
ATOM    102  H   UNL     1      -6.962  11.783  17.042  0.00  0.00    +0.024 HD
ATOM    103  H   UNL     1      -6.931  13.553  17.113  0.00  0.00    +0.024 HD
ATOM    104  H   UNL     1      -8.434  12.680  17.418  0.00  0.00    +0.024 HD
ENDBRANCH  99 101
BRANCH  99 105
ATOM    105  C   UNL     1      -5.744  11.839  19.419  0.00  0.00    +0.071 C 
ATOM    106  H   UNL     1      -5.878  11.298  20.366  0.00  0.00    +0.061 HD
BRANCH 105 107
ATOM    107  C   UNL     1      -5.328  10.826  18.331  0.00  0.00    -0.006 C 
ATOM    108  H   UNL     1      -5.647  11.173  17.345  0.00  0.00    +0.033 HD
ATOM    109  H   UNL     1      -4.235  10.728  18.310  0.00  0.00    +0.033 HD
BRANCH 107 110
ATOM    110  C   UNL     1      -5.945   9.462  18.530  0.00  0.00    -0.067 C 
ATOM    111  C   UNL     1      -6.794   8.910  17.647  0.00  0.00    -0.005 C 
ATOM    112  H   UNL     1      -5.680   8.953  19.451  0.00  0.00    +0.059 HD
ATOM    113  H   UNL     1      -7.026   9.453  16.733  0.00  0.00    +0.078 HD
BRANCH 111 114
ATOM    114  N   UNL     1      -7.423   7.682  17.785  0.00  0.00    -0.284 N 
ATOM    115  C   UNL     1      -7.611   6.857  16.681  0.00  0.00    +0.206 C 
ATOM    116  O   UNL     1      -8.150   5.756  16.674  0.00  0.00    -0.279 OA
ATOM    117  H   UNL     1      -7.217   7.297  15.747  0.00  0.00    +0.126 HD
BRANCH 114 118
ATOM    118  C   UNL     1      -7.901   7.211  19.077  0.00  0.00    +0.007 C 
ATOM    119  H   UNL     1      -8.893   7.630  19.277  0.00  0.00    +0.043 HD
ATOM    120  H   UNL     1      -7.982   6.121  19.108  0.00  0.00    +0.043 HD
ATOM    121  H   UNL     1      -7.196   7.525  19.854  0.00  0.00    +0.043 HD
ENDBRANCH 114 118
ENDBRANCH 111 114
ENDBRANCH 107 110
ENDBRANCH 105 107
BRANCH 105 122
ATOM    122  O   UNL     1      -4.654  12.775  19.550  0.00  0.00    -0.379 OA
BRANCH 122 123
ATOM    123  C   UNL     1      -4.446  13.211  20.888  0.00  0.00    +0.037 C 
ATOM    124  H   UNL     1      -4.382  14.302  20.885  0.00  0.00    +0.052 HD
ATOM    125  H   UNL     1      -3.505  12.811  21.277  0.00  0.00    +0.052 HD
ATOM    126  H   UNL     1      -5.276  12.914  21.533  0.00  0.00    +0.052 HD
ENDBRANCH 122 123
ENDBRANCH 105 122
ENDBRANCH  99 105
ENDBRANCH  97  99
ENDBRANCH  94  97
ENDBRANCH  91  94
ENDBRANCH  85  91
ENDBRANCH  83  85
BRANCH  83 127
ATOM    127  O   UNL     1      -6.488  16.308  21.918  0.00  0.00    -0.379 OA
BRANCH 127 128
ATOM    128  C   UNL     1      -6.655  15.454  23.047  0.00  0.00    +0.037 C 
ATOM    129  H   UNL     1      -6.776  14.414  22.731  0.00  0.00    +0.052 HD
ATOM    130  H   UNL     1      -7.561  15.769  23.572  0.00  0.00    +0.052 HD
ATOM    131  H   UNL     1      -5.805  15.545  23.730  0.00  0.00    +0.052 HD
ENDBRANCH 127 128
ENDBRANCH  83 127
ENDBRANCH  77  83
ENDBRANCH  25  77
BRANCH   9 132
ATOM    132  O   UNL     1       1.299  19.507  19.082  0.00  0.00    -0.384 OA
ATOM    133  H   UNL     1       1.501  20.172  18.403  0.00  0.00    +0.210 HD
ENDBRANCH   9 132
BRANCH  29 134
ATOM    134  O   UNL     1      -2.047  21.331  21.375  0.00  0.00    -0.376 OA
BRANCH 134 135
ATOM    135  C   UNL     1      -2.946  21.836  22.354  0.00  0.00    +0.037 C 
ATOM    136  H   UNL     1      -2.414  21.887  23.308  0.00  0.00    +0.052 HD
ATOM    137  H   UNL     1      -3.281  22.846  22.099  0.00  0.00    +0.052 HD
ATOM    138  H   UNL     1      -3.806  21.168  22.475  0.00  0.00    +0.052 HD
ENDBRANCH 134 135
ENDBRANCH  29 134
BRANCH   6 139
ATOM    139  O   UNL     1       3.953  21.086  15.769  0.00  0.00    -0.379 OA
BRANCH 139 140
ATOM    140  C   UNL     1       4.897  22.016  15.248  0.00  0.00    +0.037 C 
ATOM    141  H   UNL     1       5.617  21.466  14.635  0.00  0.00    +0.052 HD
ATOM    142  H   UNL     1       4.398  22.756  14.618  0.00  0.00    +0.052 HD
ATOM    143  H   UNL     1       5.437  22.518  16.055  0.00  0.00    +0.052 HD
ENDBRANCH 139 140
ENDBRANCH   6 139
BRANCH  16 144
ATOM    144  O   UNL     1       3.610  15.227  19.421  0.00  0.00    -0.379 OA
BRANCH 144 145
ATOM    145  C   UNL     1       4.461  14.212  19.936  0.00  0.00    +0.037 C 
ATOM    146  H   UNL     1       5.374  14.649  20.356  0.00  0.00    +0.052 HD
ATOM    147  H   UNL     1       4.743  13.552  19.109  0.00  0.00    +0.052 HD
ATOM    148  H   UNL     1       3.947  13.611  20.691  0.00  0.00    +0.052 HD
ENDBRANCH 144 145
ENDBRANCH  16 144
BRANCH   4 149
ATOM    149  O   UNL     1       2.133  23.946  16.605  0.00  0.00    -0.376 OA
BRANCH 149 150
ATOM    150  C   UNL     1       1.778  24.312  17.932  0.00  0.00    +0.037 C 
ATOM    151  H   UNL     1       2.315  25.212  18.246  0.00  0.00    +0.052 HD
ATOM    152  H   UNL     1       2.060  23.493  18.596  0.00  0.00    +0.052 HD
ATOM    153  H   UNL     1       0.700  24.467  18.020  0.00  0.00    +0.052 HD
ENDBRANCH 149 150
ENDBRANCH   4 149
TORSDOF 33
ENDMDL
MODEL 4
REMARK VINA RESULT:      -5.5      1.694      3.547
REMARK  Name = Sphinxolide B_conf1
REMARK  33 active torsions:
REMARK  status: ('A' for Active; 'I' for Inactive)
REMARK    1  A    between atoms: C_1  and  C_2
REMARK    2  A    between atoms: C_5  and  O_67
REMARK    3  A    between atoms: C_7  and  O_65
REMARK    4  A    between atoms: C_8  and  C_64
REMARK    5  A    between atoms: C_10  and  O_63
REMARK    6  A    between atoms: C_17  and  O_61
REMARK    7  A    between atoms: C_19  and  C_60
REMARK    8  A    between atoms: C_26  and  C_37
REMARK    9  A    between atoms: C_27  and  C_36
REMARK   10  A    between atoms: C_30  and  O_34
REMARK   11  A    between atoms: C_32  and  O_33
REMARK   12  A    between atoms: O_34  and  C_35
REMARK   13  A    between atoms: C_37  and  C_38
REMARK   14  A    between atoms: C_37  and  C_39
REMARK   15  A    between atoms: C_39  and  C_40
REMARK   16  A    between atoms: C_39  and  O_58
REMARK   17  A    between atoms: C_40  and  C_41
REMARK   18  A    between atoms: C_40  and  C_42
REMARK   19  A    between atoms: C_42  and  C_43
REMARK   20  A    between atoms: C_43  and  C_44
REMARK   21  A    between atoms: C_44  and  C_46
REMARK   22  A    between atoms: C_46  and  C_47
REMARK   23  A    between atoms: C_46  and  C_48
REMARK   24  A    between atoms: C_48  and  C_49
REMARK   25  A    between atoms: C_48  and  O_56
REMARK   26  A    between atoms: C_49  and  C_50
REMARK   27  A    between atoms: C_51  and  N_52
REMARK   28  A    between atoms: N_52  and  C_53
REMARK   29  A    between atoms: O_56  and  C_57
REMARK   30  A    between atoms: O_58  and  C_59
REMARK   31  A    between atoms: O_61  and  C_62
REMARK   32  A    between atoms: O_65  and  C_66
REMARK   33  A    between atoms: O_67  and  C_68
REMARK                            x       y       z     vdW  Elec       q    Type
REMARK                         _______ _______ _______ _____ _____    ______ ____
ROOT
ATOM      1  C   UNL     1     -11.878  14.651  22.530  0.00  0.00    +0.000 C 
ATOM      2  C   UNL     1     -10.921  15.129  21.455  0.00  0.00    -0.080 C 
ATOM      3  C   UNL     1     -11.072  16.165  20.609  0.00  0.00    -0.059 C 
ATOM      4  C   UNL     1     -10.109  16.610  19.517  0.00  0.00    +0.079 C 
ATOM      5  C   UNL     1      -8.968  15.609  19.260  0.00  0.00    +0.004 C 
ATOM      6  C   UNL     1      -7.974  16.027  18.164  0.00  0.00    +0.067 C 
ATOM      7  C   UNL     1      -6.864  14.942  17.923  0.00  0.00    +0.022 C 
ATOM      8  C   UNL     1      -6.028  14.651  19.218  0.00  0.00    +0.138 C 
ATOM      9  C   UNL     1      -6.301  13.273  19.876  0.00  0.00    +0.114 C 
ATOM     10  C   UNL     1      -5.649  12.181  19.062  0.00  0.00    -0.029 C 
ATOM     11  C   UNL     1      -4.481  12.473  18.462  0.00  0.00    +0.024 C 
ATOM     12  C   UNL     1      -3.831  13.791  18.580  0.00  0.00    +0.332 C 
ATOM     13  O   UNL     1      -2.652  13.930  18.280  0.00  0.00    -0.246 OA
ATOM     14  O   UNL     1      -4.600  14.818  19.017  0.00  0.00    -0.455 OA
ATOM     15  C   UNL     1      -6.353  10.835  18.972  0.00  0.00    -0.002 C 
ATOM     16  C   UNL     1      -5.659   9.685  18.202  0.00  0.00    +0.066 C 
ATOM     17  C   UNL     1      -6.432   8.349  18.374  0.00  0.00    -0.005 C 
ATOM     18  C   UNL     1      -7.895   8.360  17.957  0.00  0.00    -0.070 C 
ATOM     19  C   UNL     1      -8.954   8.318  18.788  0.00  0.00    -0.062 C 
ATOM     20  C   UNL     1      -8.933   8.300  20.236  0.00  0.00    -0.055 C 
ATOM     21  C   UNL     1     -10.061   8.315  20.961  0.00  0.00    +0.023 C 
ATOM     22  C   UNL     1      -9.999   8.325  22.435  0.00  0.00    +0.332 C 
ATOM     23  O   UNL     1      -8.986   8.178  23.102  0.00  0.00    -0.246 OA
ATOM     24  O   UNL     1     -11.255   8.549  22.885  0.00  0.00    -0.457 OA
ATOM     25  C   UNL     1     -11.477   8.627  24.323  0.00  0.00    +0.114 C 
ATOM     26  C   UNL     1     -12.095  10.033  24.606  0.00  0.00    +0.012 C 
ATOM     27  C   UNL     1     -11.180  11.113  24.032  0.00  0.00    -0.079 C 
ATOM     28  C   UNL     1     -10.455  12.034  24.690  0.00  0.00    -0.059 C 
ATOM     29  C   UNL     1      -9.575  13.041  23.998  0.00  0.00    +0.079 C 
ATOM     30  C   UNL     1      -9.944  14.504  24.308  0.00  0.00    +0.004 C 
ATOM     31  C   UNL     1     -11.366  14.980  23.960  0.00  0.00    +0.064 C 
ATOM     32  H   UNL     1     -11.947  13.562  22.427  0.00  0.00    +0.037 HD
ATOM     33  H   UNL     1     -10.017  14.528  21.375  0.00  0.00    +0.057 HD
ATOM     34  H   UNL     1     -11.973  16.771  20.675  0.00  0.00    +0.059 HD
ATOM     35  H   UNL     1     -10.678  16.744  18.589  0.00  0.00    +0.064 HD
ATOM     36  H   UNL     1      -8.413  15.484  20.194  0.00  0.00    +0.032 HD
ATOM     37  H   UNL     1      -9.416  14.649  18.978  0.00  0.00    +0.032 HD
ATOM     38  H   UNL     1      -7.488  16.970  18.451  0.00  0.00    +0.060 HD
ATOM     39  H   UNL     1      -7.386  14.023  17.619  0.00  0.00    +0.036 HD
ATOM     40  H   UNL     1      -6.278  15.415  19.964  0.00  0.00    +0.077 HD
ATOM     41  H   UNL     1      -5.852  13.262  20.876  0.00  0.00    +0.068 HD
ATOM     42  H   UNL     1      -3.918  11.757  17.873  0.00  0.00    +0.069 HD
ATOM     43  H   UNL     1      -6.534  10.494  20.000  0.00  0.00    +0.034 HD
ATOM     44  H   UNL     1      -7.325  11.023  18.501  0.00  0.00    +0.034 HD
ATOM     45  H   UNL     1      -4.651   9.549  18.618  0.00  0.00    +0.060 HD
ATOM     46  H   UNL     1      -6.333   8.038  19.420  0.00  0.00    +0.034 HD
ATOM     47  H   UNL     1      -5.932   7.555  17.807  0.00  0.00    +0.034 HD
ATOM     48  H   UNL     1      -9.952   8.319  18.344  0.00  0.00    +0.062 HD
ATOM     49  H   UNL     1      -7.975   8.282  20.748  0.00  0.00    +0.062 HD
ATOM     50  H   UNL     1     -11.047   8.335  20.508  0.00  0.00    +0.069 HD
ATOM     51  H   UNL     1     -10.507   8.593  24.838  0.00  0.00    +0.074 HD
ATOM     52  H   UNL     1     -13.021  10.137  24.031  0.00  0.00    +0.038 HD
ATOM     53  H   UNL     1     -11.128  11.117  22.942  0.00  0.00    +0.057 HD
ATOM     54  H   UNL     1     -10.464  12.090  25.775  0.00  0.00    +0.059 HD
ATOM     55  H   UNL     1      -9.591  12.893  22.913  0.00  0.00    +0.064 HD
ATOM     56  H   UNL     1      -9.217  15.148  23.795  0.00  0.00    +0.032 HD
ATOM     57  H   UNL     1      -9.771  14.681  25.382  0.00  0.00    +0.032 HD
ATOM     58  H   UNL     1     -11.374  16.069  24.095  0.00  0.00    +0.060 HD
ENDROOT
BRANCH   1  59
ATOM     59  C   UNL     1     -13.316  15.163  22.337  0.00  0.00    -0.057 C 
ATOM     60  H   UNL     1     -14.046  14.352  22.454  0.00  0.00    +0.024 HD
ATOM     61  H   UNL     1     -13.565  15.922  23.088  0.00  0.00    +0.024 HD
ATOM     62  H   UNL     1     -13.457  15.609  21.347  0.00  0.00    +0.024 HD
ENDBRANCH   1  59
BRANCH  26  63
ATOM     63  C   UNL     1     -12.427  10.286  26.078  0.00  0.00    -0.056 C 
ATOM     64  H   UNL     1     -12.085   9.465  26.716  0.00  0.00    +0.024 HD
ATOM     65  H   UNL     1     -11.963  11.213  26.438  0.00  0.00    +0.024 HD
ATOM     66  H   UNL     1     -13.498  10.421  26.230  0.00  0.00    +0.024 HD
ENDBRANCH  26  63
BRANCH  18  67
ATOM     67  C   UNL     1      -8.135   8.392  16.465  0.00  0.00    -0.043 C 
ATOM     68  H   UNL     1      -8.604   9.334  16.168  0.00  0.00    +0.027 HD
ATOM     69  H   UNL     1      -8.793   7.583  16.134  0.00  0.00    +0.027 HD
ATOM     70  H   UNL     1      -7.190   8.279  15.920  0.00  0.00    +0.027 HD
ENDBRANCH  18  67
BRANCH   7  71
ATOM     71  C   UNL     1      -5.995  15.339  16.719  0.00  0.00    -0.057 C 
ATOM     72  H   UNL     1      -5.085  15.858  17.039  0.00  0.00    +0.023 HD
ATOM     73  H   UNL     1      -5.712  14.468  16.123  0.00  0.00    +0.023 HD
ATOM     74  H   UNL     1      -6.540  15.998  16.035  0.00  0.00    +0.023 HD
ENDBRANCH   7  71
BRANCH  31  75
ATOM     75  O   UNL     1     -12.263  14.454  24.946  0.00  0.00    -0.391 OA
ATOM     76  H   UNL     1     -12.821  13.788  24.513  0.00  0.00    +0.210 HD
ENDBRANCH  31  75
BRANCH  25  77
ATOM     77  C   UNL     1     -12.248   7.322  24.715  0.00  0.00    +0.020 C 
ATOM     78  H   UNL     1     -13.182   7.664  25.181  0.00  0.00    +0.036 HD
BRANCH  77  79
ATOM     79  C   UNL     1     -12.705   6.539  23.472  0.00  0.00    -0.057 C 
ATOM     80  H   UNL     1     -12.880   7.176  22.607  0.00  0.00    +0.023 HD
ATOM     81  H   UNL     1     -13.623   5.979  23.679  0.00  0.00    +0.023 HD
ATOM     82  H   UNL     1     -11.939   5.808  23.185  0.00  0.00    +0.023 HD
ENDBRANCH  77  79
BRANCH  77  83
ATOM     83  C   UNL     1     -11.577   6.363  25.756  0.00  0.00    +0.067 C 
ATOM     84  H   UNL     1     -12.225   5.477  25.844  0.00  0.00    +0.060 HD
BRANCH  83  85
ATOM     85  C   UNL     1     -11.463   6.971  27.192  0.00  0.00    -0.017 C 
ATOM     86  H   UNL     1     -12.188   7.773  27.317  0.00  0.00    +0.032 HD
BRANCH  85  87
ATOM     87  C   UNL     1     -11.819   5.901  28.238  0.00  0.00    -0.060 C 
ATOM     88  H   UNL     1     -11.698   4.899  27.821  0.00  0.00    +0.023 HD
ATOM     89  H   UNL     1     -11.169   5.966  29.116  0.00  0.00    +0.023 HD
ATOM     90  H   UNL     1     -12.855   6.006  28.575  0.00  0.00    +0.023 HD
ENDBRANCH  85  87
BRANCH  85  91
ATOM     91  C   UNL     1     -10.078   7.572  27.530  0.00  0.00    -0.041 C 
ATOM     92  H   UNL     1      -9.584   7.905  26.609  0.00  0.00    +0.027 HD
ATOM     93  H   UNL     1      -9.425   6.797  27.953  0.00  0.00    +0.027 HD
BRANCH  91  94
ATOM     94  C   UNL     1     -10.152   8.741  28.523  0.00  0.00    +0.007 C 
ATOM     95  H   UNL     1     -11.035   9.343  28.279  0.00  0.00    +0.034 HD
ATOM     96  H   UNL     1     -10.269   8.370  29.540  0.00  0.00    +0.034 HD
BRANCH  94  97
ATOM     97  C   UNL     1      -8.936   9.663  28.472  0.00  0.00    +0.139 C 
ATOM     98  O   UNL     1      -8.246   9.767  27.453  0.00  0.00    -0.297 OA
BRANCH  97  99
ATOM     99  C   UNL     1      -8.603  10.533  29.685  0.00  0.00    +0.041 C 
ATOM    100  H   UNL     1      -7.577  10.879  29.494  0.00  0.00    +0.040 HD
BRANCH  99 101
ATOM    101  C   UNL     1      -8.507   9.770  31.004  0.00  0.00    -0.053 C 
ATOM    102  H   UNL     1      -9.418   9.855  31.604  0.00  0.00    +0.024 HD
ATOM    103  H   UNL     1      -7.670  10.139  31.605  0.00  0.00    +0.024 HD
ATOM    104  H   UNL     1      -8.335   8.705  30.818  0.00  0.00    +0.024 HD
ENDBRANCH  99 101
BRANCH  99 105
ATOM    105  C   UNL     1      -9.520  11.776  29.739  0.00  0.00    +0.071 C 
ATOM    106  H   UNL     1      -8.960  12.639  30.124  0.00  0.00    +0.061 HD
BRANCH 105 107
ATOM    107  C   UNL     1     -10.117  12.154  28.366  0.00  0.00    -0.006 C 
ATOM    108  H   UNL     1      -9.750  11.475  27.592  0.00  0.00    +0.033 HD
ATOM    109  H   UNL     1     -11.209  12.063  28.396  0.00  0.00    +0.033 HD
BRANCH 107 110
ATOM    110  C   UNL     1      -9.745  13.551  27.927  0.00  0.00    -0.067 C 
ATOM    111  C   UNL     1     -10.569  14.602  28.067  0.00  0.00    -0.005 C 
ATOM    112  H   UNL     1      -8.770  13.656  27.463  0.00  0.00    +0.059 HD
ATOM    113  H   UNL     1     -11.535  14.452  28.545  0.00  0.00    +0.078 HD
BRANCH 111 114
ATOM    114  N   UNL     1     -10.305  15.899  27.654  0.00  0.00    -0.284 N 
ATOM    115  C   UNL     1      -9.008  16.290  27.336  0.00  0.00    +0.206 C 
ATOM    116  O   UNL     1      -8.651  17.402  26.962  0.00  0.00    -0.279 OA
ATOM    117  H   UNL     1      -8.275  15.474  27.457  0.00  0.00    +0.126 HD
BRANCH 114 118
ATOM    118  C   UNL     1     -11.364  16.891  27.534  0.00  0.00    +0.007 C 
ATOM    119  H   UNL     1     -10.930  17.896  27.534  0.00  0.00    +0.043 HD
ATOM    120  H   UNL     1     -11.932  16.769  26.607  0.00  0.00    +0.043 HD
ATOM    121  H   UNL     1     -12.055  16.780  28.377  0.00  0.00    +0.043 HD
ENDBRANCH 114 118
ENDBRANCH 111 114
ENDBRANCH 107 110
ENDBRANCH 105 107
BRANCH 105 122
ATOM    122  O   UNL     1     -10.634  11.497  30.611  0.00  0.00    -0.379 OA
BRANCH 122 123
ATOM    123  C   UNL     1     -11.030  12.617  31.393  0.00  0.00    +0.037 C 
ATOM    124  H   UNL     1     -11.460  12.246  32.326  0.00  0.00    +0.052 HD
ATOM    125  H   UNL     1     -11.794  13.198  30.868  0.00  0.00    +0.052 HD
ATOM    126  H   UNL     1     -10.174  13.252  31.633  0.00  0.00    +0.052 HD
ENDBRANCH 122 123
ENDBRANCH 105 122
ENDBRANCH  99 105
ENDBRANCH  97  99
ENDBRANCH  94  97
ENDBRANCH  91  94
ENDBRANCH  85  91
ENDBRANCH  83  85
BRANCH  83 127
ATOM    127  O   UNL     1     -10.300   5.952  25.272  0.00  0.00    -0.379 OA
BRANCH 127 128
ATOM    128  C   UNL     1     -10.120   4.538  25.252  0.00  0.00    +0.037 C 
ATOM    129  H   UNL     1      -9.323   4.241  25.941  0.00  0.00    +0.052 HD
ATOM    130  H   UNL     1      -9.831   4.253  24.237  0.00  0.00    +0.052 HD
ATOM    131  H   UNL     1     -11.051   4.026  25.509  0.00  0.00    +0.052 HD
ENDBRANCH 127 128
ENDBRANCH  83 127
ENDBRANCH  77  83
ENDBRANCH  25  77
BRANCH   9 132
ATOM    132  O   UNL     1      -7.691  13.040  20.029  0.00  0.00    -0.384 OA
ATOM    133  H   UNL     1      -7.800  12.134  20.366  0.00  0.00    +0.210 HD
ENDBRANCH   9 132
BRANCH  29 134
ATOM    134  O   UNL     1      -8.219  12.866  24.441  0.00  0.00    -0.376 OA
BRANCH 134 135
ATOM    135  C   UNL     1      -7.439  14.054  24.399  0.00  0.00    +0.037 C 
ATOM    136  H   UNL     1      -7.980  14.835  24.940  0.00  0.00    +0.052 HD
ATOM    137  H   UNL     1      -6.472  13.910  24.890  0.00  0.00    +0.052 HD
ATOM    138  H   UNL     1      -7.295  14.390  23.366  0.00  0.00    +0.052 HD
ENDBRANCH 134 135
ENDBRANCH  29 134
BRANCH   6 139
ATOM    139  O   UNL     1      -8.727  16.194  16.948  0.00  0.00    -0.379 OA
BRANCH 139 140
ATOM    140  C   UNL     1      -9.523  15.058  16.629  0.00  0.00    +0.037 C 
ATOM    141  H   UNL     1      -9.890  14.622  17.563  0.00  0.00    +0.052 HD
ATOM    142  H   UNL     1     -10.382  15.351  16.021  0.00  0.00    +0.052 HD
ATOM    143  H   UNL     1      -8.934  14.304  16.100  0.00  0.00    +0.052 HD
ENDBRANCH 139 140
ENDBRANCH   6 139
BRANCH  16 144
ATOM    144  O   UNL     1      -5.546  10.059  16.822  0.00  0.00    -0.379 OA
BRANCH 144 145
ATOM    145  C   UNL     1      -4.547   9.342  16.108  0.00  0.00    +0.037 C 
ATOM    146  H   UNL     1      -4.992   8.781  15.280  0.00  0.00    +0.052 HD
ATOM    147  H   UNL     1      -4.081   8.630  16.797  0.00  0.00    +0.052 HD
ATOM    148  H   UNL     1      -3.770  10.015  15.736  0.00  0.00    +0.052 HD
ENDBRANCH 144 145
ENDBRANCH  16 144
BRANCH   4 149
ATOM    149  O   UNL     1      -9.517  17.855  19.917  0.00  0.00    -0.376 OA
BRANCH 149 150
ATOM    150  C   UNL     1     -10.052  18.983  19.239  0.00  0.00    +0.037 C 
ATOM    151  H   UNL     1     -10.946  19.358  19.747  0.00  0.00    +0.052 HD
ATOM    152  H   UNL     1     -10.333  18.671  18.231  0.00  0.00    +0.052 HD
ATOM    153  H   UNL     1      -9.307  19.779  19.153  0.00  0.00    +0.052 HD
ENDBRANCH 149 150
ENDBRANCH   4 149
TORSDOF 33
ENDMDL
MODEL 5
REMARK VINA RESULT:      -5.4      4.502     11.714
REMARK  Name = Sphinxolide B_conf1
REMARK  33 active torsions:
REMARK  status: ('A' for Active; 'I' for Inactive)
REMARK    1  A    between atoms: C_1  and  C_2
REMARK    2  A    between atoms: C_5  and  O_67
REMARK    3  A    between atoms: C_7  and  O_65
REMARK    4  A    between atoms: C_8  and  C_64
REMARK    5  A    between atoms: C_10  and  O_63
REMARK    6  A    between atoms: C_17  and  O_61
REMARK    7  A    between atoms: C_19  and  C_60
REMARK    8  A    between atoms: C_26  and  C_37
REMARK    9  A    between atoms: C_27  and  C_36
REMARK   10  A    between atoms: C_30  and  O_34
REMARK   11  A    between atoms: C_32  and  O_33
REMARK   12  A    between atoms: O_34  and  C_35
REMARK   13  A    between atoms: C_37  and  C_38
REMARK   14  A    between atoms: C_37  and  C_39
REMARK   15  A    between atoms: C_39  and  C_40
REMARK   16  A    between atoms: C_39  and  O_58
REMARK   17  A    between atoms: C_40  and  C_41
REMARK   18  A    between atoms: C_40  and  C_42
REMARK   19  A    between atoms: C_42  and  C_43
REMARK   20  A    between atoms: C_43  and  C_44
REMARK   21  A    between atoms: C_44  and  C_46
REMARK   22  A    between atoms: C_46  and  C_47
REMARK   23  A    between atoms: C_46  and  C_48
REMARK   24  A    between atoms: C_48  and  C_49
REMARK   25  A    between atoms: C_48  and  O_56
REMARK   26  A    between atoms: C_49  and  C_50
REMARK   27  A    between atoms: C_51  and  N_52
REMARK   28  A    between atoms: N_52  and  C_53
REMARK   29  A    between atoms: O_56  and  C_57
REMARK   30  A    between atoms: O_58  and  C_59
REMARK   31  A    between atoms: O_61  and  C_62
REMARK   32  A    between atoms: O_65  and  C_66
REMARK   33  A    between atoms: O_67  and  C_68
REMARK                            x       y       z     vdW  Elec       q    Type
REMARK                         _______ _______ _______ _____ _____    ______ ____
ROOT
ATOM      1  C   UNL     1      -9.314  12.806  25.062  0.00  0.00    +0.000 C 
ATOM      2  C   UNL     1     -10.160  11.650  24.565  0.00  0.00    -0.080 C 
ATOM      3  C   UNL     1     -10.728  10.666  25.286  0.00  0.00    -0.059 C 
ATOM      4  C   UNL     1     -11.552   9.498  24.759  0.00  0.00    +0.079 C 
ATOM      5  C   UNL     1     -11.518   9.363  23.227  0.00  0.00    +0.004 C 
ATOM      6  C   UNL     1     -12.341   8.195  22.660  0.00  0.00    +0.067 C 
ATOM      7  C   UNL     1     -12.225   8.089  21.097  0.00  0.00    +0.022 C 
ATOM      8  C   UNL     1     -12.717   9.393  20.377  0.00  0.00    +0.138 C 
ATOM      9  C   UNL     1     -11.593  10.251  19.740  0.00  0.00    +0.114 C 
ATOM     10  C   UNL     1     -11.101   9.592  18.475  0.00  0.00    -0.029 C 
ATOM     11  C   UNL     1     -12.006   8.928  17.733  0.00  0.00    +0.024 C 
ATOM     12  C   UNL     1     -13.430   8.836  18.106  0.00  0.00    +0.332 C 
ATOM     13  O   UNL     1     -14.266   8.492  17.280  0.00  0.00    -0.246 OA
ATOM     14  O   UNL     1     -13.750   9.136  19.388  0.00  0.00    -0.455 OA
ATOM     15  C   UNL     1      -9.625   9.717  18.127  0.00  0.00    -0.002 C 
ATOM     16  C   UNL     1      -9.122   9.107  16.796  0.00  0.00    +0.066 C 
ATOM     17  C   UNL     1      -7.642   9.491  16.526  0.00  0.00    -0.005 C 
ATOM     18  C   UNL     1      -6.641   9.111  17.609  0.00  0.00    -0.070 C 
ATOM     19  C   UNL     1      -6.024   9.964  18.448  0.00  0.00    -0.062 C 
ATOM     20  C   UNL     1      -6.206  11.398  18.533  0.00  0.00    -0.055 C 
ATOM     21  C   UNL     1      -5.572  12.139  19.454  0.00  0.00    +0.023 C 
ATOM     22  C   UNL     1      -5.806  13.594  19.528  0.00  0.00    +0.332 C 
ATOM     23  O   UNL     1      -6.442  14.251  18.718  0.00  0.00    -0.246 OA
ATOM     24  O   UNL     1      -5.209  14.035  20.659  0.00  0.00    -0.457 OA
ATOM     25  C   UNL     1      -5.304  15.452  20.990  0.00  0.00    +0.114 C 
ATOM     26  C   UNL     1      -5.986  15.540  22.392  0.00  0.00    +0.012 C 
ATOM     27  C   UNL     1      -7.317  14.793  22.355  0.00  0.00    -0.079 C 
ATOM     28  C   UNL     1      -8.561  15.292  22.457  0.00  0.00    -0.059 C 
ATOM     29  C   UNL     1      -9.801  14.439  22.390  0.00  0.00    +0.079 C 
ATOM     30  C   UNL     1     -10.691  14.541  23.643  0.00  0.00    +0.004 C 
ATOM     31  C   UNL     1     -10.074  14.160  25.000  0.00  0.00    +0.064 C 
ATOM     32  H   UNL     1      -8.442  12.865  24.400  0.00  0.00    +0.037 HD
ATOM     33  H   UNL     1     -10.292  11.638  23.485  0.00  0.00    +0.057 HD
ATOM     34  H   UNL     1     -10.600  10.663  26.365  0.00  0.00    +0.059 HD
ATOM     35  H   UNL     1     -11.164   8.573  25.205  0.00  0.00    +0.064 HD
ATOM     36  H   UNL     1     -11.904  10.292  22.798  0.00  0.00    +0.032 HD
ATOM     37  H   UNL     1     -10.472   9.235  22.921  0.00  0.00    +0.032 HD
ATOM     38  H   UNL     1     -13.398   8.329  22.927  0.00  0.00    +0.060 HD
ATOM     39  H   UNL     1     -11.160   7.936  20.872  0.00  0.00    +0.036 HD
ATOM     40  H   UNL     1     -13.218  10.025  21.120  0.00  0.00    +0.077 HD
ATOM     41  H   UNL     1     -12.004  11.232  19.472  0.00  0.00    +0.068 HD
ATOM     42  H   UNL     1     -11.766   8.437  16.796  0.00  0.00    +0.069 HD
ATOM     43  H   UNL     1      -9.381  10.787  18.123  0.00  0.00    +0.034 HD
ATOM     44  H   UNL     1      -9.071   9.246  18.948  0.00  0.00    +0.034 HD
ATOM     45  H   UNL     1      -9.732   9.514  15.977  0.00  0.00    +0.060 HD
ATOM     46  H   UNL     1      -7.606  10.569  16.332  0.00  0.00    +0.034 HD
ATOM     47  H   UNL     1      -7.304   9.035  15.589  0.00  0.00    +0.034 HD
ATOM     48  H   UNL     1      -5.317   9.547  19.169  0.00  0.00    +0.062 HD
ATOM     49  H   UNL     1      -6.883  11.885  17.837  0.00  0.00    +0.062 HD
ATOM     50  H   UNL     1      -4.886  11.712  20.177  0.00  0.00    +0.069 HD
ATOM     51  H   UNL     1      -5.978  15.942  20.274  0.00  0.00    +0.074 HD
ATOM     52  H   UNL     1      -5.386  14.978  23.116  0.00  0.00    +0.038 HD
ATOM     53  H   UNL     1      -7.217  13.713  22.233  0.00  0.00    +0.057 HD
ATOM     54  H   UNL     1      -8.734  16.356  22.584  0.00  0.00    +0.059 HD
ATOM     55  H   UNL     1      -9.543  13.388  22.221  0.00  0.00    +0.064 HD
ATOM     56  H   UNL     1     -11.582  13.922  23.470  0.00  0.00    +0.032 HD
ATOM     57  H   UNL     1     -11.072  15.572  23.710  0.00  0.00    +0.032 HD
ATOM     58  H   UNL     1     -10.899  14.134  25.724  0.00  0.00    +0.060 HD
ENDROOT
BRANCH   1  59
ATOM     59  C   UNL     1      -8.732  12.574  26.468  0.00  0.00    -0.057 C 
ATOM     60  H   UNL     1      -9.506  12.242  27.169  0.00  0.00    +0.024 HD
ATOM     61  H   UNL     1      -7.965  11.790  26.450  0.00  0.00    +0.024 HD
ATOM     62  H   UNL     1      -8.273  13.483  26.870  0.00  0.00    +0.024 HD
ENDBRANCH   1  59
BRANCH  26  63
ATOM     63  C   UNL     1      -6.143  16.967  22.922  0.00  0.00    -0.056 C 
ATOM     64  H   UNL     1      -5.946  17.022  23.997  0.00  0.00    +0.024 HD
ATOM     65  H   UNL     1      -5.460  17.659  22.415  0.00  0.00    +0.024 HD
ATOM     66  H   UNL     1      -7.144  17.357  22.733  0.00  0.00    +0.024 HD
ENDBRANCH  26  63
BRANCH  18  67
ATOM     67  C   UNL     1      -6.321   7.637  17.694  0.00  0.00    -0.043 C 
ATOM     68  H   UNL     1      -7.168   7.035  17.351  0.00  0.00    +0.027 HD
ATOM     69  H   UNL     1      -6.092   7.321  18.717  0.00  0.00    +0.027 HD
ATOM     70  H   UNL     1      -5.445   7.396  17.081  0.00  0.00    +0.027 HD
ENDBRANCH  18  67
BRANCH   7  71
ATOM     71  C   UNL     1     -12.938   6.820  20.603  0.00  0.00    -0.057 C 
ATOM     72  H   UNL     1     -12.771   5.979  21.284  0.00  0.00    +0.023 HD
ATOM     73  H   UNL     1     -14.014   6.979  20.499  0.00  0.00    +0.023 HD
ATOM     74  H   UNL     1     -12.586   6.528  19.608  0.00  0.00    +0.023 HD
ENDBRANCH   7  71
BRANCH  31  75
ATOM     75  O   UNL     1      -9.219  15.233  25.415  0.00  0.00    -0.391 OA
ATOM     76  H   UNL     1      -9.523  15.531  26.288  0.00  0.00    +0.210 HD
ENDBRANCH  31  75
BRANCH  25  77
ATOM     77  C   UNL     1      -3.875  16.048  20.757  0.00  0.00    +0.020 C 
ATOM     78  H   UNL     1      -3.803  16.906  21.439  0.00  0.00    +0.036 HD
BRANCH  77  79
ATOM     79  C   UNL     1      -2.775  15.086  21.235  0.00  0.00    -0.057 C 
ATOM     80  H   UNL     1      -2.199  14.656  20.418  0.00  0.00    +0.023 HD
ATOM     81  H   UNL     1      -3.201  14.267  21.824  0.00  0.00    +0.023 HD
ATOM     82  H   UNL     1      -2.067  15.616  21.884  0.00  0.00    +0.023 HD
ENDBRANCH  77  79
BRANCH  77  83
ATOM     83  C   UNL     1      -3.541  16.606  19.332  0.00  0.00    +0.067 C 
ATOM     84  H   UNL     1      -4.489  16.946  18.888  0.00  0.00    +0.060 HD
BRANCH  83  85
ATOM     85  C   UNL     1      -2.955  15.535  18.356  0.00  0.00    -0.017 C 
ATOM     86  H   UNL     1      -2.999  14.548  18.814  0.00  0.00    +0.032 HD
BRANCH  85  87
ATOM     87  C   UNL     1      -3.821  15.460  17.088  0.00  0.00    -0.060 C 
ATOM     88  H   UNL     1      -3.343  14.833  16.331  0.00  0.00    +0.023 HD
ATOM     89  H   UNL     1      -4.802  15.022  17.296  0.00  0.00    +0.023 HD
ATOM     90  H   UNL     1      -3.979  16.453  16.656  0.00  0.00    +0.023 HD
ENDBRANCH  85  87
BRANCH  85  91
ATOM     91  C   UNL     1      -1.480  15.767  17.952  0.00  0.00    -0.041 C 
ATOM     92  H   UNL     1      -1.109  16.688  18.419  0.00  0.00    +0.027 HD
ATOM     93  H   UNL     1      -1.409  15.935  16.870  0.00  0.00    +0.027 HD
BRANCH  91  94
ATOM     94  C   UNL     1      -0.559  14.596  18.326  0.00  0.00    +0.007 C 
ATOM     95  H   UNL     1      -0.984  14.090  19.199  0.00  0.00    +0.034 HD
ATOM     96  H   UNL     1      -0.509  13.876  17.510  0.00  0.00    +0.034 HD
BRANCH  94  97
ATOM     97  C   UNL     1       0.860  15.029  18.688  0.00  0.00    +0.139 C 
ATOM     98  O   UNL     1       1.100  16.158  19.126  0.00  0.00    -0.297 OA
BRANCH  97  99
ATOM     99  C   UNL     1       2.004  14.019  18.574  0.00  0.00    +0.041 C 
ATOM    100  H   UNL     1       2.525  14.306  17.650  0.00  0.00    +0.040 HD
BRANCH  99 101
ATOM    101  C   UNL     1       1.556  12.581  18.328  0.00  0.00    -0.053 C 
ATOM    102  H   UNL     1       0.478  12.501  18.154  0.00  0.00    +0.024 HD
ATOM    103  H   UNL     1       1.809  11.944  19.181  0.00  0.00    +0.024 HD
ATOM    104  H   UNL     1       2.060  12.168  17.448  0.00  0.00    +0.024 HD
ENDBRANCH  99 101
BRANCH  99 105
ATOM    105  C   UNL     1       2.997  14.179  19.747  0.00  0.00    +0.071 C 
ATOM    106  H   UNL     1       3.221  15.243  19.906  0.00  0.00    +0.061 HD
BRANCH 105 107
ATOM    107  C   UNL     1       2.475  13.586  21.074  0.00  0.00    -0.006 C 
ATOM    108  H   UNL     1       1.416  13.823  21.206  0.00  0.00    +0.033 HD
ATOM    109  H   UNL     1       2.570  12.494  21.058  0.00  0.00    +0.033 HD
BRANCH 107 110
ATOM    110  C   UNL     1       3.193  14.131  22.286  0.00  0.00    -0.067 C 
ATOM    111  C   UNL     1       3.807  15.325  22.294  0.00  0.00    -0.005 C 
ATOM    112  H   UNL     1       3.207  13.484  23.157  0.00  0.00    +0.059 HD
ATOM    113  H   UNL     1       3.762  15.944  21.401  0.00  0.00    +0.078 HD
BRANCH 111 114
ATOM    114  N   UNL     1       4.513  15.867  23.357  0.00  0.00    -0.284 N 
ATOM    115  C   UNL     1       4.836  15.086  24.463  0.00  0.00    +0.206 C 
ATOM    116  O   UNL     1       5.452  15.448  25.459  0.00  0.00    -0.279 OA
ATOM    117  H   UNL     1       4.469  14.048  24.374  0.00  0.00    +0.126 HD
BRANCH 114 118
ATOM    118  C   UNL     1       4.945  17.257  23.356  0.00  0.00    +0.007 C 
ATOM    119  H   UNL     1       5.724  17.401  24.112  0.00  0.00    +0.043 HD
ATOM    120  H   UNL     1       5.356  17.555  22.388  0.00  0.00    +0.043 HD
ATOM    121  H   UNL     1       4.084  17.898  23.576  0.00  0.00    +0.043 HD
ENDBRANCH 114 118
ENDBRANCH 111 114
ENDBRANCH 107 110
ENDBRANCH 105 107
BRANCH 105 122
ATOM    122  O   UNL     1       4.213  13.473  19.430  0.00  0.00    -0.379 OA
BRANCH 122 123
ATOM    123  C   UNL     1       5.310  14.337  19.158  0.00  0.00    +0.037 C 
ATOM    124  H   UNL     1       5.259  15.181  19.850  0.00  0.00    +0.052 HD
ATOM    125  H   UNL     1       5.248  14.723  18.136  0.00  0.00    +0.052 HD
ATOM    126  H   UNL     1       6.263  13.822  19.308  0.00  0.00    +0.052 HD
ENDBRANCH 122 123
ENDBRANCH 105 122
ENDBRANCH  99 105
ENDBRANCH  97  99
ENDBRANCH  94  97
ENDBRANCH  91  94
ENDBRANCH  85  91
ENDBRANCH  83  85
BRANCH  83 127
ATOM    127  O   UNL     1      -2.663  17.724  19.451  0.00  0.00    -0.379 OA
BRANCH 127 128
ATOM    128  C   UNL     1      -3.256  18.965  19.078  0.00  0.00    +0.037 C 
ATOM    129  H   UNL     1      -2.511  19.765  19.080  0.00  0.00    +0.052 HD
ATOM    130  H   UNL     1      -4.027  19.201  19.816  0.00  0.00    +0.052 HD
ATOM    131  H   UNL     1      -3.726  18.888  18.093  0.00  0.00    +0.052 HD
ENDBRANCH 127 128
ENDBRANCH  83 127
ENDBRANCH  77  83
ENDBRANCH  25  77
BRANCH   9 132
ATOM    132  O   UNL     1     -10.530  10.470  20.653  0.00  0.00    -0.384 OA
ATOM    133  H   UNL     1     -10.908  10.890  21.445  0.00  0.00    +0.210 HD
ENDBRANCH   9 132
BRANCH  29 134
ATOM    134  O   UNL     1     -10.612  14.872  21.284  0.00  0.00    -0.376 OA
BRANCH 134 135
ATOM    135  C   UNL     1     -10.246  14.292  20.038  0.00  0.00    +0.037 C 
ATOM    136  H   UNL     1      -9.194  14.524  19.852  0.00  0.00    +0.052 HD
ATOM    137  H   UNL     1     -10.353  13.203  20.063  0.00  0.00    +0.052 HD
ATOM    138  H   UNL     1     -10.841  14.714  19.221  0.00  0.00    +0.052 HD
ENDBRANCH 134 135
ENDBRANCH  29 134
BRANCH   6 139
ATOM    139  O   UNL     1     -11.820   6.986  23.243  0.00  0.00    -0.379 OA
BRANCH 139 140
ATOM    140  C   UNL     1     -12.778   6.300  24.043  0.00  0.00    +0.037 C 
ATOM    141  H   UNL     1     -12.520   6.455  25.095  0.00  0.00    +0.052 HD
ATOM    142  H   UNL     1     -13.779   6.698  23.869  0.00  0.00    +0.052 HD
ATOM    143  H   UNL     1     -12.763   5.227  23.835  0.00  0.00    +0.052 HD
ENDBRANCH 139 140
ENDBRANCH   6 139
BRANCH  16 144
ATOM    144  O   UNL     1      -9.302   7.685  16.844  0.00  0.00    -0.379 OA
BRANCH 144 145
ATOM    145  C   UNL     1      -9.364   7.064  15.567  0.00  0.00    +0.037 C 
ATOM    146  H   UNL     1      -8.927   7.712  14.800  0.00  0.00    +0.052 HD
ATOM    147  H   UNL     1     -10.418   6.899  15.320  0.00  0.00    +0.052 HD
ATOM    148  H   UNL     1      -8.860   6.094  15.575  0.00  0.00    +0.052 HD
ENDBRANCH 144 145
ENDBRANCH  16 144
BRANCH   4 149
ATOM    149  O   UNL     1     -12.919   9.697  25.150  0.00  0.00    -0.376 OA
BRANCH 149 150
ATOM    150  C   UNL     1     -13.072  10.078  26.511  0.00  0.00    +0.037 C 
ATOM    151  H   UNL     1     -13.998   9.672  26.930  0.00  0.00    +0.052 HD
ATOM    152  H   UNL     1     -13.122  11.168  26.554  0.00  0.00    +0.052 HD
ATOM    153  H   UNL     1     -12.215   9.753  27.107  0.00  0.00    +0.052 HD
ENDBRANCH 149 150
ENDBRANCH   4 149
TORSDOF 33
ENDMDL
MODEL 6
REMARK VINA RESULT:      -5.4      1.387      2.299
REMARK  Name = Sphinxolide B_conf1
REMARK  33 active torsions:
REMARK  status: ('A' for Active; 'I' for Inactive)
REMARK    1  A    between atoms: C_1  and  C_2
REMARK    2  A    between atoms: C_5  and  O_67
REMARK    3  A    between atoms: C_7  and  O_65
REMARK    4  A    between atoms: C_8  and  C_64
REMARK    5  A    between atoms: C_10  and  O_63
REMARK    6  A    between atoms: C_17  and  O_61
REMARK    7  A    between atoms: C_19  and  C_60
REMARK    8  A    between atoms: C_26  and  C_37
REMARK    9  A    between atoms: C_27  and  C_36
REMARK   10  A    between atoms: C_30  and  O_34
REMARK   11  A    between atoms: C_32  and  O_33
REMARK   12  A    between atoms: O_34  and  C_35
REMARK   13  A    between atoms: C_37  and  C_38
REMARK   14  A    between atoms: C_37  and  C_39
REMARK   15  A    between atoms: C_39  and  C_40
REMARK   16  A    between atoms: C_39  and  O_58
REMARK   17  A    between atoms: C_40  and  C_41
REMARK   18  A    between atoms: C_40  and  C_42
REMARK   19  A    between atoms: C_42  and  C_43
REMARK   20  A    between atoms: C_43  and  C_44
REMARK   21  A    between atoms: C_44  and  C_46
REMARK   22  A    between atoms: C_46  and  C_47
REMARK   23  A    between atoms: C_46  and  C_48
REMARK   24  A    between atoms: C_48  and  C_49
REMARK   25  A    between atoms: C_48  and  O_56
REMARK   26  A    between atoms: C_49  and  C_50
REMARK   27  A    between atoms: C_51  and  N_52
REMARK   28  A    between atoms: N_52  and  C_53
REMARK   29  A    between atoms: O_56  and  C_57
REMARK   30  A    between atoms: O_58  and  C_59
REMARK   31  A    between atoms: O_61  and  C_62
REMARK   32  A    between atoms: O_65  and  C_66
REMARK   33  A    between atoms: O_67  and  C_68
REMARK                            x       y       z     vdW  Elec       q    Type
REMARK                         _______ _______ _______ _____ _____    ______ ____
ROOT
ATOM      1  C   UNL     1     -11.803  14.643  22.573  0.00  0.00    +0.000 C 
ATOM      2  C   UNL     1     -10.837  15.148  21.519  0.00  0.00    -0.080 C 
ATOM      3  C   UNL     1     -10.976  16.210  20.703  0.00  0.00    -0.059 C 
ATOM      4  C   UNL     1     -10.001  16.681  19.632  0.00  0.00    +0.079 C 
ATOM      5  C   UNL     1      -8.865  15.683  19.354  0.00  0.00    +0.004 C 
ATOM      6  C   UNL     1      -7.860  16.128  18.279  0.00  0.00    +0.067 C 
ATOM      7  C   UNL     1      -6.754  15.044  18.013  0.00  0.00    +0.022 C 
ATOM      8  C   UNL     1      -5.929  14.710  19.305  0.00  0.00    +0.138 C 
ATOM      9  C   UNL     1      -6.214  13.314  19.919  0.00  0.00    +0.114 C 
ATOM     10  C   UNL     1      -5.562  12.244  19.079  0.00  0.00    -0.029 C 
ATOM     11  C   UNL     1      -4.389  12.546  18.496  0.00  0.00    +0.024 C 
ATOM     12  C   UNL     1      -3.732  13.857  18.657  0.00  0.00    +0.332 C 
ATOM     13  O   UNL     1      -2.550  13.999  18.371  0.00  0.00    -0.246 OA
ATOM     14  O   UNL     1      -4.498  14.875  19.119  0.00  0.00    -0.455 OA
ATOM     15  C   UNL     1      -6.272  10.904  18.943  0.00  0.00    -0.002 C 
ATOM     16  C   UNL     1      -5.579   9.774  18.145  0.00  0.00    +0.066 C 
ATOM     17  C   UNL     1      -6.360   8.438  18.271  0.00  0.00    -0.005 C 
ATOM     18  C   UNL     1      -7.820   8.469  17.843  0.00  0.00    -0.070 C 
ATOM     19  C   UNL     1      -8.885   8.409  18.666  0.00  0.00    -0.062 C 
ATOM     20  C   UNL     1      -8.876   8.347  20.112  0.00  0.00    -0.055 C 
ATOM     21  C   UNL     1     -10.009   8.347  20.829  0.00  0.00    +0.023 C 
ATOM     22  C   UNL     1      -9.957   8.313  22.303  0.00  0.00    +0.332 C 
ATOM     23  O   UNL     1      -8.950   8.141  22.973  0.00  0.00    -0.246 OA
ATOM     24  O   UNL     1     -11.215   8.530  22.750  0.00  0.00    -0.457 OA
ATOM     25  C   UNL     1     -11.449   8.567  24.188  0.00  0.00    +0.114 C 
ATOM     26  C   UNL     1     -12.060   9.967  24.509  0.00  0.00    +0.012 C 
ATOM     27  C   UNL     1     -11.135  11.058  23.974  0.00  0.00    -0.079 C 
ATOM     28  C   UNL     1     -10.411  11.956  24.664  0.00  0.00    -0.059 C 
ATOM     29  C   UNL     1      -9.521  12.978  24.008  0.00  0.00    +0.079 C 
ATOM     30  C   UNL     1      -9.884  14.433  24.360  0.00  0.00    +0.004 C 
ATOM     31  C   UNL     1     -11.300  14.927  24.016  0.00  0.00    +0.064 C 
ATOM     32  H   UNL     1     -11.878  13.558  22.436  0.00  0.00    +0.037 HD
ATOM     33  H   UNL     1      -9.935  14.545  21.428  0.00  0.00    +0.057 HD
ATOM     34  H   UNL     1     -11.874  16.818  20.780  0.00  0.00    +0.059 HD
ATOM     35  H   UNL     1     -10.563  16.847  18.704  0.00  0.00    +0.064 HD
ATOM     36  H   UNL     1      -8.317  15.527  20.288  0.00  0.00    +0.032 HD
ATOM     37  H   UNL     1      -9.316  14.734  19.040  0.00  0.00    +0.032 HD
ATOM     38  H   UNL     1      -7.371  17.059  18.596  0.00  0.00    +0.060 HD
ATOM     39  H   UNL     1      -7.279  14.137  17.678  0.00  0.00    +0.036 HD
ATOM     40  H   UNL     1      -6.181  15.453  20.071  0.00  0.00    +0.077 HD
ATOM     41  H   UNL     1      -5.773  13.272  20.922  0.00  0.00    +0.068 HD
ATOM     42  H   UNL     1      -3.824  11.846  17.890  0.00  0.00    +0.069 HD
ATOM     43  H   UNL     1      -6.463  10.534  19.959  0.00  0.00    +0.034 HD
ATOM     44  H   UNL     1      -7.240  11.112  18.471  0.00  0.00    +0.034 HD
ATOM     45  H   UNL     1      -4.575   9.620  18.564  0.00  0.00    +0.060 HD
ATOM     46  H   UNL     1      -6.271   8.096  19.308  0.00  0.00    +0.034 HD
ATOM     47  H   UNL     1      -5.860   7.658  17.684  0.00  0.00    +0.034 HD
ATOM     48  H   UNL     1      -9.880   8.429  18.214  0.00  0.00    +0.062 HD
ATOM     49  H   UNL     1      -7.921   8.309  20.631  0.00  0.00    +0.062 HD
ATOM     50  H   UNL     1     -10.991   8.386  20.370  0.00  0.00    +0.069 HD
ATOM     51  H   UNL     1     -10.482   8.513  24.709  0.00  0.00    +0.074 HD
ATOM     52  H   UNL     1     -12.982  10.093  23.930  0.00  0.00    +0.038 HD
ATOM     53  H   UNL     1     -11.075  11.095  22.885  0.00  0.00    +0.057 HD
ATOM     54  H   UNL     1     -10.428  11.979  25.750  0.00  0.00    +0.059 HD
ATOM     55  H   UNL     1      -9.529  12.862  22.919  0.00  0.00    +0.064 HD
ATOM     56  H   UNL     1      -9.150  15.088  23.871  0.00  0.00    +0.032 HD
ATOM     57  H   UNL     1      -9.718  14.577  25.439  0.00  0.00    +0.032 HD
ATOM     58  H   UNL     1     -11.304  16.012  24.183  0.00  0.00    +0.060 HD
ENDROOT
BRANCH   1  59
ATOM     59  C   UNL     1     -13.238  15.169  22.384  0.00  0.00    -0.057 C 
ATOM     60  H   UNL     1     -13.735  14.674  21.541  0.00  0.00    +0.024 HD
ATOM     61  H   UNL     1     -13.847  14.968  23.273  0.00  0.00    +0.024 HD
ATOM     62  H   UNL     1     -13.252  16.249  22.204  0.00  0.00    +0.024 HD
ENDBRANCH   1  59
BRANCH  26  63
ATOM     63  C   UNL     1     -12.402  10.178  25.985  0.00  0.00    -0.056 C 
ATOM     64  H   UNL     1     -13.373   9.744  26.241  0.00  0.00    +0.024 HD
ATOM     65  H   UNL     1     -11.645   9.728  26.638  0.00  0.00    +0.024 HD
ATOM     66  H   UNL     1     -12.416  11.237  26.246  0.00  0.00    +0.024 HD
ENDBRANCH  26  63
BRANCH  18  67
ATOM     67  C   UNL     1      -8.048   8.547  16.352  0.00  0.00    -0.043 C 
ATOM     68  H   UNL     1      -7.289   9.174  15.875  0.00  0.00    +0.027 HD
ATOM     69  H   UNL     1      -9.025   8.974  16.104  0.00  0.00    +0.027 HD
ATOM     70  H   UNL     1      -8.013   7.547  15.903  0.00  0.00    +0.027 HD
ENDBRANCH  18  67
BRANCH   7  71
ATOM     71  C   UNL     1      -5.874  15.472  16.828  0.00  0.00    -0.057 C 
ATOM     72  H   UNL     1      -6.415  16.142  16.151  0.00  0.00    +0.023 HD
ATOM     73  H   UNL     1      -4.964  15.975  17.165  0.00  0.00    +0.023 HD
ATOM     74  H   UNL     1      -5.535  14.606  16.251  0.00  0.00    +0.023 HD
ENDBRANCH   7  71
BRANCH  31  75
ATOM     75  O   UNL     1     -12.208  14.377  24.979  0.00  0.00    -0.391 OA
ATOM     76  H   UNL     1     -11.818  14.504  25.859  0.00  0.00    +0.210 HD
ENDBRANCH  31  75
BRANCH  25  77
ATOM     77  C   UNL     1     -12.229   7.255  24.536  0.00  0.00    +0.020 C 
ATOM     78  H   UNL     1     -12.905   7.086  23.687  0.00  0.00    +0.036 HD
BRANCH  77  79
ATOM     79  C   UNL     1     -11.302   6.028  24.535  0.00  0.00    -0.057 C 
ATOM     80  H   UNL     1     -11.842   5.084  24.490  0.00  0.00    +0.023 HD
ATOM     81  H   UNL     1     -10.667   6.018  25.428  0.00  0.00    +0.023 HD
ATOM     82  H   UNL     1     -10.634   6.060  23.666  0.00  0.00    +0.023 HD
ENDBRANCH  77  79
BRANCH  77  83
ATOM     83  C   UNL     1     -13.136   7.261  25.812  0.00  0.00    +0.067 C 
ATOM     84  H   UNL     1     -13.109   8.283  26.222  0.00  0.00    +0.060 HD
BRANCH  83  85
ATOM     85  C   UNL     1     -12.633   6.315  26.950  0.00  0.00    -0.017 C 
ATOM     86  H   UNL     1     -11.802   5.710  26.592  0.00  0.00    +0.032 HD
BRANCH  85  87
ATOM     87  C   UNL     1     -12.084   7.153  28.117  0.00  0.00    -0.060 C 
ATOM     88  H   UNL     1     -11.470   7.976  27.745  0.00  0.00    +0.023 HD
ATOM     89  H   UNL     1     -12.892   7.594  28.709  0.00  0.00    +0.023 HD
ATOM     90  H   UNL     1     -11.469   6.544  28.787  0.00  0.00    +0.023 HD
ENDBRANCH  85  87
BRANCH  85  91
ATOM     91  C   UNL     1     -13.697   5.329  27.487  0.00  0.00    -0.041 C 
ATOM     92  H   UNL     1     -14.605   5.395  26.875  0.00  0.00    +0.027 HD
ATOM     93  H   UNL     1     -14.001   5.620  28.501  0.00  0.00    +0.027 HD
BRANCH  91  94
ATOM     94  C   UNL     1     -13.209   3.873  27.524  0.00  0.00    +0.007 C 
ATOM     95  H   UNL     1     -12.167   3.869  27.864  0.00  0.00    +0.034 HD
ATOM     96  H   UNL     1     -13.796   3.292  28.233  0.00  0.00    +0.034 HD
BRANCH  94  97
ATOM     97  C   UNL     1     -13.254   3.181  26.164  0.00  0.00    +0.139 C 
ATOM     98  O   UNL     1     -13.909   3.642  25.225  0.00  0.00    -0.297 OA
BRANCH  97  99
ATOM     99  C   UNL     1     -12.411   1.925  25.933  0.00  0.00    +0.041 C 
ATOM    100  H   UNL     1     -12.885   1.438  25.070  0.00  0.00    +0.040 HD
BRANCH  99 101
ATOM    101  C   UNL     1     -12.501   0.889  27.051  0.00  0.00    -0.053 C 
ATOM    102  H   UNL     1     -13.099   1.237  27.898  0.00  0.00    +0.024 HD
ATOM    103  H   UNL     1     -11.504   0.632  27.423  0.00  0.00    +0.024 HD
ATOM    104  H   UNL     1     -12.962  -0.033  26.681  0.00  0.00    +0.024 HD
ENDBRANCH  99 101
BRANCH  99 105
ATOM    105  C   UNL     1     -10.966   2.298  25.533  0.00  0.00    +0.071 C 
ATOM    106  H   UNL     1     -10.972   3.203  24.909  0.00  0.00    +0.061 HD
BRANCH 105 107
ATOM    107  C   UNL     1     -10.041   2.546  26.744  0.00  0.00    -0.006 C 
ATOM    108  H   UNL     1     -10.612   2.495  27.675  0.00  0.00    +0.033 HD
ATOM    109  H   UNL     1      -9.267   1.771  26.788  0.00  0.00    +0.033 HD
BRANCH 107 110
ATOM    110  C   UNL     1      -9.383   3.905  26.715  0.00  0.00    -0.067 C 
ATOM    111  C   UNL     1      -9.254   4.676  27.806  0.00  0.00    -0.005 C 
ATOM    112  H   UNL     1      -9.036   4.241  25.743  0.00  0.00    +0.059 HD
ATOM    113  H   UNL     1      -9.610   4.297  28.762  0.00  0.00    +0.078 HD
BRANCH 111 114
ATOM    114  N   UNL     1      -8.695   5.945  27.841  0.00  0.00    -0.284 N 
ATOM    115  C   UNL     1      -8.407   6.624  26.661  0.00  0.00    +0.206 C 
ATOM    116  O   UNL     1      -7.915   7.742  26.563  0.00  0.00    -0.279 OA
ATOM    117  H   UNL     1      -8.668   6.042  25.760  0.00  0.00    +0.126 HD
BRANCH 114 118
ATOM    118  C   UNL     1      -8.395   6.611  29.100  0.00  0.00    +0.007 C 
ATOM    119  H   UNL     1      -9.019   6.191  29.897  0.00  0.00    +0.043 HD
ATOM    120  H   UNL     1      -7.348   6.483  29.390  0.00  0.00    +0.043 HD
ATOM    121  H   UNL     1      -8.593   7.683  28.993  0.00  0.00    +0.043 HD
ENDBRANCH 114 118
ENDBRANCH 111 114
ENDBRANCH 107 110
ENDBRANCH 105 107
BRANCH 105 122
ATOM    122  O   UNL     1     -10.389   1.205  24.790  0.00  0.00    -0.379 OA
BRANCH 122 123
ATOM    123  C   UNL     1     -10.046   1.552  23.454  0.00  0.00    +0.037 C 
ATOM    124  H   UNL     1     -10.942   1.457  22.836  0.00  0.00    +0.052 HD
ATOM    125  H   UNL     1      -9.284   0.869  23.066  0.00  0.00    +0.052 HD
ATOM    126  H   UNL     1      -9.690   2.584  23.395  0.00  0.00    +0.052 HD
ENDBRANCH 122 123
ENDBRANCH 105 122
ENDBRANCH  99 105
ENDBRANCH  97  99
ENDBRANCH  94  97
ENDBRANCH  91  94
ENDBRANCH  85  91
ENDBRANCH  83  85
BRANCH  83 127
ATOM    127  O   UNL     1     -14.479   6.950  25.444  0.00  0.00    -0.379 OA
BRANCH 127 128
ATOM    128  C   UNL     1     -14.791   7.256  24.088  0.00  0.00    +0.037 C 
ATOM    129  H   UNL     1     -15.846   7.056  23.879  0.00  0.00    +0.052 HD
ATOM    130  H   UNL     1     -14.179   6.612  23.451  0.00  0.00    +0.052 HD
ATOM    131  H   UNL     1     -14.553   8.300  23.863  0.00  0.00    +0.052 HD
ENDBRANCH 127 128
ENDBRANCH  83 127
ENDBRANCH  77  83
ENDBRANCH  25  77
BRANCH   9 132
ATOM    132  O   UNL     1      -7.607  13.084  20.056  0.00  0.00    -0.384 OA
ATOM    133  H   UNL     1      -7.956  13.762  20.660  0.00  0.00    +0.210 HD
ENDBRANCH   9 132
BRANCH  29 134
ATOM    134  O   UNL     1      -8.168  12.782  24.457  0.00  0.00    -0.376 OA
BRANCH 134 135
ATOM    135  C   UNL     1      -7.239  13.710  23.911  0.00  0.00    +0.037 C 
ATOM    136  H   UNL     1      -6.295  13.602  24.452  0.00  0.00    +0.052 HD
ATOM    137  H   UNL     1      -7.048  13.502  22.854  0.00  0.00    +0.052 HD
ATOM    138  H   UNL     1      -7.593  14.739  24.040  0.00  0.00    +0.052 HD
ENDBRANCH 134 135
ENDBRANCH  29 134
BRANCH   6 139
ATOM    139  O   UNL     1      -8.603  16.335  17.063  0.00  0.00    -0.379 OA
BRANCH 139 140
ATOM    140  C   UNL     1      -9.420  15.222  16.716  0.00  0.00    +0.037 C 
ATOM    141  H   UNL     1      -9.727  15.334  15.672  0.00  0.00    +0.052 HD
ATOM    142  H   UNL     1      -8.860  14.289  16.815  0.00  0.00    +0.052 HD
ATOM    143  H   UNL     1     -10.316  15.185  17.341  0.00  0.00    +0.052 HD
ENDBRANCH 139 140
ENDBRANCH   6 139
BRANCH  16 144
ATOM    144  O   UNL     1      -5.453  10.188  16.777  0.00  0.00    -0.379 OA
BRANCH 144 145
ATOM    145  C   UNL     1      -4.489   9.454  16.036  0.00  0.00    +0.037 C 
ATOM    146  H   UNL     1      -4.978   8.737  15.367  0.00  0.00    +0.052 HD
ATOM    147  H   UNL     1      -3.867   8.897  16.744  0.00  0.00    +0.052 HD
ATOM    148  H   UNL     1      -3.838  10.122  15.464  0.00  0.00    +0.052 HD
ENDBRANCH 144 145
ENDBRANCH  16 144
BRANCH   4 149
ATOM    149  O   UNL     1      -9.406  17.911  20.073  0.00  0.00    -0.376 OA
BRANCH 149 150
ATOM    150  C   UNL     1      -9.904  19.059  19.399  0.00  0.00    +0.037 C 
ATOM    151  H   UNL     1      -9.955  19.918  20.075  0.00  0.00    +0.052 HD
ATOM    152  H   UNL     1     -10.914  18.834  19.050  0.00  0.00    +0.052 HD
ATOM    153  H   UNL     1      -9.288  19.300  18.530  0.00  0.00    +0.052 HD
ENDBRANCH 149 150
ENDBRANCH   4 149
TORSDOF 33
ENDMDL
MODEL 7
REMARK VINA RESULT:      -5.2      3.329      4.919
REMARK  Name = Sphinxolide B_conf1
REMARK  33 active torsions:
REMARK  status: ('A' for Active; 'I' for Inactive)
REMARK    1  A    between atoms: C_1  and  C_2
REMARK    2  A    between atoms: C_5  and  O_67
REMARK    3  A    between atoms: C_7  and  O_65
REMARK    4  A    between atoms: C_8  and  C_64
REMARK    5  A    between atoms: C_10  and  O_63
REMARK    6  A    between atoms: C_17  and  O_61
REMARK    7  A    between atoms: C_19  and  C_60
REMARK    8  A    between atoms: C_26  and  C_37
REMARK    9  A    between atoms: C_27  and  C_36
REMARK   10  A    between atoms: C_30  and  O_34
REMARK   11  A    between atoms: C_32  and  O_33
REMARK   12  A    between atoms: O_34  and  C_35
REMARK   13  A    between atoms: C_37  and  C_38
REMARK   14  A    between atoms: C_37  and  C_39
REMARK   15  A    between atoms: C_39  and  C_40
REMARK   16  A    between atoms: C_39  and  O_58
REMARK   17  A    between atoms: C_40  and  C_41
REMARK   18  A    between atoms: C_40  and  C_42
REMARK   19  A    between atoms: C_42  and  C_43
REMARK   20  A    between atoms: C_43  and  C_44
REMARK   21  A    between atoms: C_44  and  C_46
REMARK   22  A    between atoms: C_46  and  C_47
REMARK   23  A    between atoms: C_46  and  C_48
REMARK   24  A    between atoms: C_48  and  C_49
REMARK   25  A    between atoms: C_48  and  O_56
REMARK   26  A    between atoms: C_49  and  C_50
REMARK   27  A    between atoms: C_51  and  N_52
REMARK   28  A    between atoms: N_52  and  C_53
REMARK   29  A    between atoms: O_56  and  C_57
REMARK   30  A    between atoms: O_58  and  C_59
REMARK   31  A    between atoms: O_61  and  C_62
REMARK   32  A    between atoms: O_65  and  C_66
REMARK   33  A    between atoms: O_67  and  C_68
REMARK                            x       y       z     vdW  Elec       q    Type
REMARK                         _______ _______ _______ _____ _____    ______ ____
ROOT
ATOM      1  C   UNL     1     -11.827  14.647  22.618  0.00  0.00    +0.000 C 
ATOM      2  C   UNL     1     -10.896  15.148  21.531  0.00  0.00    -0.080 C 
ATOM      3  C   UNL     1     -11.077  16.189  20.697  0.00  0.00    -0.059 C 
ATOM      4  C   UNL     1     -10.139  16.657  19.592  0.00  0.00    +0.079 C 
ATOM      5  C   UNL     1      -8.988  15.677  19.308  0.00  0.00    +0.004 C 
ATOM      6  C   UNL     1      -8.019  16.119  18.199  0.00  0.00    +0.067 C 
ATOM      7  C   UNL     1      -6.897  15.053  17.930  0.00  0.00    +0.022 C 
ATOM      8  C   UNL     1      -6.035  14.764  19.208  0.00  0.00    +0.138 C 
ATOM      9  C   UNL     1      -6.275  13.376  19.859  0.00  0.00    +0.114 C 
ATOM     10  C   UNL     1      -5.620  12.302  19.026  0.00  0.00    -0.029 C 
ATOM     11  C   UNL     1      -4.468  12.616  18.408  0.00  0.00    +0.024 C 
ATOM     12  C   UNL     1      -3.836  13.943  18.526  0.00  0.00    +0.332 C 
ATOM     13  O   UNL     1      -2.664  14.103  18.209  0.00  0.00    -0.246 OA
ATOM     14  O   UNL     1      -4.612  14.955  18.985  0.00  0.00    -0.455 OA
ATOM     15  C   UNL     1      -6.305  10.945  18.936  0.00  0.00    -0.002 C 
ATOM     16  C   UNL     1      -5.607   9.813  18.145  0.00  0.00    +0.066 C 
ATOM     17  C   UNL     1      -6.356   8.463  18.318  0.00  0.00    -0.005 C 
ATOM     18  C   UNL     1      -7.826   8.455  17.925  0.00  0.00    -0.070 C 
ATOM     19  C   UNL     1      -8.870   8.391  18.774  0.00  0.00    -0.062 C 
ATOM     20  C   UNL     1      -8.825   8.361  20.221  0.00  0.00    -0.055 C 
ATOM     21  C   UNL     1      -9.941   8.353  20.965  0.00  0.00    +0.023 C 
ATOM     22  C   UNL     1      -9.853   8.351  22.438  0.00  0.00    +0.332 C 
ATOM     23  O   UNL     1      -8.827   8.215  23.087  0.00  0.00    -0.246 OA
ATOM     24  O   UNL     1     -11.105   8.552  22.910  0.00  0.00    -0.457 OA
ATOM     25  C   UNL     1     -11.304   8.615  24.353  0.00  0.00    +0.114 C 
ATOM     26  C   UNL     1     -11.938  10.009  24.658  0.00  0.00    +0.012 C 
ATOM     27  C   UNL     1     -11.049  11.107  24.078  0.00  0.00    -0.079 C 
ATOM     28  C   UNL     1     -10.328  12.035  24.732  0.00  0.00    -0.059 C 
ATOM     29  C   UNL     1      -9.476  13.061  24.033  0.00  0.00    +0.079 C 
ATOM     30  C   UNL     1      -9.861  14.515  24.362  0.00  0.00    +0.004 C 
ATOM     31  C   UNL     1     -11.296  14.972  24.042  0.00  0.00    +0.064 C 
ATOM     32  H   UNL     1     -11.881  13.557  22.506  0.00  0.00    +0.037 HD
ATOM     33  H   UNL     1      -9.984  14.562  21.431  0.00  0.00    +0.057 HD
ATOM     34  H   UNL     1     -11.986  16.780  20.782  0.00  0.00    +0.059 HD
ATOM     35  H   UNL     1     -10.725  16.791  18.675  0.00  0.00    +0.064 HD
ATOM     36  H   UNL     1      -8.415  15.552  20.231  0.00  0.00    +0.032 HD
ATOM     37  H   UNL     1      -9.426  14.712  19.025  0.00  0.00    +0.032 HD
ATOM     38  H   UNL     1      -7.543  17.067  18.485  0.00  0.00    +0.060 HD
ATOM     39  H   UNL     1      -7.410  14.128  17.628  0.00  0.00    +0.036 HD
ATOM     40  H   UNL     1      -6.284  15.518  19.965  0.00  0.00    +0.077 HD
ATOM     41  H   UNL     1      -5.809  13.365  20.852  0.00  0.00    +0.068 HD
ATOM     42  H   UNL     1      -3.903  11.914  17.804  0.00  0.00    +0.069 HD
ATOM     43  H   UNL     1      -6.464  10.593  19.964  0.00  0.00    +0.034 HD
ATOM     44  H   UNL     1      -7.288  11.123  18.483  0.00  0.00    +0.034 HD
ATOM     45  H   UNL     1      -4.590   9.689  18.543  0.00  0.00    +0.060 HD
ATOM     46  H   UNL     1      -6.235   8.146  19.360  0.00  0.00    +0.034 HD
ATOM     47  H   UNL     1      -5.854   7.682  17.737  0.00  0.00    +0.034 HD
ATOM     48  H   UNL     1      -9.876   8.380  18.346  0.00  0.00    +0.062 HD
ATOM     49  H   UNL     1      -7.858   8.353  20.717  0.00  0.00    +0.062 HD
ATOM     50  H   UNL     1     -10.933   8.361  20.529  0.00  0.00    +0.069 HD
ATOM     51  H   UNL     1     -10.325   8.592  24.851  0.00  0.00    +0.074 HD
ATOM     52  H   UNL     1     -12.876  10.104  24.099  0.00  0.00    +0.038 HD
ATOM     53  H   UNL     1     -11.016  11.121  22.987  0.00  0.00    +0.057 HD
ATOM     54  H   UNL     1     -10.320  12.081  25.817  0.00  0.00    +0.059 HD
ATOM     55  H   UNL     1      -9.508  12.921  22.947  0.00  0.00    +0.064 HD
ATOM     56  H   UNL     1      -9.153  15.174  23.843  0.00  0.00    +0.032 HD
ATOM     57  H   UNL     1      -9.673  14.686  25.434  0.00  0.00    +0.032 HD
ATOM     58  H   UNL     1     -11.319  16.060  24.186  0.00  0.00    +0.060 HD
ENDROOT
BRANCH   1  59
ATOM     59  C   UNL     1     -13.276  15.138  22.454  0.00  0.00    -0.057 C 
ATOM     60  H   UNL     1     -13.473  15.457  21.423  0.00  0.00    +0.024 HD
ATOM     61  H   UNL     1     -13.989  14.335  22.678  0.00  0.00    +0.024 HD
ATOM     62  H   UNL     1     -13.496  15.978  23.120  0.00  0.00    +0.024 HD
ENDBRANCH   1  59
BRANCH  26  63
ATOM     63  C   UNL     1     -12.249  10.245  26.138  0.00  0.00    -0.056 C 
ATOM     64  H   UNL     1     -11.626   9.621  26.786  0.00  0.00    +0.024 HD
ATOM     65  H   UNL     1     -12.088  11.294  26.417  0.00  0.00    +0.024 HD
ATOM     66  H   UNL     1     -13.296  10.043  26.364  0.00  0.00    +0.024 HD
ENDBRANCH  26  63
BRANCH  18  67
ATOM     67  C   UNL     1      -8.091   8.496  16.438  0.00  0.00    -0.043 C 
ATOM     68  H   UNL     1      -7.163   8.364  15.876  0.00  0.00    +0.027 HD
ATOM     69  H   UNL     1      -8.531   9.447  16.122  0.00  0.00    +0.027 HD
ATOM     70  H   UNL     1      -8.795   7.706  16.150  0.00  0.00    +0.027 HD
ENDBRANCH  18  67
BRANCH   7  71
ATOM     71  C   UNL     1      -6.054  15.473  16.715  0.00  0.00    -0.057 C 
ATOM     72  H   UNL     1      -5.594  16.455  16.870  0.00  0.00    +0.023 HD
ATOM     73  H   UNL     1      -5.266  14.747  16.502  0.00  0.00    +0.023 HD
ATOM     74  H   UNL     1      -6.663  15.522  15.807  0.00  0.00    +0.023 HD
ENDBRANCH   7  71
BRANCH  31  75
ATOM     75  O   UNL     1     -12.169  14.424  25.038  0.00  0.00    -0.391 OA
ATOM     76  H   UNL     1     -11.731  13.645  25.419  0.00  0.00    +0.210 HD
ENDBRANCH  31  75
BRANCH  25  77
ATOM     77  C   UNL     1     -12.048   7.295  24.747  0.00  0.00    +0.020 C 
ATOM     78  H   UNL     1     -13.040   7.613  25.095  0.00  0.00    +0.036 HD
BRANCH  77  79
ATOM     79  C   UNL     1     -12.338   6.420  23.516  0.00  0.00    -0.057 C 
ATOM     80  H   UNL     1     -12.891   5.514  23.756  0.00  0.00    +0.023 HD
ATOM     81  H   UNL     1     -11.407   6.132  23.014  0.00  0.00    +0.023 HD
ATOM     82  H   UNL     1     -12.936   6.980  22.787  0.00  0.00    +0.023 HD
ENDBRANCH  77  79
BRANCH  77  83
ATOM     83  C   UNL     1     -11.443   6.435  25.906  0.00  0.00    +0.067 C 
ATOM     84  H   UNL     1     -11.122   7.133  26.694  0.00  0.00    +0.060 HD
BRANCH  83  85
ATOM     85  C   UNL     1     -10.172   5.622  25.494  0.00  0.00    -0.017 C 
ATOM     86  H   UNL     1     -10.067   5.619  24.410  0.00  0.00    +0.032 HD
BRANCH  85  87
ATOM     87  C   UNL     1      -8.914   6.310  26.048  0.00  0.00    -0.060 C 
ATOM     88  H   UNL     1      -9.134   6.814  26.992  0.00  0.00    +0.023 HD
ATOM     89  H   UNL     1      -8.115   5.588  26.246  0.00  0.00    +0.023 HD
ATOM     90  H   UNL     1      -8.528   7.056  25.346  0.00  0.00    +0.023 HD
ENDBRANCH  85  87
BRANCH  85  91
ATOM     91  C   UNL     1     -10.181   4.140  25.939  0.00  0.00    -0.041 C 
ATOM     92  H   UNL     1     -10.935   3.994  26.723  0.00  0.00    +0.027 HD
ATOM     93  H   UNL     1      -9.219   3.882  26.401  0.00  0.00    +0.027 HD
BRANCH  91  94
ATOM     94  C   UNL     1     -10.445   3.163  24.785  0.00  0.00    +0.007 C 
ATOM     95  H   UNL     1     -11.396   3.437  24.314  0.00  0.00    +0.034 HD
ATOM     96  H   UNL     1      -9.662   3.242  24.032  0.00  0.00    +0.034 HD
BRANCH  94  97
ATOM     97  C   UNL     1     -10.554   1.707  25.231  0.00  0.00    +0.139 C 
ATOM     98  O   UNL     1     -10.078   1.322  26.303  0.00  0.00    -0.297 OA
BRANCH  97  99
ATOM     99  C   UNL     1     -11.333   0.713  24.367  0.00  0.00    +0.041 C 
ATOM    100  H   UNL     1     -12.165   1.305  23.961  0.00  0.00    +0.040 HD
BRANCH  99 101
ATOM    101  C   UNL     1     -12.010  -0.410  25.148  0.00  0.00    -0.053 C 
ATOM    102  H   UNL     1     -11.301  -0.990  25.747  0.00  0.00    +0.024 HD
ATOM    103  H   UNL     1     -12.524  -1.099  24.470  0.00  0.00    +0.024 HD
ATOM    104  H   UNL     1     -12.760  -0.001  25.833  0.00  0.00    +0.024 HD
ENDBRANCH  99 101
BRANCH  99 105
ATOM    105  C   UNL     1     -10.473   0.227  23.178  0.00  0.00    +0.071 C 
ATOM    106  H   UNL     1      -9.515   0.764  23.164  0.00  0.00    +0.061 HD
BRANCH 105 107
ATOM    107  C   UNL     1     -10.183  -1.289  23.215  0.00  0.00    -0.006 C 
ATOM    108  H   UNL     1      -9.725  -1.566  24.168  0.00  0.00    +0.033 HD
ATOM    109  H   UNL     1     -11.120  -1.851  23.122  0.00  0.00    +0.033 HD
BRANCH 107 110
ATOM    110  C   UNL     1      -9.228  -1.733  22.132  0.00  0.00    -0.067 C 
ATOM    111  C   UNL     1      -8.338  -2.723  22.306  0.00  0.00    -0.005 C 
ATOM    112  H   UNL     1      -9.284  -1.182  21.199  0.00  0.00    +0.059 HD
ATOM    113  H   UNL     1      -8.321  -3.253  23.256  0.00  0.00    +0.078 HD
BRANCH 111 114
ATOM    114  N   UNL     1      -7.411  -3.154  21.369  0.00  0.00    -0.284 N 
ATOM    115  C   UNL     1      -6.742  -2.238  20.563  0.00  0.00    +0.206 C 
ATOM    116  O   UNL     1      -5.906  -2.493  19.704  0.00  0.00    -0.279 OA
ATOM    117  H   UNL     1      -7.041  -1.194  20.765  0.00  0.00    +0.126 HD
BRANCH 114 118
ATOM    118  C   UNL     1      -7.101  -4.566  21.197  0.00  0.00    +0.007 C 
ATOM    119  H   UNL     1      -6.371  -4.687  20.389  0.00  0.00    +0.043 HD
ATOM    120  H   UNL     1      -6.675  -5.002  22.105  0.00  0.00    +0.043 HD
ATOM    121  H   UNL     1      -8.022  -5.106  20.955  0.00  0.00    +0.043 HD
ENDBRANCH 114 118
ENDBRANCH 111 114
ENDBRANCH 107 110
ENDBRANCH 105 107
BRANCH 105 122
ATOM    122  O   UNL     1     -11.186   0.482  21.951  0.00  0.00    -0.379 OA
BRANCH 122 123
ATOM    123  C   UNL     1     -10.816   1.706  21.330  0.00  0.00    +0.037 C 
ATOM    124  H   UNL     1     -11.559   2.462  21.596  0.00  0.00    +0.052 HD
ATOM    125  H   UNL     1     -10.811   1.596  20.241  0.00  0.00    +0.052 HD
ATOM    126  H   UNL     1      -9.836   2.045  21.678  0.00  0.00    +0.052 HD
ENDBRANCH 122 123
ENDBRANCH 105 122
ENDBRANCH  99 105
ENDBRANCH  97  99
ENDBRANCH  94  97
ENDBRANCH  91  94
ENDBRANCH  85  91
ENDBRANCH  83  85
BRANCH  83 127
ATOM    127  O   UNL     1     -12.449   5.575  26.438  0.00  0.00    -0.379 OA
BRANCH 127 128
ATOM    128  C   UNL     1     -13.439   6.253  27.206  0.00  0.00    +0.037 C 
ATOM    129  H   UNL     1     -14.435   6.092  26.782  0.00  0.00    +0.052 HD
ATOM    130  H   UNL     1     -13.212   7.322  27.174  0.00  0.00    +0.052 HD
ATOM    131  H   UNL     1     -13.414   5.920  28.248  0.00  0.00    +0.052 HD
ENDBRANCH 127 128
ENDBRANCH  83 127
ENDBRANCH  77  83
ENDBRANCH  25  77
BRANCH   9 132
ATOM    132  O   UNL     1      -7.659  13.121  20.034  0.00  0.00    -0.384 OA
ATOM    133  H   UNL     1      -7.869  12.306  19.546  0.00  0.00    +0.210 HD
ENDBRANCH   9 132
BRANCH  29 134
ATOM    134  O   UNL     1      -8.109  12.902  24.453  0.00  0.00    -0.376 OA
BRANCH 134 135
ATOM    135  C   UNL     1      -7.212  13.834  23.861  0.00  0.00    +0.037 C 
ATOM    136  H   UNL     1      -6.344  13.934  24.520  0.00  0.00    +0.052 HD
ATOM    137  H   UNL     1      -6.859  13.479  22.889  0.00  0.00    +0.052 HD
ATOM    138  H   UNL     1      -7.682  14.818  23.761  0.00  0.00    +0.052 HD
ENDBRANCH 134 135
ENDBRANCH  29 134
BRANCH   6 139
ATOM    139  O   UNL     1      -8.794  16.284  16.998  0.00  0.00    -0.379 OA
BRANCH 139 140
ATOM    140  C   UNL     1      -9.568  15.133  16.674  0.00  0.00    +0.037 C 
ATOM    141  H   UNL     1      -9.922  14.685  17.607  0.00  0.00    +0.052 HD
ATOM    142  H   UNL     1     -10.435  15.412  16.072  0.00  0.00    +0.052 HD
ATOM    143  H   UNL     1      -8.965  14.395  16.139  0.00  0.00    +0.052 HD
ENDBRANCH 139 140
ENDBRANCH   6 139
BRANCH  16 144
ATOM    144  O   UNL     1      -5.522  10.200  16.766  0.00  0.00    -0.379 OA
BRANCH 144 145
ATOM    145  C   UNL     1      -4.538   9.492  16.025  0.00  0.00    +0.037 C 
ATOM    146  H   UNL     1      -3.770  10.176  15.649  0.00  0.00    +0.052 HD
ATOM    147  H   UNL     1      -5.031   9.021  15.168  0.00  0.00    +0.052 HD
ATOM    148  H   UNL     1      -4.081   8.703  16.629  0.00  0.00    +0.052 HD
ENDBRANCH 144 145
ENDBRANCH  16 144
BRANCH   4 149
ATOM    149  O   UNL     1      -9.559  17.908  19.993  0.00  0.00    -0.376 OA
BRANCH 149 150
ATOM    150  C   UNL     1     -10.119  19.033  19.328  0.00  0.00    +0.037 C 
ATOM    151  H   UNL     1     -10.699  18.723  18.454  0.00  0.00    +0.052 HD
ATOM    152  H   UNL     1      -9.298  19.669  18.990  0.00  0.00    +0.052 HD
ATOM    153  H   UNL     1     -10.745  19.617  20.008  0.00  0.00    +0.052 HD
ENDBRANCH 149 150
ENDBRANCH   4 149
TORSDOF 33
ENDMDL
MODEL 8
REMARK VINA RESULT:      -5.2      1.490      2.782
REMARK  Name = Sphinxolide B_conf1
REMARK  33 active torsions:
REMARK  status: ('A' for Active; 'I' for Inactive)
REMARK    1  A    between atoms: C_1  and  C_2
REMARK    2  A    between atoms: C_5  and  O_67
REMARK    3  A    between atoms: C_7  and  O_65
REMARK    4  A    between atoms: C_8  and  C_64
REMARK    5  A    between atoms: C_10  and  O_63
REMARK    6  A    between atoms: C_17  and  O_61
REMARK    7  A    between atoms: C_19  and  C_60
REMARK    8  A    between atoms: C_26  and  C_37
REMARK    9  A    between atoms: C_27  and  C_36
REMARK   10  A    between atoms: C_30  and  O_34
REMARK   11  A    between atoms: C_32  and  O_33
REMARK   12  A    between atoms: O_34  and  C_35
REMARK   13  A    between atoms: C_37  and  C_38
REMARK   14  A    between atoms: C_37  and  C_39
REMARK   15  A    between atoms: C_39  and  C_40
REMARK   16  A    between atoms: C_39  and  O_58
REMARK   17  A    between atoms: C_40  and  C_41
REMARK   18  A    between atoms: C_40  and  C_42
REMARK   19  A    between atoms: C_42  and  C_43
REMARK   20  A    between atoms: C_43  and  C_44
REMARK   21  A    between atoms: C_44  and  C_46
REMARK   22  A    between atoms: C_46  and  C_47
REMARK   23  A    between atoms: C_46  and  C_48
REMARK   24  A    between atoms: C_48  and  C_49
REMARK   25  A    between atoms: C_48  and  O_56
REMARK   26  A    between atoms: C_49  and  C_50
REMARK   27  A    between atoms: C_51  and  N_52
REMARK   28  A    between atoms: N_52  and  C_53
REMARK   29  A    between atoms: O_56  and  C_57
REMARK   30  A    between atoms: O_58  and  C_59
REMARK   31  A    between atoms: O_61  and  C_62
REMARK   32  A    between atoms: O_65  and  C_66
REMARK   33  A    between atoms: O_67  and  C_68
REMARK                            x       y       z     vdW  Elec       q    Type
REMARK                         _______ _______ _______ _____ _____    ______ ____
ROOT
ATOM      1  C   UNL     1     -11.753  14.681  22.764  0.00  0.00    +0.000 C 
ATOM      2  C   UNL     1     -10.815  15.180  21.682  0.00  0.00    -0.080 C 
ATOM      3  C   UNL     1     -10.976  16.236  20.863  0.00  0.00    -0.059 C 
ATOM      4  C   UNL     1     -10.030  16.700  19.764  0.00  0.00    +0.079 C 
ATOM      5  C   UNL     1      -8.900  15.701  19.462  0.00  0.00    +0.004 C 
ATOM      6  C   UNL     1      -7.925  16.139  18.358  0.00  0.00    +0.067 C 
ATOM      7  C   UNL     1      -6.825  15.054  18.072  0.00  0.00    +0.022 C 
ATOM      8  C   UNL     1      -5.967  14.730  19.343  0.00  0.00    +0.138 C 
ATOM      9  C   UNL     1      -6.234  13.338  19.975  0.00  0.00    +0.114 C 
ATOM     10  C   UNL     1      -5.603  12.263  19.125  0.00  0.00    -0.029 C 
ATOM     11  C   UNL     1      -4.445  12.562  18.509  0.00  0.00    +0.024 C 
ATOM     12  C   UNL     1      -3.786  13.874  18.645  0.00  0.00    +0.332 C 
ATOM     13  O   UNL     1      -2.612  14.015  18.327  0.00  0.00    -0.246 OA
ATOM     14  O   UNL     1      -4.541  14.895  19.120  0.00  0.00    -0.455 OA
ATOM     15  C   UNL     1      -6.315  10.922  19.017  0.00  0.00    -0.002 C 
ATOM     16  C   UNL     1      -5.642   9.787  18.209  0.00  0.00    +0.066 C 
ATOM     17  C   UNL     1      -6.418   8.450  18.364  0.00  0.00    -0.005 C 
ATOM     18  C   UNL     1      -7.889   8.478  17.975  0.00  0.00    -0.070 C 
ATOM     19  C   UNL     1      -8.932   8.423  18.825  0.00  0.00    -0.062 C 
ATOM     20  C   UNL     1      -8.884   8.371  20.271  0.00  0.00    -0.055 C 
ATOM     21  C   UNL     1      -9.999   8.375  21.017  0.00  0.00    +0.023 C 
ATOM     22  C   UNL     1      -9.909   8.351  22.490  0.00  0.00    +0.332 C 
ATOM     23  O   UNL     1      -8.884   8.184  23.134  0.00  0.00    -0.246 OA
ATOM     24  O   UNL     1     -11.155   8.570  22.968  0.00  0.00    -0.457 OA
ATOM     25  C   UNL     1     -11.350   8.616  24.412  0.00  0.00    +0.114 C 
ATOM     26  C   UNL     1     -11.955  10.019  24.738  0.00  0.00    +0.012 C 
ATOM     27  C   UNL     1     -11.045  11.107  24.172  0.00  0.00    -0.079 C 
ATOM     28  C   UNL     1     -10.304  12.010  24.837  0.00  0.00    -0.059 C 
ATOM     29  C   UNL     1      -9.432  13.028  24.151  0.00  0.00    +0.079 C 
ATOM     30  C   UNL     1      -9.788  14.485  24.502  0.00  0.00    +0.004 C 
ATOM     31  C   UNL     1     -11.213  14.975  24.191  0.00  0.00    +0.064 C 
ATOM     32  H   UNL     1     -11.830  13.595  22.637  0.00  0.00    +0.037 HD
ATOM     33  H   UNL     1      -9.915  14.577  21.572  0.00  0.00    +0.057 HD
ATOM     34  H   UNL     1     -11.872  16.844  20.959  0.00  0.00    +0.059 HD
ATOM     35  H   UNL     1     -10.616  16.859  18.849  0.00  0.00    +0.064 HD
ATOM     36  H   UNL     1      -8.328  15.552  20.383  0.00  0.00    +0.032 HD
ATOM     37  H   UNL     1      -9.358  14.749  19.167  0.00  0.00    +0.032 HD
ATOM     38  H   UNL     1      -7.429  17.073  18.657  0.00  0.00    +0.060 HD
ATOM     39  H   UNL     1      -7.357  14.145  17.757  0.00  0.00    +0.036 HD
ATOM     40  H   UNL     1      -6.199  15.478  20.111  0.00  0.00    +0.077 HD
ATOM     41  H   UNL     1      -5.767  13.303  20.966  0.00  0.00    +0.068 HD
ATOM     42  H   UNL     1      -3.896  11.858  17.894  0.00  0.00    +0.069 HD
ATOM     43  H   UNL     1      -6.479  10.559  20.041  0.00  0.00    +0.034 HD
ATOM     44  H   UNL     1      -7.295  11.126  18.569  0.00  0.00    +0.034 HD
ATOM     45  H   UNL     1      -4.627   9.637  18.602  0.00  0.00    +0.060 HD
ATOM     46  H   UNL     1      -6.301   8.116  19.401  0.00  0.00    +0.034 HD
ATOM     47  H   UNL     1      -5.933   7.668  17.770  0.00  0.00    +0.034 HD
ATOM     48  H   UNL     1      -9.938   8.439  18.399  0.00  0.00    +0.062 HD
ATOM     49  H   UNL     1      -7.917   8.337  20.765  0.00  0.00    +0.062 HD
ATOM     50  H   UNL     1     -10.992   8.410  20.584  0.00  0.00    +0.069 HD
ATOM     51  H   UNL     1     -10.370   8.567  24.907  0.00  0.00    +0.074 HD
ATOM     52  H   UNL     1     -12.892  10.140  24.182  0.00  0.00    +0.038 HD
ATOM     53  H   UNL     1     -11.014  11.135  23.081  0.00  0.00    +0.057 HD
ATOM     54  H   UNL     1     -10.293  12.040  25.922  0.00  0.00    +0.059 HD
ATOM     55  H   UNL     1      -9.469  12.905  23.063  0.00  0.00    +0.064 HD
ATOM     56  H   UNL     1      -9.067  15.137  23.990  0.00  0.00    +0.032 HD
ATOM     57  H   UNL     1      -9.593  14.637  25.575  0.00  0.00    +0.032 HD
ATOM     58  H   UNL     1     -11.213  16.061  24.351  0.00  0.00    +0.060 HD
ENDROOT
BRANCH   1  59
ATOM     59  C   UNL     1     -13.192  15.204  22.610  0.00  0.00    -0.057 C 
ATOM     60  H   UNL     1     -13.394  16.026  23.307  0.00  0.00    +0.024 HD
ATOM     61  H   UNL     1     -13.359  15.599  21.600  0.00  0.00    +0.024 HD
ATOM     62  H   UNL     1     -13.930  14.415  22.788  0.00  0.00    +0.024 HD
ENDBRANCH   1  59
BRANCH  26  63
ATOM     63  C   UNL     1     -12.258  10.239  26.221  0.00  0.00    -0.056 C 
ATOM     64  H   UNL     1     -11.567  10.958  26.672  0.00  0.00    +0.024 HD
ATOM     65  H   UNL     1     -13.280  10.611  26.369  0.00  0.00    +0.024 HD
ATOM     66  H   UNL     1     -12.206   9.307  26.785  0.00  0.00    +0.024 HD
ENDBRANCH  26  63
BRANCH  18  67
ATOM     67  C   UNL     1      -8.156   8.545  16.489  0.00  0.00    -0.043 C 
ATOM     68  H   UNL     1      -9.173   8.898  16.294  0.00  0.00    +0.027 HD
ATOM     69  H   UNL     1      -8.052   7.569  16.005  0.00  0.00    +0.027 HD
ATOM     70  H   UNL     1      -7.446   9.222  16.000  0.00  0.00    +0.027 HD
ENDBRANCH  18  67
BRANCH   7  71
ATOM     71  C   UNL     1      -5.976  15.475  16.861  0.00  0.00    -0.057 C 
ATOM     72  H   UNL     1      -4.913  15.527  17.118  0.00  0.00    +0.023 HD
ATOM     73  H   UNL     1      -6.101  14.784  16.023  0.00  0.00    +0.023 HD
ATOM     74  H   UNL     1      -6.283  16.455  16.482  0.00  0.00    +0.023 HD
ENDBRANCH   7  71
BRANCH  31  75
ATOM     75  O   UNL     1     -12.095  14.431  25.182  0.00  0.00    -0.391 OA
ATOM     76  H   UNL     1     -11.553  13.945  25.824  0.00  0.00    +0.210 HD
ENDBRANCH  31  75
BRANCH  25  77
ATOM     77  C   UNL     1     -12.120   7.306  24.788  0.00  0.00    +0.020 C 
ATOM     78  H   UNL     1     -13.068   7.642  25.228  0.00  0.00    +0.036 HD
BRANCH  77  79
ATOM     79  C   UNL     1     -12.537   6.515  23.537  0.00  0.00    -0.057 C 
ATOM     80  H   UNL     1     -12.694   5.456  23.733  0.00  0.00    +0.023 HD
ATOM     81  H   UNL     1     -11.785   6.611  22.746  0.00  0.00    +0.023 HD
ATOM     82  H   UNL     1     -13.478   6.912  23.137  0.00  0.00    +0.023 HD
ENDBRANCH  77  79
BRANCH  77  83
ATOM     83  C   UNL     1     -11.469   6.357  25.850  0.00  0.00    +0.067 C 
ATOM     84  H   UNL     1     -11.109   6.992  26.674  0.00  0.00    +0.060 HD
BRANCH  83  85
ATOM     85  C   UNL     1     -10.223   5.575  25.319  0.00  0.00    -0.017 C 
ATOM     86  H   UNL     1     -10.112   5.733  24.248  0.00  0.00    +0.032 HD
BRANCH  85  87
ATOM     87  C   UNL     1      -8.946   6.128  25.972  0.00  0.00    -0.060 C 
ATOM     88  H   UNL     1      -8.957   5.954  27.050  0.00  0.00    +0.023 HD
ATOM     89  H   UNL     1      -8.049   5.642  25.575  0.00  0.00    +0.023 HD
ATOM     90  H   UNL     1      -8.849   7.206  25.803  0.00  0.00    +0.023 HD
ENDBRANCH  85  87
BRANCH  85  91
ATOM     91  C   UNL     1     -10.283   4.044  25.534  0.00  0.00    -0.041 C 
ATOM     92  H   UNL     1     -10.883   3.819  26.425  0.00  0.00    +0.027 HD
ATOM     93  H   UNL     1      -9.278   3.656  25.747  0.00  0.00    +0.027 HD
BRANCH  91  94
ATOM     94  C   UNL     1     -10.853   3.285  24.327  0.00  0.00    +0.007 C 
ATOM     95  H   UNL     1     -11.925   3.500  24.262  0.00  0.00    +0.034 HD
ATOM     96  H   UNL     1     -10.385   3.628  23.406  0.00  0.00    +0.034 HD
BRANCH  94  97
ATOM     97  C   UNL     1     -10.691   1.770  24.427  0.00  0.00    +0.139 C 
ATOM     98  O   UNL     1      -9.695   1.195  23.977  0.00  0.00    -0.297 OA
BRANCH  97  99
ATOM     99  C   UNL     1     -11.750   0.949  25.165  0.00  0.00    +0.041 C 
ATOM    100  H   UNL     1     -11.934   0.091  24.504  0.00  0.00    +0.040 HD
BRANCH  99 101
ATOM    101  C   UNL     1     -13.109   1.634  25.287  0.00  0.00    -0.053 C 
ATOM    102  H   UNL     1     -13.685   1.273  26.145  0.00  0.00    +0.024 HD
ATOM    103  H   UNL     1     -13.707   1.472  24.385  0.00  0.00    +0.024 HD
ATOM    104  H   UNL     1     -12.984   2.715  25.409  0.00  0.00    +0.024 HD
ENDBRANCH  99 101
BRANCH  99 105
ATOM    105  C   UNL     1     -11.194   0.407  26.501  0.00  0.00    +0.071 C 
ATOM    106  H   UNL     1     -10.313   0.990  26.804  0.00  0.00    +0.061 HD
BRANCH 105 107
ATOM    107  C   UNL     1     -12.224   0.445  27.651  0.00  0.00    -0.006 C 
ATOM    108  H   UNL     1     -13.188   0.807  27.286  0.00  0.00    +0.033 HD
ATOM    109  H   UNL     1     -12.378  -0.566  28.047  0.00  0.00    +0.033 HD
BRANCH 107 110
ATOM    110  C   UNL     1     -11.816   1.364  28.778  0.00  0.00    -0.067 C 
ATOM    111  C   UNL     1     -10.943   2.371  28.617  0.00  0.00    -0.005 C 
ATOM    112  H   UNL     1     -12.256   1.148  29.746  0.00  0.00    +0.059 HD
ATOM    113  H   UNL     1     -10.531   2.556  27.627  0.00  0.00    +0.078 HD
BRANCH 111 114
ATOM    114  N   UNL     1     -10.499   3.227  29.614  0.00  0.00    -0.284 N 
ATOM    115  C   UNL     1     -10.446   2.802  30.938  0.00  0.00    +0.206 C 
ATOM    116  O   UNL     1     -10.075   3.461  31.903  0.00  0.00    -0.279 OA
ATOM    117  H   UNL     1     -10.789   1.760  31.066  0.00  0.00    +0.126 HD
BRANCH 114 118
ATOM    118  C   UNL     1     -10.070   4.586  29.317  0.00  0.00    +0.007 C 
ATOM    119  H   UNL     1     -10.935   5.188  29.018  0.00  0.00    +0.043 HD
ATOM    120  H   UNL     1      -9.608   5.066  30.184  0.00  0.00    +0.043 HD
ATOM    121  H   UNL     1      -9.333   4.559  28.507  0.00  0.00    +0.043 HD
ENDBRANCH 114 118
ENDBRANCH 111 114
ENDBRANCH 107 110
ENDBRANCH 105 107
BRANCH 105 122
ATOM    122  O   UNL     1     -10.821  -0.974  26.326  0.00  0.00    -0.379 OA
BRANCH 122 123
ATOM    123  C   UNL     1     -11.682  -1.682  25.442  0.00  0.00    +0.037 C 
ATOM    124  H   UNL     1     -12.538  -2.044  26.017  0.00  0.00    +0.052 HD
ATOM    125  H   UNL     1     -11.164  -2.544  25.014  0.00  0.00    +0.052 HD
ATOM    126  H   UNL     1     -12.050  -1.030  24.645  0.00  0.00    +0.052 HD
ENDBRANCH 122 123
ENDBRANCH 105 122
ENDBRANCH  99 105
ENDBRANCH  97  99
ENDBRANCH  94  97
ENDBRANCH  91  94
ENDBRANCH  85  91
ENDBRANCH  83  85
BRANCH  83 127
ATOM    127  O   UNL     1     -12.456   5.462  26.358  0.00  0.00    -0.379 OA
BRANCH 127 128
ATOM    128  C   UNL     1     -13.110   5.932  27.534  0.00  0.00    +0.037 C 
ATOM    129  H   UNL     1     -12.906   6.996  27.690  0.00  0.00    +0.052 HD
ATOM    130  H   UNL     1     -12.714   5.370  28.384  0.00  0.00    +0.052 HD
ATOM    131  H   UNL     1     -14.188   5.760  27.472  0.00  0.00    +0.052 HD
ENDBRANCH 127 128
ENDBRANCH  83 127
ENDBRANCH  77  83
ENDBRANCH  25  77
BRANCH   9 132
ATOM    132  O   UNL     1      -7.622  13.108  20.149  0.00  0.00    -0.384 OA
ATOM    133  H   UNL     1      -7.982  13.862  20.648  0.00  0.00    +0.210 HD
ENDBRANCH   9 132
BRANCH  29 134
ATOM    134  O   UNL     1      -8.068  12.836  24.565  0.00  0.00    -0.376 OA
BRANCH 134 135
ATOM    135  C   UNL     1      -7.146  13.722  23.944  0.00  0.00    +0.037 C 
ATOM    136  H   UNL     1      -6.618  13.169  23.162  0.00  0.00    +0.052 HD
ATOM    137  H   UNL     1      -7.663  14.563  23.473  0.00  0.00    +0.052 HD
ATOM    138  H   UNL     1      -6.406  14.085  24.666  0.00  0.00    +0.052 HD
ENDBRANCH 134 135
ENDBRANCH  29 134
BRANCH   6 139
ATOM    139  O   UNL     1      -8.699  16.337  17.161  0.00  0.00    -0.379 OA
BRANCH 139 140
ATOM    140  C   UNL     1      -9.502  15.210  16.827  0.00  0.00    +0.037 C 
ATOM    141  H   UNL     1     -10.524  15.556  16.651  0.00  0.00    +0.052 HD
ATOM    142  H   UNL     1      -9.134  14.735  15.915  0.00  0.00    +0.052 HD
ATOM    143  H   UNL     1      -9.515  14.484  17.644  0.00  0.00    +0.052 HD
ENDBRANCH 139 140
ENDBRANCH   6 139
BRANCH  16 144
ATOM    144  O   UNL     1      -5.552  10.192  16.835  0.00  0.00    -0.379 OA
BRANCH 144 145
ATOM    145  C   UNL     1      -4.597   9.461  16.077  0.00  0.00    +0.037 C 
ATOM    146  H   UNL     1      -3.861   8.987  16.735  0.00  0.00    +0.052 HD
ATOM    147  H   UNL     1      -4.073  10.164  15.421  0.00  0.00    +0.052 HD
ATOM    148  H   UNL     1      -5.084   8.709  15.449  0.00  0.00    +0.052 HD
ENDBRANCH 144 145
ENDBRANCH  16 144
BRANCH   4 149
ATOM    149  O   UNL     1      -9.425  17.933  20.180  0.00  0.00    -0.376 OA
BRANCH 149 150
ATOM    150  C   UNL     1      -8.704  17.830  21.401  0.00  0.00    +0.037 C 
ATOM    151  H   UNL     1      -7.780  17.261  21.263  0.00  0.00    +0.052 HD
ATOM    152  H   UNL     1      -9.331  17.299  22.120  0.00  0.00    +0.052 HD
ATOM    153  H   UNL     1      -8.480  18.819  21.809  0.00  0.00    +0.052 HD
ENDBRANCH 149 150
ENDBRANCH   4 149
TORSDOF 33
ENDMDL
MODEL 9
REMARK VINA RESULT:      -4.9      4.844     12.002
REMARK  Name = Sphinxolide B_conf1
REMARK  33 active torsions:
REMARK  status: ('A' for Active; 'I' for Inactive)
REMARK    1  A    between atoms: C_1  and  C_2
REMARK    2  A    between atoms: C_5  and  O_67
REMARK    3  A    between atoms: C_7  and  O_65
REMARK    4  A    between atoms: C_8  and  C_64
REMARK    5  A    between atoms: C_10  and  O_63
REMARK    6  A    between atoms: C_17  and  O_61
REMARK    7  A    between atoms: C_19  and  C_60
REMARK    8  A    between atoms: C_26  and  C_37
REMARK    9  A    between atoms: C_27  and  C_36
REMARK   10  A    between atoms: C_30  and  O_34
REMARK   11  A    between atoms: C_32  and  O_33
REMARK   12  A    between atoms: O_34  and  C_35
REMARK   13  A    between atoms: C_37  and  C_38
REMARK   14  A    between atoms: C_37  and  C_39
REMARK   15  A    between atoms: C_39  and  C_40
REMARK   16  A    between atoms: C_39  and  O_58
REMARK   17  A    between atoms: C_40  and  C_41
REMARK   18  A    between atoms: C_40  and  C_42
REMARK   19  A    between atoms: C_42  and  C_43
REMARK   20  A    between atoms: C_43  and  C_44
REMARK   21  A    between atoms: C_44  and  C_46
REMARK   22  A    between atoms: C_46  and  C_47
REMARK   23  A    between atoms: C_46  and  C_48
REMARK   24  A    between atoms: C_48  and  C_49
REMARK   25  A    between atoms: C_48  and  O_56
REMARK   26  A    between atoms: C_49  and  C_50
REMARK   27  A    between atoms: C_51  and  N_52
REMARK   28  A    between atoms: N_52  and  C_53
REMARK   29  A    between atoms: O_56  and  C_57
REMARK   30  A    between atoms: O_58  and  C_59
REMARK   31  A    between atoms: O_61  and  C_62
REMARK   32  A    between atoms: O_65  and  C_66
REMARK   33  A    between atoms: O_67  and  C_68
REMARK                            x       y       z     vdW  Elec       q    Type
REMARK                         _______ _______ _______ _____ _____    ______ ____
ROOT
ATOM      1  C   UNL     1      -9.270  13.132  24.699  0.00  0.00    +0.000 C 
ATOM      2  C   UNL     1     -10.173  12.050  24.141  0.00  0.00    -0.080 C 
ATOM      3  C   UNL     1     -10.860  11.110  24.816  0.00  0.00    -0.059 C 
ATOM      4  C   UNL     1     -11.740  10.014  24.230  0.00  0.00    +0.079 C 
ATOM      5  C   UNL     1     -11.623   9.884  22.702  0.00  0.00    +0.004 C 
ATOM      6  C   UNL     1     -12.500   8.788  22.076  0.00  0.00    +0.067 C 
ATOM      7  C   UNL     1     -12.298   8.680  20.521  0.00  0.00    +0.022 C 
ATOM      8  C   UNL     1     -12.640  10.022  19.785  0.00  0.00    +0.138 C 
ATOM      9  C   UNL     1     -11.415  10.791  19.225  0.00  0.00    +0.114 C 
ATOM     10  C   UNL     1     -10.901  10.100  17.986  0.00  0.00    -0.029 C 
ATOM     11  C   UNL     1     -11.808   9.514  17.185  0.00  0.00    +0.024 C 
ATOM     12  C   UNL     1     -13.255   9.534  17.470  0.00  0.00    +0.332 C 
ATOM     13  O   UNL     1     -14.064   9.261  16.592  0.00  0.00    -0.246 OA
ATOM     14  O   UNL     1     -13.628   9.852  18.733  0.00  0.00    -0.455 OA
ATOM     15  C   UNL     1      -9.401  10.109  17.729  0.00  0.00    -0.002 C 
ATOM     16  C   UNL     1      -8.868   9.467  16.425  0.00  0.00    +0.066 C 
ATOM     17  C   UNL     1      -7.348   9.733  16.249  0.00  0.00    -0.005 C 
ATOM     18  C   UNL     1      -6.449   9.270  17.386  0.00  0.00    -0.070 C 
ATOM     19  C   UNL     1      -5.818  10.068  18.270  0.00  0.00    -0.062 C 
ATOM     20  C   UNL     1      -5.891  11.511  18.357  0.00  0.00    -0.055 C 
ATOM     21  C   UNL     1      -5.258  12.195  19.321  0.00  0.00    +0.023 C 
ATOM     22  C   UNL     1      -5.380  13.664  19.394  0.00  0.00    +0.332 C 
ATOM     23  O   UNL     1      -5.912  14.374  18.554  0.00  0.00    -0.246 OA
ATOM     24  O   UNL     1      -4.821  14.052  20.563  0.00  0.00    -0.457 OA
ATOM     25  C   UNL     1      -4.823  15.470  20.902  0.00  0.00    +0.114 C 
ATOM     26  C   UNL     1      -5.580  15.606  22.260  0.00  0.00    +0.012 C 
ATOM     27  C   UNL     1      -6.962  14.967  22.136  0.00  0.00    -0.079 C 
ATOM     28  C   UNL     1      -8.166  15.562  22.167  0.00  0.00    -0.059 C 
ATOM     29  C   UNL     1      -9.463  14.811  22.017  0.00  0.00    +0.079 C 
ATOM     30  C   UNL     1     -10.417  14.977  23.215  0.00  0.00    +0.004 C 
ATOM     31  C   UNL     1      -9.916  14.543  24.603  0.00  0.00    +0.064 C 
ATOM     32  H   UNL     1      -8.358  13.125  24.091  0.00  0.00    +0.037 HD
ATOM     33  H   UNL     1     -10.239  12.053  23.054  0.00  0.00    +0.057 HD
ATOM     34  H   UNL     1     -10.799  11.092  25.902  0.00  0.00    +0.059 HD
ATOM     35  H   UNL     1     -11.454   9.060  24.690  0.00  0.00    +0.064 HD
ATOM     36  H   UNL     1     -11.909  10.843  22.259  0.00  0.00    +0.032 HD
ATOM     37  H   UNL     1     -10.575   9.675  22.458  0.00  0.00    +0.032 HD
ATOM     38  H   UNL     1     -13.558   9.004  22.279  0.00  0.00    +0.060 HD
ATOM     39  H   UNL     1     -11.236   8.443  20.360  0.00  0.00    +0.036 HD
ATOM     40  H   UNL     1     -13.134  10.688  20.502  0.00  0.00    +0.077 HD
ATOM     41  H   UNL     1     -11.731  11.803  18.942  0.00  0.00    +0.068 HD
ATOM     42  H   UNL     1     -11.551   9.010  16.260  0.00  0.00    +0.069 HD
ATOM     43  H   UNL     1      -9.074  11.157  17.750  0.00  0.00    +0.034 HD
ATOM     44  H   UNL     1      -8.937   9.592  18.578  0.00  0.00    +0.034 HD
ATOM     45  H   UNL     1      -9.392   9.926  15.575  0.00  0.00    +0.060 HD
ATOM     46  H   UNL     1      -7.216  10.806  16.068  0.00  0.00    +0.034 HD
ATOM     47  H   UNL     1      -6.991   9.256  15.330  0.00  0.00    +0.034 HD
ATOM     48  H   UNL     1      -5.191   9.593  19.028  0.00  0.00    +0.062 HD
ATOM     49  H   UNL     1      -6.484  12.053  17.625  0.00  0.00    +0.062 HD
ATOM     50  H   UNL     1      -4.654  11.712  20.080  0.00  0.00    +0.069 HD
ATOM     51  H   UNL     1      -5.411  16.015  20.151  0.00  0.00    +0.074 HD
ATOM     52  H   UNL     1      -5.071  14.994  23.014  0.00  0.00    +0.038 HD
ATOM     53  H   UNL     1      -6.940  13.883  22.011  0.00  0.00    +0.057 HD
ATOM     54  H   UNL     1      -8.261  16.637  22.293  0.00  0.00    +0.059 HD
ATOM     55  H   UNL     1      -9.279  13.744  21.855  0.00  0.00    +0.064 HD
ATOM     56  H   UNL     1     -11.342  14.432  22.983  0.00  0.00    +0.032 HD
ATOM     57  H   UNL     1     -10.718  16.035  23.269  0.00  0.00    +0.032 HD
ATOM     58  H   UNL     1     -10.783  14.580  25.276  0.00  0.00    +0.060 HD
ENDROOT
BRANCH   1  59
ATOM     59  C   UNL     1      -8.795  12.849  26.135  0.00  0.00    -0.057 C 
ATOM     60  H   UNL     1      -7.702  12.776  26.186  0.00  0.00    +0.024 HD
ATOM     61  H   UNL     1      -9.090  13.659  26.812  0.00  0.00    +0.024 HD
ATOM     62  H   UNL     1      -9.218  11.916  26.524  0.00  0.00    +0.024 HD
ENDBRANCH   1  59
BRANCH  26  63
ATOM     63  C   UNL     1      -5.656  17.038  22.794  0.00  0.00    -0.056 C 
ATOM     64  H   UNL     1      -6.250  17.096  23.711  0.00  0.00    +0.024 HD
ATOM     65  H   UNL     1      -4.658  17.438  23.008  0.00  0.00    +0.024 HD
ATOM     66  H   UNL     1      -6.088  17.717  22.058  0.00  0.00    +0.024 HD
ENDBRANCH  26  63
BRANCH  18  67
ATOM     67  C   UNL     1      -6.252   7.775  17.477  0.00  0.00    -0.043 C 
ATOM     68  H   UNL     1      -6.494   7.293  16.526  0.00  0.00    +0.027 HD
ATOM     69  H   UNL     1      -6.887   7.319  18.243  0.00  0.00    +0.027 HD
ATOM     70  H   UNL     1      -5.214   7.538  17.739  0.00  0.00    +0.027 HD
ENDBRANCH  18  67
BRANCH   7  71
ATOM     71  C   UNL     1     -13.077   7.474  19.973  0.00  0.00    -0.057 C 
ATOM     72  H   UNL     1     -13.199   6.698  20.737  0.00  0.00    +0.023 HD
ATOM     73  H   UNL     1     -14.066   7.766  19.610  0.00  0.00    +0.023 HD
ATOM     74  H   UNL     1     -12.568   7.028  19.113  0.00  0.00    +0.023 HD
ENDBRANCH   7  71
BRANCH  31  75
ATOM     75  O   UNL     1      -9.006  15.543  25.080  0.00  0.00    -0.391 OA
ATOM     76  H   UNL     1      -9.475  16.079  25.738  0.00  0.00    +0.210 HD
ENDBRANCH  31  75
BRANCH  25  77
ATOM     77  C   UNL     1      -3.340  15.952  20.761  0.00  0.00    +0.020 C 
ATOM     78  H   UNL     1      -3.268  16.855  21.382  0.00  0.00    +0.036 HD
BRANCH  77  79
ATOM     79  C   UNL     1      -2.358  14.962  21.409  0.00  0.00    -0.057 C 
ATOM     80  H   UNL     1      -2.513  13.934  21.087  0.00  0.00    +0.023 HD
ATOM     81  H   UNL     1      -2.435  14.995  22.502  0.00  0.00    +0.023 HD
ATOM     82  H   UNL     1      -1.327  15.229  21.150  0.00  0.00    +0.023 HD
ENDBRANCH  77  79
BRANCH  77  83
ATOM     83  C   UNL     1      -2.841  16.371  19.337  0.00  0.00    +0.067 C 
ATOM     84  H   UNL     1      -3.705  16.300  18.658  0.00  0.00    +0.060 HD
BRANCH  83  85
ATOM     85  C   UNL     1      -1.740  15.429  18.750  0.00  0.00    -0.017 C 
ATOM     86  H   UNL     1      -1.771  14.463  19.249  0.00  0.00    +0.032 HD
BRANCH  85  87
ATOM     87  C   UNL     1      -2.027  15.157  17.265  0.00  0.00    -0.060 C 
ATOM     88  H   UNL     1      -2.271  14.104  17.106  0.00  0.00    +0.023 HD
ATOM     89  H   UNL     1      -2.878  15.744  16.906  0.00  0.00    +0.023 HD
ATOM     90  H   UNL     1      -1.161  15.403  16.642  0.00  0.00    +0.023 HD
ENDBRANCH  85  87
BRANCH  85  91
ATOM     91  C   UNL     1      -0.293  15.957  18.900  0.00  0.00    -0.041 C 
ATOM     92  H   UNL     1      -0.106  16.229  19.947  0.00  0.00    +0.027 HD
ATOM     93  H   UNL     1      -0.170  16.883  18.325  0.00  0.00    +0.027 HD
BRANCH  91  94
ATOM     94  C   UNL     1       0.769  14.949  18.436  0.00  0.00    +0.007 C 
ATOM     95  H   UNL     1       0.266  14.154  17.875  0.00  0.00    +0.034 HD
ATOM     96  H   UNL     1       1.484  15.430  17.769  0.00  0.00    +0.034 HD
BRANCH  94  97
ATOM     97  C   UNL     1       1.532  14.293  19.585  0.00  0.00    +0.139 C 
ATOM     98  O   UNL     1       0.961  13.940  20.621  0.00  0.00    -0.297 OA
BRANCH  97  99
ATOM     99  C   UNL     1       3.024  14.000  19.424  0.00  0.00    +0.041 C 
ATOM    100  H   UNL     1       3.273  14.410  18.435  0.00  0.00    +0.040 HD
BRANCH  99 101
ATOM    101  C   UNL     1       3.369  12.517  19.318  0.00  0.00    -0.053 C 
ATOM    102  H   UNL     1       2.491  11.895  19.116  0.00  0.00    +0.024 HD
ATOM    103  H   UNL     1       3.831  12.159  20.243  0.00  0.00    +0.024 HD
ATOM    104  H   UNL     1       4.084  12.347  18.506  0.00  0.00    +0.024 HD
ENDBRANCH  99 101
BRANCH  99 105
ATOM    105  C   UNL     1       3.852  14.768  20.478  0.00  0.00    +0.071 C 
ATOM    106  H   UNL     1       4.854  14.985  20.083  0.00  0.00    +0.061 HD
BRANCH 105 107
ATOM    107  C   UNL     1       3.201  16.098  20.916  0.00  0.00    -0.006 C 
ATOM    108  H   UNL     1       2.131  16.087  20.696  0.00  0.00    +0.033 HD
ATOM    109  H   UNL     1       3.315  16.231  21.999  0.00  0.00    +0.033 HD
BRANCH 107 110
ATOM    110  C   UNL     1       3.777  17.298  20.204  0.00  0.00    -0.067 C 
ATOM    111  C   UNL     1       3.383  18.556  20.459  0.00  0.00    -0.005 C 
ATOM    112  H   UNL     1       4.523  17.084  19.444  0.00  0.00    +0.059 HD
ATOM    113  H   UNL     1       2.638  18.725  21.233  0.00  0.00    +0.078 HD
BRANCH 111 114
ATOM    114  N   UNL     1       3.843  19.696  19.818  0.00  0.00    -0.284 N 
ATOM    115  C   UNL     1       3.525  20.959  20.308  0.00  0.00    +0.206 C 
ATOM    116  O   UNL     1       3.869  22.036  19.832  0.00  0.00    -0.279 OA
ATOM    117  H   UNL     1       2.895  20.919  21.214  0.00  0.00    +0.126 HD
BRANCH 114 118
ATOM    118  C   UNL     1       4.672  19.618  18.624  0.00  0.00    +0.007 C 
ATOM    119  H   UNL     1       5.183  18.649  18.593  0.00  0.00    +0.043 HD
ATOM    120  H   UNL     1       4.080  19.716  17.710  0.00  0.00    +0.043 HD
ATOM    121  H   UNL     1       5.407  20.430  18.646  0.00  0.00    +0.043 HD
ENDBRANCH 114 118
ENDBRANCH 111 114
ENDBRANCH 107 110
ENDBRANCH 105 107
BRANCH 105 122
ATOM    122  O   UNL     1       3.969  13.955  21.664  0.00  0.00    -0.379 OA
BRANCH 122 123
ATOM    123  C   UNL     1       3.720  14.675  22.865  0.00  0.00    +0.037 C 
ATOM    124  H   UNL     1       4.566  14.517  23.539  0.00  0.00    +0.052 HD
ATOM    125  H   UNL     1       2.815  14.301  23.353  0.00  0.00    +0.052 HD
ATOM    126  H   UNL     1       3.627  15.746  22.670  0.00  0.00    +0.052 HD
ENDBRANCH 122 123
ENDBRANCH 105 122
ENDBRANCH  99 105
ENDBRANCH  97  99
ENDBRANCH  94  97
ENDBRANCH  91  94
ENDBRANCH  85  91
ENDBRANCH  83  85
BRANCH  83 127
ATOM    127  O   UNL     1      -2.393  17.725  19.368  0.00  0.00    -0.379 OA
BRANCH 127 128
ATOM    128  C   UNL     1      -3.420  18.678  19.109  0.00  0.00    +0.037 C 
ATOM    129  H   UNL     1      -4.408  18.212  19.180  0.00  0.00    +0.052 HD
ATOM    130  H   UNL     1      -3.281  19.050  18.090  0.00  0.00    +0.052 HD
ATOM    131  H   UNL     1      -3.350  19.521  19.803  0.00  0.00    +0.052 HD
ENDBRANCH 127 128
ENDBRANCH  83 127
ENDBRANCH  77  83
ENDBRANCH  25  77
BRANCH   9 132
ATOM    132  O   UNL     1     -10.396  10.921  20.203  0.00  0.00    -0.384 OA
ATOM    133  H   UNL     1     -10.806  11.290  21.004  0.00  0.00    +0.210 HD
ENDBRANCH   9 132
BRANCH  29 134
ATOM    134  O   UNL     1     -10.168  15.312  20.868  0.00  0.00    -0.376 OA
BRANCH 134 135
ATOM    135  C   UNL     1      -9.930  16.687  20.599  0.00  0.00    +0.037 C 
ATOM    136  H   UNL     1     -10.822  17.249  20.893  0.00  0.00    +0.052 HD
ATOM    137  H   UNL     1      -9.086  17.064  21.184  0.00  0.00    +0.052 HD
ATOM    138  H   UNL     1      -9.757  16.852  19.530  0.00  0.00    +0.052 HD
ENDBRANCH 134 135
ENDBRANCH  29 134
BRANCH   6 139
ATOM    139  O   UNL     1     -12.114   7.538  22.678  0.00  0.00    -0.379 OA
BRANCH 139 140
ATOM    140  C   UNL     1     -13.167   6.930  23.417  0.00  0.00    +0.037 C 
ATOM    141  H   UNL     1     -12.723   6.287  24.182  0.00  0.00    +0.052 HD
ATOM    142  H   UNL     1     -13.777   7.689  23.911  0.00  0.00    +0.052 HD
ATOM    143  H   UNL     1     -13.796   6.315  22.766  0.00  0.00    +0.052 HD
ENDBRANCH 139 140
ENDBRANCH   6 139
BRANCH  16 144
ATOM    144  O   UNL     1      -9.162   8.064  16.449  0.00  0.00    -0.379 OA
BRANCH 144 145
ATOM    145  C   UNL     1      -9.250   7.467  15.162  0.00  0.00    +0.037 C 
ATOM    146  H   UNL     1      -8.932   6.420  15.199  0.00  0.00    +0.052 HD
ATOM    147  H   UNL     1      -8.577   8.009  14.490  0.00  0.00    +0.052 HD
ATOM    148  H   UNL     1     -10.264   7.542  14.761  0.00  0.00    +0.052 HD
ENDBRANCH 144 145
ENDBRANCH  16 144
BRANCH   4 149
ATOM    149  O   UNL     1     -13.108  10.319  24.540  0.00  0.00    -0.376 OA
BRANCH 149 150
ATOM    150  C   UNL     1     -13.343  10.542  25.924  0.00  0.00    +0.037 C 
ATOM    151  H   UNL     1     -12.848  11.457  26.263  0.00  0.00    +0.052 HD
ATOM    152  H   UNL     1     -12.926   9.698  26.478  0.00  0.00    +0.052 HD
ATOM    153  H   UNL     1     -14.413  10.593  26.137  0.00  0.00    +0.052 HD
ENDBRANCH 149 150
ENDBRANCH   4 149
TORSDOF 33
ENDMDL
MODEL 10
REMARK VINA RESULT:      -4.8     10.951     17.058
REMARK  Name = Sphinxolide B_conf1
REMARK  33 active torsions:
REMARK  status: ('A' for Active; 'I' for Inactive)
REMARK    1  A    between atoms: C_1  and  C_2
REMARK    2  A    between atoms: C_5  and  O_67
REMARK    3  A    between atoms: C_7  and  O_65
REMARK    4  A    between atoms: C_8  and  C_64
REMARK    5  A    between atoms: C_10  and  O_63
REMARK    6  A    between atoms: C_17  and  O_61
REMARK    7  A    between atoms: C_19  and  C_60
REMARK    8  A    between atoms: C_26  and  C_37
REMARK    9  A    between atoms: C_27  and  C_36
REMARK   10  A    between atoms: C_30  and  O_34
REMARK   11  A    between atoms: C_32  and  O_33
REMARK   12  A    between atoms: O_34  and  C_35
REMARK   13  A    between atoms: C_37  and  C_38
REMARK   14  A    between atoms: C_37  and  C_39
REMARK   15  A    between atoms: C_39  and  C_40
REMARK   16  A    between atoms: C_39  and  O_58
REMARK   17  A    between atoms: C_40  and  C_41
REMARK   18  A    between atoms: C_40  and  C_42
REMARK   19  A    between atoms: C_42  and  C_43
REMARK   20  A    between atoms: C_43  and  C_44
REMARK   21  A    between atoms: C_44  and  C_46
REMARK   22  A    between atoms: C_46  and  C_47
REMARK   23  A    between atoms: C_46  and  C_48
REMARK   24  A    between atoms: C_48  and  C_49
REMARK   25  A    between atoms: C_48  and  O_56
REMARK   26  A    between atoms: C_49  and  C_50
REMARK   27  A    between atoms: C_51  and  N_52
REMARK   28  A    between atoms: N_52  and  C_53
REMARK   29  A    between atoms: O_56  and  C_57
REMARK   30  A    between atoms: O_58  and  C_59
REMARK   31  A    between atoms: O_61  and  C_62
REMARK   32  A    between atoms: O_65  and  C_66
REMARK   33  A    between atoms: O_67  and  C_68
REMARK                            x       y       z     vdW  Elec       q    Type
REMARK                         _______ _______ _______ _____ _____    ______ ____
ROOT
ATOM      1  C   UNL     1      -8.673   0.967   7.396  0.00  0.00    +0.000 C 
ATOM      2  C   UNL     1      -8.336  -0.511   7.391  0.00  0.00    -0.080 C 
ATOM      3  C   UNL     1      -8.645  -1.432   6.459  0.00  0.00    -0.059 C 
ATOM      4  C   UNL     1      -8.319  -2.919   6.490  0.00  0.00    +0.079 C 
ATOM      5  C   UNL     1      -7.771  -3.399   7.845  0.00  0.00    +0.004 C 
ATOM      6  C   UNL     1      -7.429  -4.896   7.913  0.00  0.00    +0.067 C 
ATOM      7  C   UNL     1      -6.918  -5.326   9.335  0.00  0.00    +0.022 C 
ATOM      8  C   UNL     1      -5.631  -4.539   9.765  0.00  0.00    +0.138 C 
ATOM      9  C   UNL     1      -5.851  -3.492  10.888  0.00  0.00    +0.114 C 
ATOM     10  C   UNL     1      -6.014  -4.192  12.215  0.00  0.00    -0.029 C 
ATOM     11  C   UNL     1      -5.303  -5.317  12.410  0.00  0.00    +0.024 C 
ATOM     12  C   UNL     1      -4.384  -5.867  11.396  0.00  0.00    +0.332 C 
ATOM     13  O   UNL     1      -3.544  -6.701  11.706  0.00  0.00    -0.246 OA
ATOM     14  O   UNL     1      -4.529  -5.413  10.127  0.00  0.00    -0.455 OA
ATOM     15  C   UNL     1      -6.968  -3.587  13.235  0.00  0.00    -0.002 C 
ATOM     16  C   UNL     1      -7.089  -4.255  14.625  0.00  0.00    +0.066 C 
ATOM     17  C   UNL     1      -7.961  -3.400  15.585  0.00  0.00    -0.005 C 
ATOM     18  C   UNL     1      -9.370  -3.080  15.108  0.00  0.00    -0.070 C 
ATOM     19  C   UNL     1      -9.810  -1.876  14.694  0.00  0.00    -0.062 C 
ATOM     20  C   UNL     1      -9.041  -0.655  14.572  0.00  0.00    -0.055 C 
ATOM     21  C   UNL     1      -9.579   0.476  14.092  0.00  0.00    +0.023 C 
ATOM     22  C   UNL     1      -8.755   1.692  13.955  0.00  0.00    +0.332 C 
ATOM     23  O   UNL     1      -7.616   1.828  14.376  0.00  0.00    -0.246 OA
ATOM     24  O   UNL     1      -9.489   2.594  13.264  0.00  0.00    -0.457 OA
ATOM     25  C   UNL     1      -8.900   3.894  12.967  0.00  0.00    +0.114 C 
ATOM     26  C   UNL     1      -8.908   4.047  11.413  0.00  0.00    +0.012 C 
ATOM     27  C   UNL     1      -8.194   2.852  10.784  0.00  0.00    -0.079 C 
ATOM     28  C   UNL     1      -7.031   2.831  10.109  0.00  0.00    -0.059 C 
ATOM     29  C   UNL     1      -6.426   1.572   9.547  0.00  0.00    +0.079 C 
ATOM     30  C   UNL     1      -6.203   1.618   8.024  0.00  0.00    +0.004 C 
ATOM     31  C   UNL     1      -7.427   1.854   7.122  0.00  0.00    +0.064 C 
ATOM     32  H   UNL     1      -9.053   1.200   8.397  0.00  0.00    +0.037 HD
ATOM     33  H   UNL     1      -7.789  -0.837   8.274  0.00  0.00    +0.057 HD
ATOM     34  H   UNL     1      -9.196  -1.120   5.575  0.00  0.00    +0.059 HD
ATOM     35  H   UNL     1      -9.235  -3.478   6.261  0.00  0.00    +0.064 HD
ATOM     36  H   UNL     1      -6.861  -2.832   8.061  0.00  0.00    +0.032 HD
ATOM     37  H   UNL     1      -8.521  -3.177   8.614  0.00  0.00    +0.032 HD
ATOM     38  H   UNL     1      -6.649  -5.127   7.173  0.00  0.00    +0.060 HD
ATOM     39  H   UNL     1      -7.730  -5.099  10.041  0.00  0.00    +0.036 HD
ATOM     40  H   UNL     1      -5.256  -3.994   8.891  0.00  0.00    +0.077 HD
ATOM     41  H   UNL     1      -4.964  -2.849  10.952  0.00  0.00    +0.068 HD
ATOM     42  H   UNL     1      -5.328  -5.887  13.333  0.00  0.00    +0.069 HD
ATOM     43  H   UNL     1      -6.664  -2.543  13.385  0.00  0.00    +0.034 HD
ATOM     44  H   UNL     1      -7.961  -3.587  12.768  0.00  0.00    +0.034 HD
ATOM     45  H   UNL     1      -6.083  -4.333  15.060  0.00  0.00    +0.060 HD
ATOM     46  H   UNL     1      -7.410  -2.477  15.802  0.00  0.00    +0.034 HD
ATOM     47  H   UNL     1      -8.045  -3.900  16.556  0.00  0.00    +0.034 HD
ATOM     48  H   UNL     1     -10.856  -1.792  14.391  0.00  0.00    +0.062 HD
ATOM     49  H   UNL     1      -7.996  -0.659  14.870  0.00  0.00    +0.062 HD
ATOM     50  H   UNL     1     -10.614   0.542  13.776  0.00  0.00    +0.069 HD
ATOM     51  H   UNL     1      -7.847   3.889  13.284  0.00  0.00    +0.074 HD
ATOM     52  H   UNL     1      -9.939   3.960  11.053  0.00  0.00    +0.038 HD
ATOM     53  H   UNL     1      -8.720   1.904  10.908  0.00  0.00    +0.057 HD
ATOM     54  H   UNL     1      -6.458   3.739   9.945  0.00  0.00    +0.059 HD
ATOM     55  H   UNL     1      -7.043   0.700   9.790  0.00  0.00    +0.064 HD
ATOM     56  H   UNL     1      -5.718   0.678   7.729  0.00  0.00    +0.032 HD
ATOM     57  H   UNL     1      -5.456   2.400   7.810  0.00  0.00    +0.032 HD
ATOM     58  H   UNL     1      -7.093   1.685   6.089  0.00  0.00    +0.060 HD
ENDROOT
BRANCH   1  59
ATOM     59  C   UNL     1      -9.821   1.333   6.438  0.00  0.00    -0.057 C 
ATOM     60  H   UNL     1     -10.753   0.831   6.724  0.00  0.00    +0.024 HD
ATOM     61  H   UNL     1     -10.022   2.411   6.462  0.00  0.00    +0.024 HD
ATOM     62  H   UNL     1      -9.588   1.058   5.404  0.00  0.00    +0.024 HD
ENDBRANCH   1  59
BRANCH  26  63
ATOM     63  C   UNL     1      -8.347   5.379  10.913  0.00  0.00    -0.056 C 
ATOM     64  H   UNL     1      -8.460   5.483   9.829  0.00  0.00    +0.024 HD
ATOM     65  H   UNL     1      -8.850   6.229  11.390  0.00  0.00    +0.024 HD
ATOM     66  H   UNL     1      -7.292   5.490  11.164  0.00  0.00    +0.024 HD
ENDBRANCH  26  63
BRANCH  18  67
ATOM     67  C   UNL     1     -10.337  -4.240  15.147  0.00  0.00    -0.043 C 
ATOM     68  H   UNL     1     -10.840  -4.294  16.116  0.00  0.00    +0.027 HD
ATOM     69  H   UNL     1      -9.838  -5.201  14.987  0.00  0.00    +0.027 HD
ATOM     70  H   UNL     1     -11.094  -4.138  14.360  0.00  0.00    +0.027 HD
ENDBRANCH  18  67
BRANCH   7  71
ATOM     71  C   UNL     1      -6.739  -6.852   9.389  0.00  0.00    -0.057 C 
ATOM     72  H   UNL     1      -7.452  -7.312  10.081  0.00  0.00    +0.023 HD
ATOM     73  H   UNL     1      -6.865  -7.305   8.402  0.00  0.00    +0.023 HD
ATOM     74  H   UNL     1      -5.728  -7.123   9.710  0.00  0.00    +0.023 HD
ENDBRANCH   7  71
BRANCH  31  75
ATOM     75  O   UNL     1      -7.774   3.243   7.199  0.00  0.00    -0.391 OA
ATOM     76  H   UNL     1      -6.963   3.758   7.060  0.00  0.00    +0.210 HD
ENDBRANCH  31  75
BRANCH  25  77
ATOM     77  C   UNL     1      -9.647   4.926  13.876  0.00  0.00    +0.020 C 
ATOM     78  H   UNL     1     -10.246   5.539  13.189  0.00  0.00    +0.036 HD
BRANCH  77  79
ATOM     79  C   UNL     1     -10.684   4.239  14.780  0.00  0.00    -0.057 C 
ATOM     80  H   UNL     1     -10.266   3.425  15.368  0.00  0.00    +0.023 HD
ATOM     81  H   UNL     1     -11.517   3.844  14.188  0.00  0.00    +0.023 HD
ATOM     82  H   UNL     1     -11.107   4.964  15.487  0.00  0.00    +0.023 HD
ENDBRANCH  77  79
BRANCH  77  83
ATOM     83  C   UNL     1      -8.778   5.935  14.701  0.00  0.00    +0.067 C 
ATOM     84  H   UNL     1      -7.770   5.930  14.259  0.00  0.00    +0.060 HD
BRANCH  83  85
ATOM     85  C   UNL     1      -8.603   5.538  16.203  0.00  0.00    -0.017 C 
ATOM     86  H   UNL     1      -9.531   5.119  16.588  0.00  0.00    +0.032 HD
BRANCH  85  87
ATOM     87  C   UNL     1      -7.546   4.429  16.327  0.00  0.00    -0.060 C 
ATOM     88  H   UNL     1      -7.342   4.206  17.377  0.00  0.00    +0.023 HD
ATOM     89  H   UNL     1      -7.882   3.498  15.859  0.00  0.00    +0.023 HD
ATOM     90  H   UNL     1      -6.604   4.724  15.853  0.00  0.00    +0.023 HD
ENDBRANCH  85  87
BRANCH  85  91
ATOM     91  C   UNL     1      -8.225   6.709  17.141  0.00  0.00    -0.041 C 
ATOM     92  H   UNL     1      -8.354   6.402  18.186  0.00  0.00    +0.027 HD
ATOM     93  H   UNL     1      -8.917   7.548  16.991  0.00  0.00    +0.027 HD
BRANCH  91  94
ATOM     94  C   UNL     1      -6.791   7.215  16.929  0.00  0.00    +0.007 C 
ATOM     95  H   UNL     1      -6.104   6.378  17.095  0.00  0.00    +0.034 HD
ATOM     96  H   UNL     1      -6.657   7.562  15.905  0.00  0.00    +0.034 HD
BRANCH  94  97
ATOM     97  C   UNL     1      -6.393   8.337  17.885  0.00  0.00    +0.139 C 
ATOM     98  O   UNL     1      -6.312   8.150  19.103  0.00  0.00    -0.297 OA
BRANCH  97  99
ATOM     99  C   UNL     1      -6.014   9.706  17.319  0.00  0.00    +0.041 C 
ATOM    100  H   UNL     1      -6.945  10.077  16.867  0.00  0.00    +0.040 HD
BRANCH  99 101
ATOM    101  C   UNL     1      -5.022   9.660  16.160  0.00  0.00    -0.053 C 
ATOM    102  H   UNL     1      -4.147   9.040  16.381  0.00  0.00    +0.024 HD
ATOM    103  H   UNL     1      -4.669  10.665  15.910  0.00  0.00    +0.024 HD
ATOM    104  H   UNL     1      -5.498   9.246  15.265  0.00  0.00    +0.024 HD
ENDBRANCH  99 101
BRANCH  99 105
ATOM    105  C   UNL     1      -5.617  10.679  18.452  0.00  0.00    +0.071 C 
ATOM    106  H   UNL     1      -5.202  10.118  19.300  0.00  0.00    +0.061 HD
BRANCH 105 107
ATOM    107  C   UNL     1      -4.582  11.737  18.012  0.00  0.00    -0.006 C 
ATOM    108  H   UNL     1      -3.601  11.275  17.874  0.00  0.00    +0.033 HD
ATOM    109  H   UNL     1      -4.879  12.175  17.052  0.00  0.00    +0.033 HD
BRANCH 107 110
ATOM    110  C   UNL     1      -4.400  12.841  19.027  0.00  0.00    -0.067 C 
ATOM    111  C   UNL     1      -3.616  13.909  18.810  0.00  0.00    -0.005 C 
ATOM    112  H   UNL     1      -4.928  12.710  19.966  0.00  0.00    +0.059 HD
ATOM    113  H   UNL     1      -3.111  14.003  17.851  0.00  0.00    +0.078 HD
BRANCH 111 114
ATOM    114  N   UNL     1      -3.378  14.937  19.711  0.00  0.00    -0.284 N 
ATOM    115  C   UNL     1      -3.025  16.205  19.258  0.00  0.00    +0.206 C 
ATOM    116  O   UNL     1      -2.790  17.188  19.951  0.00  0.00    -0.279 OA
ATOM    117  H   UNL     1      -2.964  16.263  18.157  0.00  0.00    +0.126 HD
BRANCH 114 118
ATOM    118  C   UNL     1      -3.492  14.733  21.147  0.00  0.00    +0.007 C 
ATOM    119  H   UNL     1      -2.496  14.586  21.578  0.00  0.00    +0.043 HD
ATOM    120  H   UNL     1      -3.951  15.592  21.645  0.00  0.00    +0.043 HD
ATOM    121  H   UNL     1      -4.116  13.853  21.335  0.00  0.00    +0.043 HD
ENDBRANCH 114 118
ENDBRANCH 111 114
ENDBRANCH 107 110
ENDBRANCH 105 107
BRANCH 105 122
ATOM    122  O   UNL     1      -6.789  11.402  18.880  0.00  0.00    -0.379 OA
BRANCH 122 123
ATOM    123  C   UNL     1      -7.664  11.739  17.810  0.00  0.00    +0.037 C 
ATOM    124  H   UNL     1      -7.346  12.701  17.401  0.00  0.00    +0.052 HD
ATOM    125  H   UNL     1      -8.690  11.840  18.175  0.00  0.00    +0.052 HD
ATOM    126  H   UNL     1      -7.619  10.991  17.015  0.00  0.00    +0.052 HD
ENDBRANCH 122 123
ENDBRANCH 105 122
ENDBRANCH  99 105
ENDBRANCH  97  99
ENDBRANCH  94  97
ENDBRANCH  91  94
ENDBRANCH  85  91
ENDBRANCH  83  85
BRANCH  83 127
ATOM    127  O   UNL     1      -9.325   7.247  14.579  0.00  0.00    -0.379 OA
BRANCH 127 128
ATOM    128  C   UNL     1      -9.796   7.556  13.270  0.00  0.00    +0.037 C 
ATOM    129  H   UNL     1      -8.971   7.879  12.629  0.00  0.00    +0.052 HD
ATOM    130  H   UNL     1     -10.514   8.375  13.359  0.00  0.00    +0.052 HD
ATOM    131  H   UNL     1     -10.302   6.693  12.828  0.00  0.00    +0.052 HD
ENDBRANCH 127 128
ENDBRANCH  83 127
ENDBRANCH  77  83
ENDBRANCH  25  77
BRANCH   9 132
ATOM    132  O   UNL     1      -6.963  -2.658  10.606  0.00  0.00    -0.384 OA
ATOM    133  H   UNL     1      -7.489  -2.588  11.421  0.00  0.00    +0.210 HD
ENDBRANCH   9 132
BRANCH  29 134
ATOM    134  O   UNL     1      -5.130   1.367  10.137  0.00  0.00    -0.376 OA
BRANCH 134 135
ATOM    135  C   UNL     1      -4.863   0.016  10.490  0.00  0.00    +0.037 C 
ATOM    136  H   UNL     1      -5.688  -0.342  11.112  0.00  0.00    +0.052 HD
ATOM    137  H   UNL     1      -4.811  -0.620   9.601  0.00  0.00    +0.052 HD
ATOM    138  H   UNL     1      -3.937  -0.061  11.070  0.00  0.00    +0.052 HD
ENDBRANCH 134 135
ENDBRANCH  29 134
BRANCH   6 139
ATOM    139  O   UNL     1      -8.637  -5.622   7.619  0.00  0.00    -0.379 OA
BRANCH 139 140
ATOM    140  C   UNL     1      -9.697  -5.321   8.520  0.00  0.00    +0.037 C 
ATOM    141  H   UNL     1     -10.646  -5.485   8.001  0.00  0.00    +0.052 HD
ATOM    142  H   UNL     1      -9.659  -5.979   9.390  0.00  0.00    +0.052 HD
ATOM    143  H   UNL     1      -9.652  -4.277   8.842  0.00  0.00    +0.052 HD
ENDBRANCH 139 140
ENDBRANCH   6 139
BRANCH  16 144
ATOM    144  O   UNL     1      -7.625  -5.575  14.457  0.00  0.00    -0.379 OA
BRANCH 144 145
ATOM    145  C   UNL     1      -7.262  -6.485  15.487  0.00  0.00    +0.037 C 
ATOM    146  H   UNL     1      -7.163  -5.964  16.445  0.00  0.00    +0.052 HD
ATOM    147  H   UNL     1      -6.291  -6.921  15.229  0.00  0.00    +0.052 HD
ATOM    148  H   UNL     1      -7.988  -7.297  15.569  0.00  0.00    +0.052 HD
ENDBRANCH 144 145
ENDBRANCH  16 144
BRANCH   4 149
ATOM    149  O   UNL     1      -7.319  -3.183   5.495  0.00  0.00    -0.376 OA
BRANCH 149 150
ATOM    150  C   UNL     1      -7.464  -2.398   4.320  0.00  0.00    +0.037 C 
ATOM    151  H   UNL     1      -6.576  -1.782   4.148  0.00  0.00    +0.052 HD
ATOM    152  H   UNL     1      -8.322  -1.737   4.458  0.00  0.00    +0.052 HD
ATOM    153  H   UNL     1      -7.658  -3.029   3.449  0.00  0.00    +0.052 HD
ENDBRANCH 149 150
ENDBRANCH   4 149
TORSDOF 33
ENDMDL
