MODEL 1
REMARK VINA RESULT:      -5.6      0.000      0.000
REMARK  Name = Sphinxolide B_conf2
REMARK  33 active torsions:
REMARK  status: ('A' for Active; 'I' for Inactive)
REMARK    1  A    between atoms: C_1  and  C_2
REMARK    2  A    between atoms: C_5  and  O_67
REMARK    3  A    between atoms: C_7  and  O_65
REMARK    4  A    between atoms: C_8  and  C_64
REMARK    5  A    between atoms: C_10  and  O_63
REMARK    6  A    between atoms: C_17  and  O_61
REMARK    7  A    between atoms: C_19  and  C_60
REMARK    8  A    between atoms: C_26  and  C_37
REMARK    9  A    between atoms: C_27  and  C_36
REMARK   10  A    between atoms: C_30  and  O_34
REMARK   11  A    between atoms: C_32  and  O_33
REMARK   12  A    between atoms: O_34  and  C_35
REMARK   13  A    between atoms: C_37  and  C_38
REMARK   14  A    between atoms: C_37  and  C_39
REMARK   15  A    between atoms: C_39  and  C_40
REMARK   16  A    between atoms: C_39  and  O_58
REMARK   17  A    between atoms: C_40  and  C_41
REMARK   18  A    between atoms: C_40  and  C_42
REMARK   19  A    between atoms: C_42  and  C_43
REMARK   20  A    between atoms: C_43  and  C_44
REMARK   21  A    between atoms: C_44  and  C_46
REMARK   22  A    between atoms: C_46  and  C_47
REMARK   23  A    between atoms: C_46  and  C_48
REMARK   24  A    between atoms: C_48  and  C_49
REMARK   25  A    between atoms: C_48  and  O_56
REMARK   26  A    between atoms: C_49  and  C_50
REMARK   27  A    between atoms: C_51  and  N_52
REMARK   28  A    between atoms: N_52  and  C_53
REMARK   29  A    between atoms: O_56  and  C_57
REMARK   30  A    between atoms: O_58  and  C_59
REMARK   31  A    between atoms: O_61  and  C_62
REMARK   32  A    between atoms: O_65  and  C_66
REMARK   33  A    between atoms: O_67  and  C_68
REMARK                            x       y       z     vdW  Elec       q    Type
REMARK                         _______ _______ _______ _____ _____    ______ ____
ROOT
ATOM      1  C   UNL     1      -9.126  14.410  22.879  0.00  0.00    +0.000 C 
ATOM      2  C   UNL     1      -8.035  15.297  22.293  0.00  0.00    -0.080 C 
ATOM      3  C   UNL     1      -6.820  15.492  22.838  0.00  0.00    -0.059 C 
ATOM      4  C   UNL     1      -5.800  16.466  22.317  0.00  0.00    +0.079 C 
ATOM      5  C   UNL     1      -4.441  15.792  22.077  0.00  0.00    +0.004 C 
ATOM      6  C   UNL     1      -4.388  14.743  20.946  0.00  0.00    +0.067 C 
ATOM      7  C   UNL     1      -4.840  15.263  19.551  0.00  0.00    +0.022 C 
ATOM      8  C   UNL     1      -4.506  14.303  18.359  0.00  0.00    +0.138 C 
ATOM      9  C   UNL     1      -4.930  12.814  18.420  0.00  0.00    +0.114 C 
ATOM     10  C   UNL     1      -6.395  12.656  18.125  0.00  0.00    -0.029 C 
ATOM     11  C   UNL     1      -7.031  13.607  17.421  0.00  0.00    +0.024 C 
ATOM     12  C   UNL     1      -6.338  14.775  16.847  0.00  0.00    +0.332 C 
ATOM     13  O   UNL     1      -6.932  15.561  16.122  0.00  0.00    -0.246 OA
ATOM     14  O   UNL     1      -5.020  14.895  17.133  0.00  0.00    -0.455 OA
ATOM     15  C   UNL     1      -7.096  11.361  18.493  0.00  0.00    -0.002 C 
ATOM     16  C   UNL     1      -6.409  10.081  17.954  0.00  0.00    +0.066 C 
ATOM     17  C   UNL     1      -7.312   8.821  18.092  0.00  0.00    -0.005 C 
ATOM     18  C   UNL     1      -8.697   8.903  17.458  0.00  0.00    -0.070 C 
ATOM     19  C   UNL     1      -9.872   8.640  18.061  0.00  0.00    -0.062 C 
ATOM     20  C   UNL     1     -10.156   8.169  19.397  0.00  0.00    -0.055 C 
ATOM     21  C   UNL     1      -9.650   8.641  20.544  0.00  0.00    +0.023 C 
ATOM     22  C   UNL     1     -10.061   8.146  21.873  0.00  0.00    +0.332 C 
ATOM     23  O   UNL     1      -9.382   8.316  22.874  0.00  0.00    -0.246 OA
ATOM     24  O   UNL     1     -11.286   7.566  21.819  0.00  0.00    -0.457 OA
ATOM     25  C   UNL     1     -12.009   7.436  23.062  0.00  0.00    +0.114 C 
ATOM     26  C   UNL     1     -13.075   8.589  23.078  0.00  0.00    +0.012 C 
ATOM     27  C   UNL     1     -12.490   9.987  22.975  0.00  0.00    -0.079 C 
ATOM     28  C   UNL     1     -11.545  10.511  23.777  0.00  0.00    -0.059 C 
ATOM     29  C   UNL     1     -10.961  11.910  23.699  0.00  0.00    +0.079 C 
ATOM     30  C   UNL     1      -9.612  11.842  22.962  0.00  0.00    +0.004 C 
ATOM     31  C   UNL     1      -8.623  12.988  23.244  0.00  0.00    +0.064 C 
ATOM     32  H   UNL     1      -9.875  14.309  22.083  0.00  0.00    +0.037 HD
ATOM     33  H   UNL     1      -8.317  15.857  21.402  0.00  0.00    +0.057 HD
ATOM     34  H   UNL     1      -6.560  14.975  23.761  0.00  0.00    +0.059 HD
ATOM     35  H   UNL     1      -6.147  16.957  21.402  0.00  0.00    +0.064 HD
ATOM     36  H   UNL     1      -3.670  16.556  21.911  0.00  0.00    +0.032 HD
ATOM     37  H   UNL     1      -4.126  15.326  23.021  0.00  0.00    +0.032 HD
ATOM     38  H   UNL     1      -5.044  13.913  21.231  0.00  0.00    +0.060 HD
ATOM     39  H   UNL     1      -5.924  15.425  19.578  0.00  0.00    +0.036 HD
ATOM     40  H   UNL     1      -3.413  14.304  18.239  0.00  0.00    +0.077 HD
ATOM     41  H   UNL     1      -4.385  12.278  17.632  0.00  0.00    +0.068 HD
ATOM     42  H   UNL     1      -8.076  13.521  17.144  0.00  0.00    +0.069 HD
ATOM     43  H   UNL     1      -8.124  11.412  18.114  0.00  0.00    +0.034 HD
ATOM     44  H   UNL     1      -7.185  11.295  19.586  0.00  0.00    +0.034 HD
ATOM     45  H   UNL     1      -5.502   9.910  18.548  0.00  0.00    +0.060 HD
ATOM     46  H   UNL     1      -7.380   8.580  19.157  0.00  0.00    +0.034 HD
ATOM     47  H   UNL     1      -6.806   7.964  17.632  0.00  0.00    +0.034 HD
ATOM     48  H   UNL     1     -10.780   8.705  17.459  0.00  0.00    +0.062 HD
ATOM     49  H   UNL     1     -10.924   7.396  19.425  0.00  0.00    +0.062 HD
ATOM     50  H   UNL     1      -8.905   9.426  20.572  0.00  0.00    +0.069 HD
ATOM     51  H   UNL     1     -11.346   7.565  23.926  0.00  0.00    +0.074 HD
ATOM     52  H   UNL     1     -13.692   8.478  22.178  0.00  0.00    +0.038 HD
ATOM     53  H   UNL     1     -12.895  10.602  22.173  0.00  0.00    +0.057 HD
ATOM     54  H   UNL     1     -11.122   9.897  24.569  0.00  0.00    +0.059 HD
ATOM     55  H   UNL     1     -10.819  12.283  24.720  0.00  0.00    +0.064 HD
ATOM     56  H   UNL     1      -9.789  11.798  21.880  0.00  0.00    +0.032 HD
ATOM     57  H   UNL     1      -9.097  10.915  23.246  0.00  0.00    +0.032 HD
ATOM     58  H   UNL     1      -7.733  12.768  22.636  0.00  0.00    +0.060 HD
ENDROOT
BRANCH   1  59
ATOM     59  C   UNL     1      -9.756  15.170  24.054  0.00  0.00    -0.057 C 
ATOM     60  H   UNL     1     -10.403  15.985  23.713  0.00  0.00    +0.024 HD
ATOM     61  H   UNL     1     -10.372  14.496  24.663  0.00  0.00    +0.024 HD
ATOM     62  H   UNL     1      -9.005  15.610  24.710  0.00  0.00    +0.024 HD
ENDBRANCH   1  59
BRANCH  26  63
ATOM     63  C   UNL     1     -14.013   8.540  24.291  0.00  0.00    -0.056 C 
ATOM     64  H   UNL     1     -13.761   9.318  25.020  0.00  0.00    +0.024 HD
ATOM     65  H   UNL     1     -13.957   7.572  24.799  0.00  0.00    +0.024 HD
ATOM     66  H   UNL     1     -15.053   8.713  23.996  0.00  0.00    +0.024 HD
ENDBRANCH  26  63
BRANCH  18  67
ATOM     67  C   UNL     1      -8.712   9.249  15.983  0.00  0.00    -0.043 C 
ATOM     68  H   UNL     1      -8.346  10.264  15.793  0.00  0.00    +0.027 HD
ATOM     69  H   UNL     1      -8.075   8.567  15.414  0.00  0.00    +0.027 HD
ATOM     70  H   UNL     1      -9.733   9.200  15.591  0.00  0.00    +0.027 HD
ENDBRANCH  18  67
BRANCH   7  71
ATOM     71  C   UNL     1      -4.200  16.635  19.226  0.00  0.00    -0.057 C 
ATOM     72  H   UNL     1      -3.119  16.627  19.393  0.00  0.00    +0.023 HD
ATOM     73  H   UNL     1      -4.630  17.427  19.851  0.00  0.00    +0.023 HD
ATOM     74  H   UNL     1      -4.339  16.918  18.180  0.00  0.00    +0.023 HD
ENDBRANCH   7  71
BRANCH  31  75
ATOM     75  O   UNL     1      -8.201  12.919  24.609  0.00  0.00    -0.391 OA
ATOM     76  H   UNL     1      -8.721  12.217  25.038  0.00  0.00    +0.210 HD
ENDBRANCH  31  75
BRANCH  25  77
ATOM     77  C   UNL     1     -12.633   6.010  23.150  0.00  0.00    +0.020 C 
ATOM     78  H   UNL     1     -13.711   6.164  23.252  0.00  0.00    +0.036 HD
BRANCH  77  79
ATOM     79  C   UNL     1     -12.488   5.194  21.861  0.00  0.00    -0.057 C 
ATOM     80  H   UNL     1     -12.153   5.825  21.029  0.00  0.00    +0.023 HD
ATOM     81  H   UNL     1     -13.453   4.767  21.564  0.00  0.00    +0.023 HD
ATOM     82  H   UNL     1     -11.768   4.377  21.954  0.00  0.00    +0.023 HD
ENDBRANCH  77  79
BRANCH  77  83
ATOM     83  C   UNL     1     -12.213   5.224  24.441  0.00  0.00    +0.067 C 
ATOM     84  H   UNL     1     -13.103   4.787  24.912  0.00  0.00    +0.060 HD
BRANCH  83  85
ATOM     85  C   UNL     1     -11.399   5.981  25.537  0.00  0.00    -0.017 C 
ATOM     86  H   UNL     1     -11.590   7.056  25.426  0.00  0.00    +0.032 HD
BRANCH  85  87
ATOM     87  C   UNL     1     -11.781   5.587  26.965  0.00  0.00    -0.060 C 
ATOM     88  H   UNL     1     -12.839   5.329  27.034  0.00  0.00    +0.023 HD
ATOM     89  H   UNL     1     -11.189   4.738  27.320  0.00  0.00    +0.023 HD
ATOM     90  H   UNL     1     -11.623   6.420  27.659  0.00  0.00    +0.023 HD
ENDBRANCH  85  87
BRANCH  85  91
ATOM     91  C   UNL     1      -9.861   5.842  25.358  0.00  0.00    -0.041 C 
ATOM     92  H   UNL     1      -9.487   6.766  24.901  0.00  0.00    +0.027 HD
ATOM     93  H   UNL     1      -9.642   5.055  24.624  0.00  0.00    +0.027 HD
BRANCH  91  94
ATOM     94  C   UNL     1      -9.079   5.553  26.642  0.00  0.00    +0.007 C 
ATOM     95  H   UNL     1      -9.757   5.190  27.423  0.00  0.00    +0.034 HD
ATOM     96  H   UNL     1      -8.314   4.787  26.472  0.00  0.00    +0.034 HD
BRANCH  94  97
ATOM     97  C   UNL     1      -8.383   6.797  27.177  0.00  0.00    +0.139 C 
ATOM     98  O   UNL     1      -7.933   7.667  26.430  0.00  0.00    -0.297 OA
BRANCH  97  99
ATOM     99  C   UNL     1      -8.316   6.927  28.700  0.00  0.00    +0.041 C 
ATOM    100  H   UNL     1      -7.252   6.960  28.970  0.00  0.00    +0.040 HD
BRANCH  99 101
ATOM    101  C   UNL     1      -8.940   5.661  29.280  0.00  0.00    -0.053 C 
ATOM    102  H   UNL     1      -9.304   5.831  30.297  0.00  0.00    +0.024 HD
ATOM    103  H   UNL     1      -8.210   4.845  29.336  0.00  0.00    +0.024 HD
ATOM    104  H   UNL     1      -9.770   5.304  28.659  0.00  0.00    +0.024 HD
ENDBRANCH  99 101
BRANCH  99 105
ATOM    105  C   UNL     1      -8.975   8.252  29.135  0.00  0.00    +0.071 C 
ATOM    106  H   UNL     1      -8.471   9.098  28.651  0.00  0.00    +0.061 HD
BRANCH 105 107
ATOM    107  C   UNL     1     -10.496   8.325  28.859  0.00  0.00    -0.006 C 
ATOM    108  H   UNL     1     -10.846   7.360  28.468  0.00  0.00    +0.033 HD
ATOM    109  H   UNL     1     -11.034   8.457  29.807  0.00  0.00    +0.033 HD
BRANCH 107 110
ATOM    110  C   UNL     1     -10.899   9.469  27.966  0.00  0.00    -0.067 C 
ATOM    111  C   UNL     1     -11.098  10.717  28.413  0.00  0.00    -0.005 C 
ATOM    112  H   UNL     1     -11.016   9.223  26.915  0.00  0.00    +0.059 HD
ATOM    113  H   UNL     1     -10.965  10.931  29.476  0.00  0.00    +0.078 HD
BRANCH 111 114
ATOM    114  N   UNL     1     -11.482  11.806  27.647  0.00  0.00    -0.284 N 
ATOM    115  C   UNL     1     -10.516  12.698  27.185  0.00  0.00    +0.206 C 
ATOM    116  O   UNL     1      -9.309  12.646  27.395  0.00  0.00    -0.279 OA
ATOM    117  H   UNL     1     -10.947  13.516  26.582  0.00  0.00    +0.126 HD
BRANCH 114 118
ATOM    118  C   UNL     1     -12.877  12.044  27.313  0.00  0.00    +0.007 C 
ATOM    119  H   UNL     1     -13.412  12.377  28.209  0.00  0.00    +0.043 HD
ATOM    120  H   UNL     1     -12.939  12.805  26.530  0.00  0.00    +0.043 HD
ATOM    121  H   UNL     1     -13.357  11.132  26.942  0.00  0.00    +0.043 HD
ENDBRANCH 114 118
ENDBRANCH 111 114
ENDBRANCH 107 110
ENDBRANCH 105 107
BRANCH 105 122
ATOM    122  O   UNL     1      -8.788   8.339  30.566  0.00  0.00    -0.379 OA
BRANCH 122 123
ATOM    123  C   UNL     1      -8.353   9.629  30.983  0.00  0.00    +0.037 C 
ATOM    124  H   UNL     1      -8.410  10.347  30.161  0.00  0.00    +0.052 HD
ATOM    125  H   UNL     1      -7.329   9.578  31.368  0.00  0.00    +0.052 HD
ATOM    126  H   UNL     1      -9.012   9.967  31.788  0.00  0.00    +0.052 HD
ENDBRANCH 122 123
ENDBRANCH 105 122
ENDBRANCH  99 105
ENDBRANCH  97  99
ENDBRANCH  94  97
ENDBRANCH  91  94
ENDBRANCH  85  91
ENDBRANCH  83  85
BRANCH  83 127
ATOM    127  O   UNL     1     -11.350   4.143  24.006  0.00  0.00    -0.379 OA
BRANCH 127 128
ATOM    128  C   UNL     1     -11.761   2.861  24.469  0.00  0.00    +0.037 C 
ATOM    129  H   UNL     1     -11.277   2.106  23.845  0.00  0.00    +0.052 HD
ATOM    130  H   UNL     1     -12.843   2.739  24.386  0.00  0.00    +0.052 HD
ATOM    131  H   UNL     1     -11.447   2.710  25.506  0.00  0.00    +0.052 HD
ENDBRANCH 127 128
ENDBRANCH  83 127
ENDBRANCH  77  83
ENDBRANCH  25  77
BRANCH   9 132
ATOM    132  O   UNL     1      -4.613  12.179  19.646  0.00  0.00    -0.384 OA
ATOM    133  H   UNL     1      -4.097  11.381  19.414  0.00  0.00    +0.210 HD
ENDBRANCH   9 132
BRANCH  29 134
ATOM    134  O   UNL     1     -11.826  12.792  22.969  0.00  0.00    -0.376 OA
BRANCH 134 135
ATOM    135  C   UNL     1     -12.818  13.406  23.783  0.00  0.00    +0.037 C 
ATOM    136  H   UNL     1     -12.990  12.837  24.700  0.00  0.00    +0.052 HD
ATOM    137  H   UNL     1     -12.543  14.434  24.033  0.00  0.00    +0.052 HD
ATOM    138  H   UNL     1     -13.754  13.428  23.215  0.00  0.00    +0.052 HD
ENDBRANCH 134 135
ENDBRANCH  29 134
BRANCH   6 139
ATOM    139  O   UNL     1      -3.056  14.214  20.778  0.00  0.00    -0.379 OA
BRANCH 139 140
ATOM    140  C   UNL     1      -2.006  15.146  21.020  0.00  0.00    +0.037 C 
ATOM    141  H   UNL     1      -2.025  15.408  22.082  0.00  0.00    +0.052 HD
ATOM    142  H   UNL     1      -1.032  14.696  20.804  0.00  0.00    +0.052 HD
ATOM    143  H   UNL     1      -2.149  16.059  20.433  0.00  0.00    +0.052 HD
ENDBRANCH 139 140
ENDBRANCH   6 139
BRANCH  16 144
ATOM    144  O   UNL     1      -6.023  10.284  16.585  0.00  0.00    -0.379 OA
BRANCH 144 145
ATOM    145  C   UNL     1      -4.865   9.547  16.211  0.00  0.00    +0.037 C 
ATOM    146  H   UNL     1      -4.991   8.516  16.552  0.00  0.00    +0.052 HD
ATOM    147  H   UNL     1      -4.758   9.540  15.123  0.00  0.00    +0.052 HD
ATOM    148  H   UNL     1      -3.963   9.954  16.674  0.00  0.00    +0.052 HD
ENDBRANCH 144 145
ENDBRANCH  16 144
BRANCH   4 149
ATOM    149  O   UNL     1      -5.571  17.466  23.324  0.00  0.00    -0.376 OA
BRANCH 149 150
ATOM    150  C   UNL     1      -5.153  18.718  22.791  0.00  0.00    +0.037 C 
ATOM    151  H   UNL     1      -4.594  19.248  23.567  0.00  0.00    +0.052 HD
ATOM    152  H   UNL     1      -6.015  19.330  22.515  0.00  0.00    +0.052 HD
ATOM    153  H   UNL     1      -4.496  18.575  21.928  0.00  0.00    +0.052 HD
ENDBRANCH 149 150
ENDBRANCH   4 149
TORSDOF 33
ENDMDL
MODEL 2
REMARK VINA RESULT:      -5.5      1.334      1.982
REMARK  Name = Sphinxolide B_conf2
REMARK  33 active torsions:
REMARK  status: ('A' for Active; 'I' for Inactive)
REMARK    1  A    between atoms: C_1  and  C_2
REMARK    2  A    between atoms: C_5  and  O_67
REMARK    3  A    between atoms: C_7  and  O_65
REMARK    4  A    between atoms: C_8  and  C_64
REMARK    5  A    between atoms: C_10  and  O_63
REMARK    6  A    between atoms: C_17  and  O_61
REMARK    7  A    between atoms: C_19  and  C_60
REMARK    8  A    between atoms: C_26  and  C_37
REMARK    9  A    between atoms: C_27  and  C_36
REMARK   10  A    between atoms: C_30  and  O_34
REMARK   11  A    between atoms: C_32  and  O_33
REMARK   12  A    between atoms: O_34  and  C_35
REMARK   13  A    between atoms: C_37  and  C_38
REMARK   14  A    between atoms: C_37  and  C_39
REMARK   15  A    between atoms: C_39  and  C_40
REMARK   16  A    between atoms: C_39  and  O_58
REMARK   17  A    between atoms: C_40  and  C_41
REMARK   18  A    between atoms: C_40  and  C_42
REMARK   19  A    between atoms: C_42  and  C_43
REMARK   20  A    between atoms: C_43  and  C_44
REMARK   21  A    between atoms: C_44  and  C_46
REMARK   22  A    between atoms: C_46  and  C_47
REMARK   23  A    between atoms: C_46  and  C_48
REMARK   24  A    between atoms: C_48  and  C_49
REMARK   25  A    between atoms: C_48  and  O_56
REMARK   26  A    between atoms: C_49  and  C_50
REMARK   27  A    between atoms: C_51  and  N_52
REMARK   28  A    between atoms: N_52  and  C_53
REMARK   29  A    between atoms: O_56  and  C_57
REMARK   30  A    between atoms: O_58  and  C_59
REMARK   31  A    between atoms: O_61  and  C_62
REMARK   32  A    between atoms: O_65  and  C_66
REMARK   33  A    between atoms: O_67  and  C_68
REMARK                            x       y       z     vdW  Elec       q    Type
REMARK                         _______ _______ _______ _____ _____    ______ ____
ROOT
ATOM      1  C   UNL     1      -8.898  14.604  22.998  0.00  0.00    +0.000 C 
ATOM      2  C   UNL     1      -7.845  15.473  22.322  0.00  0.00    -0.080 C 
ATOM      3  C   UNL     1      -6.606  15.697  22.797  0.00  0.00    -0.059 C 
ATOM      4  C   UNL     1      -5.621  16.656  22.186  0.00  0.00    +0.079 C 
ATOM      5  C   UNL     1      -4.271  15.981  21.903  0.00  0.00    +0.004 C 
ATOM      6  C   UNL     1      -4.267  14.888  20.813  0.00  0.00    +0.067 C 
ATOM      7  C   UNL     1      -4.794  15.349  19.424  0.00  0.00    +0.022 C 
ATOM      8  C   UNL     1      -4.514  14.345  18.254  0.00  0.00    +0.138 C 
ATOM      9  C   UNL     1      -4.923  12.857  18.396  0.00  0.00    +0.114 C 
ATOM     10  C   UNL     1      -6.399  12.679  18.183  0.00  0.00    -0.029 C 
ATOM     11  C   UNL     1      -7.078  13.597  17.476  0.00  0.00    +0.024 C 
ATOM     12  C   UNL     1      -6.424  14.746  16.822  0.00  0.00    +0.332 C 
ATOM     13  O   UNL     1      -7.061  15.499  16.097  0.00  0.00    -0.246 OA
ATOM     14  O   UNL     1      -5.095  14.884  17.035  0.00  0.00    -0.455 OA
ATOM     15  C   UNL     1      -7.071  11.396  18.637  0.00  0.00    -0.002 C 
ATOM     16  C   UNL     1      -6.401  10.099  18.114  0.00  0.00    +0.066 C 
ATOM     17  C   UNL     1      -7.286   8.841  18.347  0.00  0.00    -0.005 C 
ATOM     18  C   UNL     1      -8.702   8.888  17.783  0.00  0.00    -0.070 C 
ATOM     19  C   UNL     1      -9.843   8.643  18.455  0.00  0.00    -0.062 C 
ATOM     20  C   UNL     1     -10.055   8.224  19.821  0.00  0.00    -0.055 C 
ATOM     21  C   UNL     1      -9.495   8.744  20.921  0.00  0.00    +0.023 C 
ATOM     22  C   UNL     1      -9.834   8.299  22.289  0.00  0.00    +0.332 C 
ATOM     23  O   UNL     1      -9.105   8.513  23.246  0.00  0.00    -0.246 OA
ATOM     24  O   UNL     1     -11.055   7.710  22.320  0.00  0.00    -0.457 OA
ATOM     25  C   UNL     1     -11.712   7.626  23.603  0.00  0.00    +0.114 C 
ATOM     26  C   UNL     1     -12.785   8.772  23.628  0.00  0.00    +0.012 C 
ATOM     27  C   UNL     1     -12.218  10.168  23.440  0.00  0.00    -0.079 C 
ATOM     28  C   UNL     1     -11.237  10.729  24.172  0.00  0.00    -0.059 C 
ATOM     29  C   UNL     1     -10.668  12.127  24.009  0.00  0.00    +0.079 C 
ATOM     30  C   UNL     1      -9.358  12.038  23.207  0.00  0.00    +0.004 C 
ATOM     31  C   UNL     1      -8.366  13.200  23.392  0.00  0.00    +0.064 C 
ATOM     32  H   UNL     1      -9.686  14.467  22.246  0.00  0.00    +0.037 HD
ATOM     33  H   UNL     1      -8.177  15.996  21.426  0.00  0.00    +0.057 HD
ATOM     34  H   UNL     1      -6.295  15.219  23.725  0.00  0.00    +0.059 HD
ATOM     35  H   UNL     1      -6.019  17.108  21.272  0.00  0.00    +0.064 HD
ATOM     36  H   UNL     1      -3.515  16.742  21.668  0.00  0.00    +0.032 HD
ATOM     37  H   UNL     1      -3.905  15.554  22.847  0.00  0.00    +0.032 HD
ATOM     38  H   UNL     1      -4.901  14.066  21.164  0.00  0.00    +0.060 HD
ATOM     39  H   UNL     1      -5.877  15.506  19.500  0.00  0.00    +0.036 HD
ATOM     40  H   UNL     1      -3.429  14.347  18.079  0.00  0.00    +0.077 HD
ATOM     41  H   UNL     1      -4.414  12.293  17.603  0.00  0.00    +0.068 HD
ATOM     42  H   UNL     1      -8.135  13.495  17.256  0.00  0.00    +0.069 HD
ATOM     43  H   UNL     1      -8.116  11.426  18.309  0.00  0.00    +0.034 HD
ATOM     44  H   UNL     1      -7.103  11.372  19.735  0.00  0.00    +0.034 HD
ATOM     45  H   UNL     1      -5.464   9.957  18.667  0.00  0.00    +0.060 HD
ATOM     46  H   UNL     1      -7.298   8.641  19.423  0.00  0.00    +0.034 HD
ATOM     47  H   UNL     1      -6.798   7.969  17.897  0.00  0.00    +0.034 HD
ATOM     48  H   UNL     1     -10.782   8.679  17.898  0.00  0.00    +0.062 HD
ATOM     49  H   UNL     1     -10.814   7.448  19.920  0.00  0.00    +0.062 HD
ATOM     50  H   UNL     1      -8.755   9.533  20.880  0.00  0.00    +0.069 HD
ATOM     51  H   UNL     1     -11.007   7.793  24.425  0.00  0.00    +0.074 HD
ATOM     52  H   UNL     1     -13.446   8.622  22.766  0.00  0.00    +0.038 HD
ATOM     53  H   UNL     1     -12.668  10.749  22.637  0.00  0.00    +0.057 HD
ATOM     54  H   UNL     1     -10.769  10.150  24.964  0.00  0.00    +0.059 HD
ATOM     55  H   UNL     1     -10.478  12.541  25.006  0.00  0.00    +0.064 HD
ATOM     56  H   UNL     1      -9.590  11.950  22.138  0.00  0.00    +0.032 HD
ATOM     57  H   UNL     1      -8.822  11.126  23.501  0.00  0.00    +0.032 HD
ATOM     58  H   UNL     1      -7.506  12.961  22.748  0.00  0.00    +0.060 HD
ENDROOT
BRANCH   1  59
ATOM     59  C   UNL     1      -9.473  15.405  24.173  0.00  0.00    -0.057 C 
ATOM     60  H   UNL     1     -10.553  15.256  24.280  0.00  0.00    +0.024 HD
ATOM     61  H   UNL     1      -9.006  15.096  25.117  0.00  0.00    +0.024 HD
ATOM     62  H   UNL     1      -9.307  16.477  24.062  0.00  0.00    +0.024 HD
ENDBRANCH   1  59
BRANCH  26  63
ATOM     63  C   UNL     1     -13.660   8.766  24.889  0.00  0.00    -0.056 C 
ATOM     64  H   UNL     1     -13.537   9.691  25.463  0.00  0.00    +0.024 HD
ATOM     65  H   UNL     1     -13.407   7.927  25.545  0.00  0.00    +0.024 HD
ATOM     66  H   UNL     1     -14.722   8.694  24.635  0.00  0.00    +0.024 HD
ENDBRANCH  26  63
BRANCH  18  67
ATOM     67  C   UNL     1      -8.795   9.176  16.298  0.00  0.00    -0.043 C 
ATOM     68  H   UNL     1      -7.877   8.907  15.767  0.00  0.00    +0.027 HD
ATOM     69  H   UNL     1      -9.609   8.609  15.839  0.00  0.00    +0.027 HD
ATOM     70  H   UNL     1      -8.961  10.245  16.128  0.00  0.00    +0.027 HD
ENDBRANCH  18  67
BRANCH   7  71
ATOM     71  C   UNL     1      -4.182  16.711  19.012  0.00  0.00    -0.057 C 
ATOM     72  H   UNL     1      -3.361  16.587  18.300  0.00  0.00    +0.023 HD
ATOM     73  H   UNL     1      -3.791  17.246  19.886  0.00  0.00    +0.023 HD
ATOM     74  H   UNL     1      -4.911  17.359  18.519  0.00  0.00    +0.023 HD
ENDBRANCH   7  71
BRANCH  31  75
ATOM     75  O   UNL     1      -7.874  13.188  24.736  0.00  0.00    -0.391 OA
ATOM     76  H   UNL     1      -8.536  12.730  25.283  0.00  0.00    +0.210 HD
ENDBRANCH  31  75
BRANCH  25  77
ATOM     77  C   UNL     1     -12.320   6.201  23.779  0.00  0.00    +0.020 C 
ATOM     78  H   UNL     1     -13.318   6.354  24.198  0.00  0.00    +0.036 HD
BRANCH  77  79
ATOM     79  C   UNL     1     -12.573   5.471  22.454  0.00  0.00    -0.057 C 
ATOM     80  H   UNL     1     -12.546   6.168  21.609  0.00  0.00    +0.023 HD
ATOM     81  H   UNL     1     -13.567   5.010  22.452  0.00  0.00    +0.023 HD
ATOM     82  H   UNL     1     -11.835   4.692  22.251  0.00  0.00    +0.023 HD
ENDBRANCH  77  79
BRANCH  77  83
ATOM     83  C   UNL     1     -11.566   5.327  24.842  0.00  0.00    +0.067 C 
ATOM     84  H   UNL     1     -10.957   4.569  24.332  0.00  0.00    +0.060 HD
BRANCH  83  85
ATOM     85  C   UNL     1     -12.407   4.619  25.949  0.00  0.00    -0.017 C 
ATOM     86  H   UNL     1     -11.931   4.810  26.920  0.00  0.00    +0.032 HD
BRANCH  85  87
ATOM     87  C   UNL     1     -13.850   5.120  26.036  0.00  0.00    -0.060 C 
ATOM     88  H   UNL     1     -14.326   4.794  26.962  0.00  0.00    +0.023 HD
ATOM     89  H   UNL     1     -13.901   6.212  25.980  0.00  0.00    +0.023 HD
ATOM     90  H   UNL     1     -14.458   4.714  25.219  0.00  0.00    +0.023 HD
ENDBRANCH  85  87
BRANCH  85  91
ATOM     91  C   UNL     1     -12.406   3.070  25.818  0.00  0.00    -0.041 C 
ATOM     92  H   UNL     1     -11.736   2.799  24.993  0.00  0.00    +0.027 HD
ATOM     93  H   UNL     1     -13.399   2.723  25.502  0.00  0.00    +0.027 HD
BRANCH  91  94
ATOM     94  C   UNL     1     -11.994   2.309  27.081  0.00  0.00    +0.007 C 
ATOM     95  H   UNL     1     -12.695   2.523  27.895  0.00  0.00    +0.034 HD
ATOM     96  H   UNL     1     -11.995   1.228  26.905  0.00  0.00    +0.034 HD
BRANCH  94  97
ATOM     97  C   UNL     1     -10.602   2.704  27.554  0.00  0.00    +0.139 C 
ATOM     98  O   UNL     1      -9.609   2.590  26.835  0.00  0.00    -0.297 OA
BRANCH  97  99
ATOM     99  C   UNL     1     -10.515   3.294  28.963  0.00  0.00    +0.041 C 
ATOM    100  H   UNL     1      -9.704   2.764  29.481  0.00  0.00    +0.040 HD
BRANCH  99 101
ATOM    101  C   UNL     1     -11.837   2.982  29.657  0.00  0.00    -0.053 C 
ATOM    102  H   UNL     1     -12.478   3.868  29.700  0.00  0.00    +0.024 HD
ATOM    103  H   UNL     1     -11.679   2.654  30.691  0.00  0.00    +0.024 HD
ATOM    104  H   UNL     1     -12.376   2.176  29.146  0.00  0.00    +0.024 HD
ENDBRANCH  99 101
BRANCH  99 105
ATOM    105  C   UNL     1     -10.146   4.789  28.875  0.00  0.00    +0.071 C 
ATOM    106  H   UNL     1      -9.867   5.047  27.846  0.00  0.00    +0.061 HD
BRANCH 105 107
ATOM    107  C   UNL     1     -11.258   5.746  29.368  0.00  0.00    -0.006 C 
ATOM    108  H   UNL     1     -12.220   5.217  29.383  0.00  0.00    +0.033 HD
ATOM    109  H   UNL     1     -11.070   6.019  30.415  0.00  0.00    +0.033 HD
BRANCH 107 110
ATOM    110  C   UNL     1     -11.342   7.034  28.591  0.00  0.00    -0.067 C 
ATOM    111  C   UNL     1     -10.407   7.993  28.652  0.00  0.00    -0.005 C 
ATOM    112  H   UNL     1     -12.218   7.143  27.959  0.00  0.00    +0.059 HD
ATOM    113  H   UNL     1      -9.534   7.847  29.293  0.00  0.00    +0.078 HD
BRANCH 111 114
ATOM    114  N   UNL     1     -10.433   9.201  27.975  0.00  0.00    -0.284 N 
ATOM    115  C   UNL     1      -9.285   9.652  27.325  0.00  0.00    +0.206 C 
ATOM    116  O   UNL     1      -8.196   9.091  27.287  0.00  0.00    -0.279 OA
ATOM    117  H   UNL     1      -9.437  10.620  26.817  0.00  0.00    +0.126 HD
BRANCH 114 118
ATOM    118  C   UNL     1     -11.635  10.019  27.929  0.00  0.00    +0.007 C 
ATOM    119  H   UNL     1     -11.828  10.322  26.894  0.00  0.00    +0.043 HD
ATOM    120  H   UNL     1     -12.481   9.446  28.320  0.00  0.00    +0.043 HD
ATOM    121  H   UNL     1     -11.522  10.922  28.538  0.00  0.00    +0.043 HD
ENDBRANCH 114 118
ENDBRANCH 111 114
ENDBRANCH 107 110
ENDBRANCH 105 107
BRANCH 105 122
ATOM    122  O   UNL     1      -9.002   4.969  29.741  0.00  0.00    -0.379 OA
BRANCH 122 123
ATOM    123  C   UNL     1      -7.955   5.704  29.116  0.00  0.00    +0.037 C 
ATOM    124  H   UNL     1      -7.895   5.472  28.049  0.00  0.00    +0.052 HD
ATOM    125  H   UNL     1      -6.998   5.489  29.602  0.00  0.00    +0.052 HD
ATOM    126  H   UNL     1      -8.171   6.770  29.230  0.00  0.00    +0.052 HD
ENDBRANCH 122 123
ENDBRANCH 105 122
ENDBRANCH  99 105
ENDBRANCH  97  99
ENDBRANCH  94  97
ENDBRANCH  91  94
ENDBRANCH  85  91
ENDBRANCH  83  85
BRANCH  83 127
ATOM    127  O   UNL     1     -10.675   6.222  25.556  0.00  0.00    -0.379 OA
BRANCH 127 128
ATOM    128  C   UNL     1      -9.312   5.812  25.531  0.00  0.00    +0.037 C 
ATOM    129  H   UNL     1      -9.288   4.719  25.528  0.00  0.00    +0.052 HD
ATOM    130  H   UNL     1      -8.777   6.167  26.415  0.00  0.00    +0.052 HD
ATOM    131  H   UNL     1      -8.819   6.174  24.626  0.00  0.00    +0.052 HD
ENDBRANCH 127 128
ENDBRANCH  83 127
ENDBRANCH  77  83
ENDBRANCH  25  77
BRANCH   9 132
ATOM    132  O   UNL     1      -4.539  12.273  19.628  0.00  0.00    -0.384 OA
ATOM    133  H   UNL     1      -4.670  12.963  20.309  0.00  0.00    +0.210 HD
ENDBRANCH   9 132
BRANCH  29 134
ATOM    134  O   UNL     1     -11.576  12.974  23.291  0.00  0.00    -0.376 OA
BRANCH 134 135
ATOM    135  C   UNL     1     -12.537  13.607  24.129  0.00  0.00    +0.037 C 
ATOM    136  H   UNL     1     -12.897  12.928  24.905  0.00  0.00    +0.052 HD
ATOM    137  H   UNL     1     -12.126  14.510  24.589  0.00  0.00    +0.052 HD
ATOM    138  H   UNL     1     -13.390  13.896  23.505  0.00  0.00    +0.052 HD
ENDBRANCH 134 135
ENDBRANCH  29 134
BRANCH   6 139
ATOM    139  O   UNL     1      -2.941  14.360  20.598  0.00  0.00    -0.379 OA
BRANCH 139 140
ATOM    140  C   UNL     1      -1.881  15.264  20.895  0.00  0.00    +0.037 C 
ATOM    141  H   UNL     1      -1.210  15.292  20.031  0.00  0.00    +0.052 HD
ATOM    142  H   UNL     1      -2.267  16.275  21.052  0.00  0.00    +0.052 HD
ATOM    143  H   UNL     1      -1.312  14.927  21.768  0.00  0.00    +0.052 HD
ENDBRANCH 139 140
ENDBRANCH   6 139
BRANCH  16 144
ATOM    144  O   UNL     1      -6.087  10.250  16.720  0.00  0.00    -0.379 OA
BRANCH 144 145
ATOM    145  C   UNL     1      -4.848   9.657  16.354  0.00  0.00    +0.037 C 
ATOM    146  H   UNL     1      -4.995   8.576  16.276  0.00  0.00    +0.052 HD
ATOM    147  H   UNL     1      -4.522  10.032  15.380  0.00  0.00    +0.052 HD
ATOM    148  H   UNL     1      -4.076   9.844  17.105  0.00  0.00    +0.052 HD
ENDBRANCH 144 145
ENDBRANCH  16 144
BRANCH   4 149
ATOM    149  O   UNL     1      -5.349  17.696  23.140  0.00  0.00    -0.376 OA
BRANCH 149 150
ATOM    150  C   UNL     1      -5.737  17.359  24.467  0.00  0.00    +0.037 C 
ATOM    151  H   UNL     1      -5.780  16.269  24.542  0.00  0.00    +0.052 HD
ATOM    152  H   UNL     1      -6.730  17.754  24.694  0.00  0.00    +0.052 HD
ATOM    153  H   UNL     1      -5.006  17.727  25.193  0.00  0.00    +0.052 HD
ENDBRANCH 149 150
ENDBRANCH   4 149
TORSDOF 33
ENDMDL
MODEL 3
REMARK VINA RESULT:      -5.4      1.412      2.388
REMARK  Name = Sphinxolide B_conf2
REMARK  33 active torsions:
REMARK  status: ('A' for Active; 'I' for Inactive)
REMARK    1  A    between atoms: C_1  and  C_2
REMARK    2  A    between atoms: C_5  and  O_67
REMARK    3  A    between atoms: C_7  and  O_65
REMARK    4  A    between atoms: C_8  and  C_64
REMARK    5  A    between atoms: C_10  and  O_63
REMARK    6  A    between atoms: C_17  and  O_61
REMARK    7  A    between atoms: C_19  and  C_60
REMARK    8  A    between atoms: C_26  and  C_37
REMARK    9  A    between atoms: C_27  and  C_36
REMARK   10  A    between atoms: C_30  and  O_34
REMARK   11  A    between atoms: C_32  and  O_33
REMARK   12  A    between atoms: O_34  and  C_35
REMARK   13  A    between atoms: C_37  and  C_38
REMARK   14  A    between atoms: C_37  and  C_39
REMARK   15  A    between atoms: C_39  and  C_40
REMARK   16  A    between atoms: C_39  and  O_58
REMARK   17  A    between atoms: C_40  and  C_41
REMARK   18  A    between atoms: C_40  and  C_42
REMARK   19  A    between atoms: C_42  and  C_43
REMARK   20  A    between atoms: C_43  and  C_44
REMARK   21  A    between atoms: C_44  and  C_46
REMARK   22  A    between atoms: C_46  and  C_47
REMARK   23  A    between atoms: C_46  and  C_48
REMARK   24  A    between atoms: C_48  and  C_49
REMARK   25  A    between atoms: C_48  and  O_56
REMARK   26  A    between atoms: C_49  and  C_50
REMARK   27  A    between atoms: C_51  and  N_52
REMARK   28  A    between atoms: N_52  and  C_53
REMARK   29  A    between atoms: O_56  and  C_57
REMARK   30  A    between atoms: O_58  and  C_59
REMARK   31  A    between atoms: O_61  and  C_62
REMARK   32  A    between atoms: O_65  and  C_66
REMARK   33  A    between atoms: O_67  and  C_68
REMARK                            x       y       z     vdW  Elec       q    Type
REMARK                         _______ _______ _______ _____ _____    ______ ____
ROOT
ATOM      1  C   UNL     1      -8.899  14.609  23.016  0.00  0.00    +0.000 C 
ATOM      2  C   UNL     1      -7.843  15.449  22.308  0.00  0.00    -0.080 C 
ATOM      3  C   UNL     1      -6.597  15.671  22.764  0.00  0.00    -0.059 C 
ATOM      4  C   UNL     1      -5.608  16.602  22.121  0.00  0.00    +0.079 C 
ATOM      5  C   UNL     1      -4.268  15.905  21.842  0.00  0.00    +0.004 C 
ATOM      6  C   UNL     1      -4.288  14.786  20.779  0.00  0.00    +0.067 C 
ATOM      7  C   UNL     1      -4.824  15.219  19.384  0.00  0.00    +0.022 C 
ATOM      8  C   UNL     1      -4.566  14.182  18.237  0.00  0.00    +0.138 C 
ATOM      9  C   UNL     1      -4.990  12.703  18.420  0.00  0.00    +0.114 C 
ATOM     10  C   UNL     1      -6.470  12.537  18.226  0.00  0.00    -0.029 C 
ATOM     11  C   UNL     1      -7.146  13.445  17.502  0.00  0.00    +0.024 C 
ATOM     12  C   UNL     1      -6.486  14.570  16.814  0.00  0.00    +0.332 C 
ATOM     13  O   UNL     1      -7.122  15.311  16.077  0.00  0.00    -0.246 OA
ATOM     14  O   UNL     1      -5.153  14.698  17.010  0.00  0.00    -0.455 OA
ATOM     15  C   UNL     1      -7.152  11.273  18.718  0.00  0.00    -0.002 C 
ATOM     16  C   UNL     1      -6.502   9.956  18.221  0.00  0.00    +0.066 C 
ATOM     17  C   UNL     1      -7.399   8.714  18.494  0.00  0.00    -0.005 C 
ATOM     18  C   UNL     1      -8.820   8.764  17.942  0.00  0.00    -0.070 C 
ATOM     19  C   UNL     1      -9.956   8.548  18.632  0.00  0.00    -0.062 C 
ATOM     20  C   UNL     1     -10.159   8.165  20.010  0.00  0.00    -0.055 C 
ATOM     21  C   UNL     1      -9.582   8.706  21.091  0.00  0.00    +0.023 C 
ATOM     22  C   UNL     1      -9.912   8.300  22.473  0.00  0.00    +0.332 C 
ATOM     23  O   UNL     1      -9.172   8.529  23.417  0.00  0.00    -0.246 OA
ATOM     24  O   UNL     1     -11.139   7.726  22.531  0.00  0.00    -0.457 OA
ATOM     25  C   UNL     1     -11.785   7.680  23.821  0.00  0.00    +0.114 C 
ATOM     26  C   UNL     1     -12.845   8.839  23.829  0.00  0.00    +0.012 C 
ATOM     27  C   UNL     1     -12.264  10.224  23.600  0.00  0.00    -0.079 C 
ATOM     28  C   UNL     1     -11.270  10.791  24.308  0.00  0.00    -0.059 C 
ATOM     29  C   UNL     1     -10.687  12.178  24.105  0.00  0.00    +0.079 C 
ATOM     30  C   UNL     1      -9.386  12.054  23.293  0.00  0.00    +0.004 C 
ATOM     31  C   UNL     1      -8.379  13.210  23.439  0.00  0.00    +0.064 C 
ATOM     32  H   UNL     1      -9.696  14.462  22.275  0.00  0.00    +0.037 HD
ATOM     33  H   UNL     1      -8.178  15.953  21.402  0.00  0.00    +0.057 HD
ATOM     34  H   UNL     1      -6.282  15.212  23.701  0.00  0.00    +0.059 HD
ATOM     35  H   UNL     1      -6.010  17.036  21.199  0.00  0.00    +0.064 HD
ATOM     36  H   UNL     1      -3.506  16.652  21.580  0.00  0.00    +0.032 HD
ATOM     37  H   UNL     1      -3.898  15.498  22.792  0.00  0.00    +0.032 HD
ATOM     38  H   UNL     1      -4.927  13.980  21.156  0.00  0.00    +0.060 HD
ATOM     39  H   UNL     1      -5.903  15.389  19.466  0.00  0.00    +0.036 HD
ATOM     40  H   UNL     1      -3.483  14.168  18.052  0.00  0.00    +0.077 HD
ATOM     41  H   UNL     1      -4.496  12.114  17.636  0.00  0.00    +0.068 HD
ATOM     42  H   UNL     1      -8.206  13.349  17.295  0.00  0.00    +0.069 HD
ATOM     43  H   UNL     1      -8.200  11.307  18.400  0.00  0.00    +0.034 HD
ATOM     44  H   UNL     1      -7.174  11.277  19.817  0.00  0.00    +0.034 HD
ATOM     45  H   UNL     1      -5.561   9.817  18.768  0.00  0.00    +0.060 HD
ATOM     46  H   UNL     1      -7.402   8.541  19.575  0.00  0.00    +0.034 HD
ATOM     47  H   UNL     1      -6.925   7.826  18.061  0.00  0.00    +0.034 HD
ATOM     48  H   UNL     1     -10.900   8.581  18.083  0.00  0.00    +0.062 HD
ATOM     49  H   UNL     1     -10.926   7.401  20.135  0.00  0.00    +0.062 HD
ATOM     50  H   UNL     1      -8.834   9.486  21.023  0.00  0.00    +0.069 HD
ATOM     51  H   UNL     1     -11.070   7.860  24.632  0.00  0.00    +0.074 HD
ATOM     52  H   UNL     1     -13.516   8.675  22.977  0.00  0.00    +0.038 HD
ATOM     53  H   UNL     1     -12.715  10.790  22.787  0.00  0.00    +0.057 HD
ATOM     54  H   UNL     1     -10.800  10.227  25.110  0.00  0.00    +0.059 HD
ATOM     55  H   UNL     1     -10.482  12.615  25.090  0.00  0.00    +0.064 HD
ATOM     56  H   UNL     1      -9.629  11.943  22.228  0.00  0.00    +0.032 HD
ATOM     57  H   UNL     1      -8.858  11.144  23.604  0.00  0.00    +0.032 HD
ATOM     58  H   UNL     1      -7.528  12.945  22.793  0.00  0.00    +0.060 HD
ENDROOT
BRANCH   1  59
ATOM     59  C   UNL     1      -9.453  15.446  24.176  0.00  0.00    -0.057 C 
ATOM     60  H   UNL     1     -10.512  15.232  24.365  0.00  0.00    +0.024 HD
ATOM     61  H   UNL     1      -8.906  15.231  25.102  0.00  0.00    +0.024 HD
ATOM     62  H   UNL     1      -9.372  16.516  23.988  0.00  0.00    +0.024 HD
ENDBRANCH   1  59
BRANCH  26  63
ATOM     63  C   UNL     1     -13.707   8.874  25.097  0.00  0.00    -0.056 C 
ATOM     64  H   UNL     1     -13.479   8.028  25.756  0.00  0.00    +0.024 HD
ATOM     65  H   UNL     1     -14.774   8.834  24.855  0.00  0.00    +0.024 HD
ATOM     66  H   UNL     1     -13.521   9.782  25.679  0.00  0.00    +0.024 HD
ENDBRANCH  26  63
BRANCH  18  67
ATOM     67  C   UNL     1      -8.924   9.016  16.452  0.00  0.00    -0.043 C 
ATOM     68  H   UNL     1      -8.158   9.713  16.096  0.00  0.00    +0.027 HD
ATOM     69  H   UNL     1      -8.800   8.088  15.888  0.00  0.00    +0.027 HD
ATOM     70  H   UNL     1      -9.896   9.458  16.209  0.00  0.00    +0.027 HD
ENDBRANCH  18  67
BRANCH   7  71
ATOM     71  C   UNL     1      -4.201  16.563  18.933  0.00  0.00    -0.057 C 
ATOM     72  H   UNL     1      -3.380  16.869  19.589  0.00  0.00    +0.023 HD
ATOM     73  H   UNL     1      -4.950  17.363  18.936  0.00  0.00    +0.023 HD
ATOM     74  H   UNL     1      -3.775  16.504  17.928  0.00  0.00    +0.023 HD
ENDBRANCH   7  71
BRANCH  31  75
ATOM     75  O   UNL     1      -7.874  13.225  24.778  0.00  0.00    -0.391 OA
ATOM     76  H   UNL     1      -7.811  12.300  25.075  0.00  0.00    +0.210 HD
ENDBRANCH  31  75
BRANCH  25  77
ATOM     77  C   UNL     1     -12.406   6.267  24.038  0.00  0.00    +0.020 C 
ATOM     78  H   UNL     1     -13.457   6.441  24.290  0.00  0.00    +0.036 HD
BRANCH  77  79
ATOM     79  C   UNL     1     -12.458   5.415  22.765  0.00  0.00    -0.057 C 
ATOM     80  H   UNL     1     -11.455   5.090  22.467  0.00  0.00    +0.023 HD
ATOM     81  H   UNL     1     -12.863   5.996  21.929  0.00  0.00    +0.023 HD
ATOM     82  H   UNL     1     -13.066   4.515  22.881  0.00  0.00    +0.023 HD
ENDBRANCH  77  79
BRANCH  77  83
ATOM     83  C   UNL     1     -11.815   5.509  25.278  0.00  0.00    +0.067 C 
ATOM     84  H   UNL     1     -12.325   4.544  25.397  0.00  0.00    +0.060 HD
BRANCH  83  85
ATOM     85  C   UNL     1     -11.810   6.237  26.658  0.00  0.00    -0.017 C 
ATOM     86  H   UNL     1     -12.577   7.023  26.635  0.00  0.00    +0.032 HD
BRANCH  85  87
ATOM     87  C   UNL     1     -12.127   5.316  27.838  0.00  0.00    -0.060 C 
ATOM     88  H   UNL     1     -11.234   5.114  28.431  0.00  0.00    +0.023 HD
ATOM     89  H   UNL     1     -12.892   5.748  28.491  0.00  0.00    +0.023 HD
ATOM     90  H   UNL     1     -12.493   4.343  27.492  0.00  0.00    +0.023 HD
ENDBRANCH  85  87
BRANCH  85  91
ATOM     91  C   UNL     1     -10.485   7.000  26.941  0.00  0.00    -0.041 C 
ATOM     92  H   UNL     1      -9.732   6.651  26.223  0.00  0.00    +0.027 HD
ATOM     93  H   UNL     1     -10.092   6.710  27.924  0.00  0.00    +0.027 HD
BRANCH  91  94
ATOM     94  C   UNL     1     -10.584   8.526  26.876  0.00  0.00    +0.007 C 
ATOM     95  H   UNL     1     -10.786   8.848  25.848  0.00  0.00    +0.034 HD
ATOM     96  H   UNL     1     -11.397   8.893  27.513  0.00  0.00    +0.034 HD
BRANCH  94  97
ATOM     97  C   UNL     1      -9.297   9.201  27.327  0.00  0.00    +0.139 C 
ATOM     98  O   UNL     1      -8.189   8.704  27.116  0.00  0.00    -0.297 OA
BRANCH  97  99
ATOM     99  C   UNL     1      -9.455  10.556  28.018  0.00  0.00    +0.041 C 
ATOM    100  H   UNL     1     -10.307  11.060  27.540  0.00  0.00    +0.040 HD
BRANCH  99 101
ATOM    101  C   UNL     1      -8.183  11.349  27.735  0.00  0.00    -0.053 C 
ATOM    102  H   UNL     1      -8.354  12.104  26.962  0.00  0.00    +0.024 HD
ATOM    103  H   UNL     1      -7.379  10.699  27.371  0.00  0.00    +0.024 HD
ATOM    104  H   UNL     1      -7.811  11.842  28.640  0.00  0.00    +0.024 HD
ENDBRANCH  99 101
BRANCH  99 105
ATOM    105  C   UNL     1      -9.786  10.341  29.509  0.00  0.00    +0.071 C 
ATOM    106  H   UNL     1     -10.647   9.667  29.609  0.00  0.00    +0.061 HD
BRANCH 105 107
ATOM    107  C   UNL     1      -8.604   9.802  30.349  0.00  0.00    -0.006 C 
ATOM    108  H   UNL     1      -7.675   9.878  29.769  0.00  0.00    +0.033 HD
ATOM    109  H   UNL     1      -8.447  10.452  31.220  0.00  0.00    +0.033 HD
BRANCH 107 110
ATOM    110  C   UNL     1      -8.819   8.408  30.879  0.00  0.00    -0.067 C 
ATOM    111  C   UNL     1      -9.890   7.662  30.574  0.00  0.00    -0.005 C 
ATOM    112  H   UNL     1      -8.038   8.030  31.532  0.00  0.00    +0.059 HD
ATOM    113  H   UNL     1     -10.654   8.071  29.909  0.00  0.00    +0.078 HD
BRANCH 111 114
ATOM    114  N   UNL     1     -10.151   6.383  31.039  0.00  0.00    -0.284 N 
ATOM    115  C   UNL     1      -9.449   5.301  30.510  0.00  0.00    +0.206 C 
ATOM    116  O   UNL     1      -8.596   5.339  29.631  0.00  0.00    -0.279 OA
ATOM    117  H   UNL     1      -9.742   4.340  30.967  0.00  0.00    +0.126 HD
BRANCH 114 118
ATOM    118  C   UNL     1     -11.150   6.139  32.068  0.00  0.00    +0.007 C 
ATOM    119  H   UNL     1     -10.935   5.185  32.562  0.00  0.00    +0.043 HD
ATOM    120  H   UNL     1     -11.130   6.955  32.796  0.00  0.00    +0.043 HD
ATOM    121  H   UNL     1     -12.156   6.088  31.638  0.00  0.00    +0.043 HD
ENDBRANCH 114 118
ENDBRANCH 111 114
ENDBRANCH 107 110
ENDBRANCH 105 107
BRANCH 105 122
ATOM    122  O   UNL     1     -10.134  11.643  30.032  0.00  0.00    -0.379 OA
BRANCH 122 123
ATOM    123  C   UNL     1      -9.871  11.759  31.427  0.00  0.00    +0.037 C 
ATOM    124  H   UNL     1      -8.801  11.869  31.617  0.00  0.00    +0.052 HD
ATOM    125  H   UNL     1     -10.261  10.887  31.961  0.00  0.00    +0.052 HD
ATOM    126  H   UNL     1     -10.385  12.652  31.797  0.00  0.00    +0.052 HD
ENDBRANCH 122 123
ENDBRANCH 105 122
ENDBRANCH  99 105
ENDBRANCH  97  99
ENDBRANCH  94  97
ENDBRANCH  91  94
ENDBRANCH  85  91
ENDBRANCH  83  85
BRANCH  83 127
ATOM    127  O   UNL     1     -10.419   5.254  24.979  0.00  0.00    -0.379 OA
BRANCH 127 128
ATOM    128  C   UNL     1     -10.049   3.885  25.105  0.00  0.00    +0.037 C 
ATOM    129  H   UNL     1     -10.463   3.342  24.252  0.00  0.00    +0.052 HD
ATOM    130  H   UNL     1     -10.452   3.448  26.022  0.00  0.00    +0.052 HD
ATOM    131  H   UNL     1      -8.960   3.779  25.090  0.00  0.00    +0.052 HD
ENDBRANCH 127 128
ENDBRANCH  83 127
ENDBRANCH  77  83
ENDBRANCH  25  77
BRANCH   9 132
ATOM    132  O   UNL     1      -4.600  12.146  19.662  0.00  0.00    -0.384 OA
ATOM    133  H   UNL     1      -3.928  12.752  20.034  0.00  0.00    +0.210 HD
ENDBRANCH   9 132
BRANCH  29 134
ATOM    134  O   UNL     1     -11.592  13.018  23.375  0.00  0.00    -0.376 OA
BRANCH 134 135
ATOM    135  C   UNL     1     -12.533  13.688  24.207  0.00  0.00    +0.037 C 
ATOM    136  H   UNL     1     -13.029  12.993  24.887  0.00  0.00    +0.052 HD
ATOM    137  H   UNL     1     -12.054  14.487  24.779  0.00  0.00    +0.052 HD
ATOM    138  H   UNL     1     -13.295  14.136  23.560  0.00  0.00    +0.052 HD
ENDBRANCH 134 135
ENDBRANCH  29 134
BRANCH   6 139
ATOM    139  O   UNL     1      -2.970  14.238  20.564  0.00  0.00    -0.379 OA
BRANCH 139 140
ATOM    140  C   UNL     1      -1.896  15.086  20.961  0.00  0.00    +0.037 C 
ATOM    141  H   UNL     1      -1.914  15.165  22.052  0.00  0.00    +0.052 HD
ATOM    142  H   UNL     1      -0.934  14.652  20.673  0.00  0.00    +0.052 HD
ATOM    143  H   UNL     1      -2.011  16.089  20.536  0.00  0.00    +0.052 HD
ENDBRANCH 139 140
ENDBRANCH   6 139
BRANCH  16 144
ATOM    144  O   UNL     1      -6.201  10.069  16.821  0.00  0.00    -0.379 OA
BRANCH 144 145
ATOM    145  C   UNL     1      -4.951   9.490  16.465  0.00  0.00    +0.037 C 
ATOM    146  H   UNL     1      -4.878   9.478  15.373  0.00  0.00    +0.052 HD
ATOM    147  H   UNL     1      -4.129  10.092  16.860  0.00  0.00    +0.052 HD
ATOM    148  H   UNL     1      -4.868   8.461  16.825  0.00  0.00    +0.052 HD
ENDBRANCH 144 145
ENDBRANCH  16 144
BRANCH   4 149
ATOM    149  O   UNL     1      -5.315  17.663  23.046  0.00  0.00    -0.376 OA
BRANCH 149 150
ATOM    150  C   UNL     1      -5.151  18.930  22.417  0.00  0.00    +0.037 C 
ATOM    151  H   UNL     1      -6.144  19.321  22.179  0.00  0.00    +0.052 HD
ATOM    152  H   UNL     1      -4.592  18.830  21.484  0.00  0.00    +0.052 HD
ATOM    153  H   UNL     1      -4.652  19.636  23.087  0.00  0.00    +0.052 HD
ENDBRANCH 149 150
ENDBRANCH   4 149
TORSDOF 33
ENDMDL
MODEL 4
REMARK VINA RESULT:      -5.2      6.377     12.145
REMARK  Name = Sphinxolide B_conf2
REMARK  33 active torsions:
REMARK  status: ('A' for Active; 'I' for Inactive)
REMARK    1  A    between atoms: C_1  and  C_2
REMARK    2  A    between atoms: C_5  and  O_67
REMARK    3  A    between atoms: C_7  and  O_65
REMARK    4  A    between atoms: C_8  and  C_64
REMARK    5  A    between atoms: C_10  and  O_63
REMARK    6  A    between atoms: C_17  and  O_61
REMARK    7  A    between atoms: C_19  and  C_60
REMARK    8  A    between atoms: C_26  and  C_37
REMARK    9  A    between atoms: C_27  and  C_36
REMARK   10  A    between atoms: C_30  and  O_34
REMARK   11  A    between atoms: C_32  and  O_33
REMARK   12  A    between atoms: O_34  and  C_35
REMARK   13  A    between atoms: C_37  and  C_38
REMARK   14  A    between atoms: C_37  and  C_39
REMARK   15  A    between atoms: C_39  and  C_40
REMARK   16  A    between atoms: C_39  and  O_58
REMARK   17  A    between atoms: C_40  and  C_41
REMARK   18  A    between atoms: C_40  and  C_42
REMARK   19  A    between atoms: C_42  and  C_43
REMARK   20  A    between atoms: C_43  and  C_44
REMARK   21  A    between atoms: C_44  and  C_46
REMARK   22  A    between atoms: C_46  and  C_47
REMARK   23  A    between atoms: C_46  and  C_48
REMARK   24  A    between atoms: C_48  and  C_49
REMARK   25  A    between atoms: C_48  and  O_56
REMARK   26  A    between atoms: C_49  and  C_50
REMARK   27  A    between atoms: C_51  and  N_52
REMARK   28  A    between atoms: N_52  and  C_53
REMARK   29  A    between atoms: O_56  and  C_57
REMARK   30  A    between atoms: O_58  and  C_59
REMARK   31  A    between atoms: O_61  and  C_62
REMARK   32  A    between atoms: O_65  and  C_66
REMARK   33  A    between atoms: O_67  and  C_68
REMARK                            x       y       z     vdW  Elec       q    Type
REMARK                         _______ _______ _______ _____ _____    ______ ____
ROOT
ATOM      1  C   UNL     1     -11.788  13.399  15.716  0.00  0.00    +0.000 C 
ATOM      2  C   UNL     1     -12.553  12.325  14.951  0.00  0.00    -0.080 C 
ATOM      3  C   UNL     1     -12.545  12.174  13.615  0.00  0.00    -0.059 C 
ATOM      4  C   UNL     1     -13.402  11.192  12.864  0.00  0.00    +0.079 C 
ATOM      5  C   UNL     1     -12.565  10.304  11.932  0.00  0.00    +0.004 C 
ATOM      6  C   UNL     1     -11.593   9.319  12.615  0.00  0.00    +0.067 C 
ATOM      7  C   UNL     1     -12.257   8.340  13.626  0.00  0.00    +0.022 C 
ATOM      8  C   UNL     1     -11.338   7.158  14.089  0.00  0.00    +0.138 C 
ATOM      9  C   UNL     1      -9.920   7.449  14.642  0.00  0.00    +0.114 C 
ATOM     10  C   UNL     1      -9.983   7.944  16.059  0.00  0.00    -0.029 C 
ATOM     11  C   UNL     1     -11.055   7.647  16.813  0.00  0.00    +0.024 C 
ATOM     12  C   UNL     1     -12.151   6.783  16.338  0.00  0.00    +0.332 C 
ATOM     13  O   UNL     1     -13.056   6.449  17.092  0.00  0.00    -0.246 OA
ATOM     14  O   UNL     1     -12.071   6.357  15.056  0.00  0.00    -0.455 OA
ATOM     15  C   UNL     1      -8.776   8.636  16.664  0.00  0.00    -0.002 C 
ATOM     16  C   UNL     1      -7.450   7.842  16.543  0.00  0.00    +0.066 C 
ATOM     17  C   UNL     1      -6.320   8.439  17.430  0.00  0.00    -0.005 C 
ATOM     18  C   UNL     1      -6.630   8.597  18.916  0.00  0.00    -0.070 C 
ATOM     19  C   UNL     1      -6.492   9.718  19.649  0.00  0.00    -0.062 C 
ATOM     20  C   UNL     1      -5.980  11.019  19.286  0.00  0.00    -0.055 C 
ATOM     21  C   UNL     1      -6.305  11.741  18.206  0.00  0.00    +0.023 C 
ATOM     22  C   UNL     1      -5.787  13.103  17.958  0.00  0.00    +0.332 C 
ATOM     23  O   UNL     1      -5.799  13.616  16.850  0.00  0.00    -0.246 OA
ATOM     24  O   UNL     1      -5.384  13.688  19.113  0.00  0.00    -0.457 OA
ATOM     25  C   UNL     1      -5.276  15.127  19.119  0.00  0.00    +0.114 C 
ATOM     26  C   UNL     1      -6.560  15.667  19.845  0.00  0.00    +0.012 C 
ATOM     27  C   UNL     1      -7.869  15.259  19.190  0.00  0.00    -0.079 C 
ATOM     28  C   UNL     1      -8.207  15.461  17.903  0.00  0.00    -0.059 C 
ATOM     29  C   UNL     1      -9.514  15.076  17.236  0.00  0.00    +0.079 C 
ATOM     30  C   UNL     1      -9.310  13.756  16.471  0.00  0.00    +0.004 C 
ATOM     31  C   UNL     1     -10.290  13.478  15.317  0.00  0.00    +0.064 C 
ATOM     32  H   UNL     1     -11.841  13.096  16.770  0.00  0.00    +0.037 HD
ATOM     33  H   UNL     1     -13.201  11.694  15.557  0.00  0.00    +0.057 HD
ATOM     34  H   UNL     1     -11.940  12.844  13.004  0.00  0.00    +0.059 HD
ATOM     35  H   UNL     1     -13.993  10.574  13.548  0.00  0.00    +0.064 HD
ATOM     36  H   UNL     1     -13.226   9.756  11.245  0.00  0.00    +0.032 HD
ATOM     37  H   UNL     1     -12.001  10.963  11.257  0.00  0.00    +0.032 HD
ATOM     38  H   UNL     1     -10.843   9.910  13.153  0.00  0.00    +0.060 HD
ATOM     39  H   UNL     1     -12.563   8.913  14.510  0.00  0.00    +0.036 HD
ATOM     40  H   UNL     1     -11.197   6.500  13.220  0.00  0.00    +0.077 HD
ATOM     41  H   UNL     1      -9.366   6.502  14.656  0.00  0.00    +0.068 HD
ATOM     42  H   UNL     1     -11.131   7.941  17.854  0.00  0.00    +0.069 HD
ATOM     43  H   UNL     1      -8.991   8.832  17.721  0.00  0.00    +0.034 HD
ATOM     44  H   UNL     1      -8.653   9.624  16.197  0.00  0.00    +0.034 HD
ATOM     45  H   UNL     1      -7.119   7.894  15.499  0.00  0.00    +0.060 HD
ATOM     46  H   UNL     1      -6.022   9.393  16.987  0.00  0.00    +0.034 HD
ATOM     47  H   UNL     1      -5.433   7.799  17.361  0.00  0.00    +0.034 HD
ATOM     48  H   UNL     1      -6.719   9.661  20.716  0.00  0.00    +0.062 HD
ATOM     49  H   UNL     1      -5.319  11.446  20.040  0.00  0.00    +0.062 HD
ATOM     50  H   UNL     1      -6.977  11.375  17.441  0.00  0.00    +0.069 HD
ATOM     51  H   UNL     1      -5.258  15.532  18.101  0.00  0.00    +0.074 HD
ATOM     52  H   UNL     1      -6.592  15.208  20.840  0.00  0.00    +0.038 HD
ATOM     53  H   UNL     1      -8.584  14.766  19.847  0.00  0.00    +0.057 HD
ATOM     54  H   UNL     1      -7.492  15.936  17.235  0.00  0.00    +0.059 HD
ATOM     55  H   UNL     1      -9.799  15.877  16.544  0.00  0.00    +0.064 HD
ATOM     56  H   UNL     1      -9.360  12.915  17.175  0.00  0.00    +0.032 HD
ATOM     57  H   UNL     1      -8.305  13.752  16.030  0.00  0.00    +0.032 HD
ATOM     58  H   UNL     1      -9.989  12.505  14.901  0.00  0.00    +0.060 HD
ENDROOT
BRANCH   1  59
ATOM     59  C   UNL     1     -12.550  14.719  15.543  0.00  0.00    -0.057 C 
ATOM     60  H   UNL     1     -13.472  14.586  14.966  0.00  0.00    +0.024 HD
ATOM     61  H   UNL     1     -12.833  15.132  16.520  0.00  0.00    +0.024 HD
ATOM     62  H   UNL     1     -11.955  15.473  15.028  0.00  0.00    +0.024 HD
ENDBRANCH   1  59
BRANCH  26  63
ATOM     63  C   UNL     1      -6.563  17.189  20.037  0.00  0.00    -0.056 C 
ATOM     64  H   UNL     1      -7.324  17.497  20.763  0.00  0.00    +0.024 HD
ATOM     65  H   UNL     1      -6.767  17.708  19.095  0.00  0.00    +0.024 HD
ATOM     66  H   UNL     1      -5.602  17.543  20.422  0.00  0.00    +0.024 HD
ENDBRANCH  26  63
BRANCH  18  67
ATOM     67  C   UNL     1      -7.068   7.330  19.621  0.00  0.00    -0.043 C 
ATOM     68  H   UNL     1      -7.865   6.810  19.080  0.00  0.00    +0.027 HD
ATOM     69  H   UNL     1      -6.236   6.628  19.719  0.00  0.00    +0.027 HD
ATOM     70  H   UNL     1      -7.460   7.565  20.616  0.00  0.00    +0.027 HD
ENDBRANCH  18  67
BRANCH   7  71
ATOM     71  C   UNL     1     -13.547   7.714  13.041  0.00  0.00    -0.057 C 
ATOM     72  H   UNL     1     -14.043   7.059  13.763  0.00  0.00    +0.023 HD
ATOM     73  H   UNL     1     -13.324   7.119  12.147  0.00  0.00    +0.023 HD
ATOM     74  H   UNL     1     -14.286   8.471  12.766  0.00  0.00    +0.023 HD
ENDBRANCH   7  71
BRANCH  31  75
ATOM     75  O   UNL     1     -10.077  14.440  14.279  0.00  0.00    -0.391 OA
ATOM     76  H   UNL     1      -9.660  13.974  13.533  0.00  0.00    +0.210 HD
ENDBRANCH  31  75
BRANCH  25  77
ATOM     77  C   UNL     1      -3.946  15.542  19.819  0.00  0.00    +0.020 C 
ATOM     78  H   UNL     1      -4.207  16.370  20.485  0.00  0.00    +0.036 HD
BRANCH  77  79
ATOM     79  C   UNL     1      -3.381  14.467  20.754  0.00  0.00    -0.057 C 
ATOM     80  H   UNL     1      -4.114  14.183  21.517  0.00  0.00    +0.023 HD
ATOM     81  H   UNL     1      -2.501  14.844  21.288  0.00  0.00    +0.023 HD
ATOM     82  H   UNL     1      -3.095  13.554  20.227  0.00  0.00    +0.023 HD
ENDBRANCH  77  79
BRANCH  77  83
ATOM     83  C   UNL     1      -2.881  16.139  18.833  0.00  0.00    +0.067 C 
ATOM     84  H   UNL     1      -3.349  16.332  17.859  0.00  0.00    +0.060 HD
BRANCH  83  85
ATOM     85  C   UNL     1      -1.562  15.339  18.596  0.00  0.00    -0.017 C 
ATOM     86  H   UNL     1      -1.668  14.352  19.066  0.00  0.00    +0.032 HD
BRANCH  85  87
ATOM     87  C   UNL     1      -1.239  15.114  17.118  0.00  0.00    -0.060 C 
ATOM     88  H   UNL     1      -1.598  14.141  16.779  0.00  0.00    +0.023 HD
ATOM     89  H   UNL     1      -1.682  15.891  16.487  0.00  0.00    +0.023 HD
ATOM     90  H   UNL     1      -0.157  15.120  16.945  0.00  0.00    +0.023 HD
ENDBRANCH  85  87
BRANCH  85  91
ATOM     91  C   UNL     1      -0.330  15.973  19.303  0.00  0.00    -0.041 C 
ATOM     92  H   UNL     1      -0.652  16.909  19.773  0.00  0.00    +0.027 HD
ATOM     93  H   UNL     1       0.414  16.274  18.553  0.00  0.00    +0.027 HD
BRANCH  91  94
ATOM     94  C   UNL     1       0.350  15.084  20.347  0.00  0.00    +0.007 C 
ATOM     95  H   UNL     1       0.881  15.702  21.080  0.00  0.00    +0.034 HD
ATOM     96  H   UNL     1      -0.387  14.476  20.884  0.00  0.00    +0.034 HD
BRANCH  94  97
ATOM     97  C   UNL     1       1.365  14.140  19.718  0.00  0.00    +0.139 C 
ATOM     98  O   UNL     1       1.026  13.188  19.014  0.00  0.00    -0.297 OA
BRANCH  97  99
ATOM     99  C   UNL     1       2.837  14.471  19.974  0.00  0.00    +0.041 C 
ATOM    100  H   UNL     1       3.162  15.130  19.158  0.00  0.00    +0.040 HD
BRANCH  99 101
ATOM    101  C   UNL     1       3.607  13.156  19.890  0.00  0.00    -0.053 C 
ATOM    102  H   UNL     1       3.023  12.330  20.305  0.00  0.00    +0.024 HD
ATOM    103  H   UNL     1       4.542  13.203  20.461  0.00  0.00    +0.024 HD
ATOM    104  H   UNL     1       3.878  12.918  18.855  0.00  0.00    +0.024 HD
ENDBRANCH  99 101
BRANCH  99 105
ATOM    105  C   UNL     1       2.971  15.235  21.307  0.00  0.00    +0.071 C 
ATOM    106  H   UNL     1       2.065  15.827  21.493  0.00  0.00    +0.061 HD
BRANCH 105 107
ATOM    107  C   UNL     1       3.264  14.332  22.529  0.00  0.00    -0.006 C 
ATOM    108  H   UNL     1       2.352  14.218  23.130  0.00  0.00    +0.033 HD
ATOM    109  H   UNL     1       3.505  13.318  22.186  0.00  0.00    +0.033 HD
BRANCH 107 110
ATOM    110  C   UNL     1       4.428  14.798  23.365  0.00  0.00    -0.067 C 
ATOM    111  C   UNL     1       4.307  15.193  24.641  0.00  0.00    -0.005 C 
ATOM    112  H   UNL     1       5.394  14.791  22.868  0.00  0.00    +0.059 HD
ATOM    113  H   UNL     1       3.321  15.180  25.112  0.00  0.00    +0.078 HD
BRANCH 111 114
ATOM    114  N   UNL     1       5.333  15.644  25.455  0.00  0.00    -0.284 N 
ATOM    115  C   UNL     1       5.158  16.808  26.202  0.00  0.00    +0.206 C 
ATOM    116  O   UNL     1       4.166  17.527  26.219  0.00  0.00    -0.279 OA
ATOM    117  H   UNL     1       6.042  17.056  26.815  0.00  0.00    +0.126 HD
BRANCH 114 118
ATOM    118  C   UNL     1       6.597  14.931  25.548  0.00  0.00    +0.007 C 
ATOM    119  H   UNL     1       6.553  14.222  26.381  0.00  0.00    +0.043 HD
ATOM    120  H   UNL     1       6.786  14.402  24.609  0.00  0.00    +0.043 HD
ATOM    121  H   UNL     1       7.428  15.622  25.725  0.00  0.00    +0.043 HD
ENDBRANCH 114 118
ENDBRANCH 111 114
ENDBRANCH 107 110
ENDBRANCH 105 107
BRANCH 105 122
ATOM    122  O   UNL     1       4.098  16.126  21.144  0.00  0.00    -0.379 OA
BRANCH 122 123
ATOM    123  C   UNL     1       3.877  17.109  20.138  0.00  0.00    +0.037 C 
ATOM    124  H   UNL     1       2.844  17.465  20.157  0.00  0.00    +0.052 HD
ATOM    125  H   UNL     1       4.118  16.703  19.151  0.00  0.00    +0.052 HD
ATOM    126  H   UNL     1       4.541  17.956  20.338  0.00  0.00    +0.052 HD
ENDBRANCH 122 123
ENDBRANCH 105 122
ENDBRANCH  99 105
ENDBRANCH  97  99
ENDBRANCH  94  97
ENDBRANCH  91  94
ENDBRANCH  85  91
ENDBRANCH  83  85
BRANCH  83 127
ATOM    127  O   UNL     1      -2.460  17.407  19.396  0.00  0.00    -0.379 OA
BRANCH 127 128
ATOM    128  C   UNL     1      -3.301  18.498  19.039  0.00  0.00    +0.037 C 
ATOM    129  H   UNL     1      -2.822  19.040  18.219  0.00  0.00    +0.052 HD
ATOM    130  H   UNL     1      -3.433  19.187  19.877  0.00  0.00    +0.052 HD
ATOM    131  H   UNL     1      -4.275  18.137  18.697  0.00  0.00    +0.052 HD
ENDBRANCH 127 128
ENDBRANCH  83 127
ENDBRANCH  77  83
ENDBRANCH  25  77
BRANCH   9 132
ATOM    132  O   UNL     1      -9.171   8.353  13.849  0.00  0.00    -0.384 OA
ATOM    133  H   UNL     1      -9.196   9.212  14.316  0.00  0.00    +0.210 HD
ENDBRANCH   9 132
BRANCH  29 134
ATOM    134  O   UNL     1     -10.551  14.874  18.207  0.00  0.00    -0.376 OA
BRANCH 134 135
ATOM    135  C   UNL     1     -11.237  16.073  18.553  0.00  0.00    +0.037 C 
ATOM    136  H   UNL     1     -11.932  15.909  19.380  0.00  0.00    +0.052 HD
ATOM    137  H   UNL     1     -10.534  16.869  18.813  0.00  0.00    +0.052 HD
ATOM    138  H   UNL     1     -11.815  16.394  17.680  0.00  0.00    +0.052 HD
ENDBRANCH 134 135
ENDBRANCH  29 134
BRANCH   6 139
ATOM    139  O   UNL     1     -10.898   8.504  11.647  0.00  0.00    -0.379 OA
BRANCH 139 140
ATOM    140  C   UNL     1     -10.737   9.103  10.365  0.00  0.00    +0.037 C 
ATOM    141  H   UNL     1     -10.293   8.357   9.698  0.00  0.00    +0.052 HD
ATOM    142  H   UNL     1     -11.707   9.389   9.947  0.00  0.00    +0.052 HD
ATOM    143  H   UNL     1     -10.068   9.967  10.417  0.00  0.00    +0.052 HD
ENDBRANCH 139 140
ENDBRANCH   6 139
BRANCH  16 144
ATOM    144  O   UNL     1      -7.685   6.464  16.877  0.00  0.00    -0.379 OA
BRANCH 144 145
ATOM    145  C   UNL     1      -7.312   5.562  15.842  0.00  0.00    +0.037 C 
ATOM    146  H   UNL     1      -6.569   4.868  16.245  0.00  0.00    +0.052 HD
ATOM    147  H   UNL     1      -8.180   4.985  15.512  0.00  0.00    +0.052 HD
ATOM    148  H   UNL     1      -6.866   6.087  14.994  0.00  0.00    +0.052 HD
ENDBRANCH 144 145
ENDBRANCH  16 144
BRANCH   4 149
ATOM    149  O   UNL     1     -14.295  11.927  12.011  0.00  0.00    -0.376 OA
BRANCH 149 150
ATOM    150  C   UNL     1     -13.851  12.003  10.661  0.00  0.00    +0.037 C 
ATOM    151  H   UNL     1     -13.030  12.724  10.614  0.00  0.00    +0.052 HD
ATOM    152  H   UNL     1     -14.652  12.357  10.008  0.00  0.00    +0.052 HD
ATOM    153  H   UNL     1     -13.480  11.033  10.317  0.00  0.00    +0.052 HD
ENDBRANCH 149 150
ENDBRANCH   4 149
TORSDOF 33
ENDMDL
MODEL 5
REMARK VINA RESULT:      -5.1      6.477     12.512
REMARK  Name = Sphinxolide B_conf2
REMARK  33 active torsions:
REMARK  status: ('A' for Active; 'I' for Inactive)
REMARK    1  A    between atoms: C_1  and  C_2
REMARK    2  A    between atoms: C_5  and  O_67
REMARK    3  A    between atoms: C_7  and  O_65
REMARK    4  A    between atoms: C_8  and  C_64
REMARK    5  A    between atoms: C_10  and  O_63
REMARK    6  A    between atoms: C_17  and  O_61
REMARK    7  A    between atoms: C_19  and  C_60
REMARK    8  A    between atoms: C_26  and  C_37
REMARK    9  A    between atoms: C_27  and  C_36
REMARK   10  A    between atoms: C_30  and  O_34
REMARK   11  A    between atoms: C_32  and  O_33
REMARK   12  A    between atoms: O_34  and  C_35
REMARK   13  A    between atoms: C_37  and  C_38
REMARK   14  A    between atoms: C_37  and  C_39
REMARK   15  A    between atoms: C_39  and  C_40
REMARK   16  A    between atoms: C_39  and  O_58
REMARK   17  A    between atoms: C_40  and  C_41
REMARK   18  A    between atoms: C_40  and  C_42
REMARK   19  A    between atoms: C_42  and  C_43
REMARK   20  A    between atoms: C_43  and  C_44
REMARK   21  A    between atoms: C_44  and  C_46
REMARK   22  A    between atoms: C_46  and  C_47
REMARK   23  A    between atoms: C_46  and  C_48
REMARK   24  A    between atoms: C_48  and  C_49
REMARK   25  A    between atoms: C_48  and  O_56
REMARK   26  A    between atoms: C_49  and  C_50
REMARK   27  A    between atoms: C_51  and  N_52
REMARK   28  A    between atoms: N_52  and  C_53
REMARK   29  A    between atoms: O_56  and  C_57
REMARK   30  A    between atoms: O_58  and  C_59
REMARK   31  A    between atoms: O_61  and  C_62
REMARK   32  A    between atoms: O_65  and  C_66
REMARK   33  A    between atoms: O_67  and  C_68
REMARK                            x       y       z     vdW  Elec       q    Type
REMARK                         _______ _______ _______ _____ _____    ______ ____
ROOT
ATOM      1  C   UNL     1     -11.812  13.374  15.682  0.00  0.00    +0.000 C 
ATOM      2  C   UNL     1     -12.563  12.297  14.909  0.00  0.00    -0.080 C 
ATOM      3  C   UNL     1     -12.545  12.150  13.572  0.00  0.00    -0.059 C 
ATOM      4  C   UNL     1     -13.389  11.164  12.812  0.00  0.00    +0.079 C 
ATOM      5  C   UNL     1     -12.539  10.285  11.883  0.00  0.00    +0.004 C 
ATOM      6  C   UNL     1     -11.564   9.306  12.570  0.00  0.00    +0.067 C 
ATOM      7  C   UNL     1     -12.227   8.319  13.573  0.00  0.00    +0.022 C 
ATOM      8  C   UNL     1     -11.303   7.143  14.038  0.00  0.00    +0.138 C 
ATOM      9  C   UNL     1      -9.891   7.443  14.602  0.00  0.00    +0.114 C 
ATOM     10  C   UNL     1      -9.967   7.932  16.020  0.00  0.00    -0.029 C 
ATOM     11  C   UNL     1     -11.043   7.624  16.766  0.00  0.00    +0.024 C 
ATOM     12  C   UNL     1     -12.129   6.754  16.281  0.00  0.00    +0.332 C 
ATOM     13  O   UNL     1     -13.036   6.411  17.027  0.00  0.00    -0.246 OA
ATOM     14  O   UNL     1     -12.037   6.332  14.998  0.00  0.00    -0.455 OA
ATOM     15  C   UNL     1      -8.770   8.632  16.636  0.00  0.00    -0.002 C 
ATOM     16  C   UNL     1      -7.438   7.848  16.522  0.00  0.00    +0.066 C 
ATOM     17  C   UNL     1      -6.318   8.450  17.419  0.00  0.00    -0.005 C 
ATOM     18  C   UNL     1      -6.639   8.601  18.902  0.00  0.00    -0.070 C 
ATOM     19  C   UNL     1      -6.515   9.721  19.640  0.00  0.00    -0.062 C 
ATOM     20  C   UNL     1      -6.011  11.027  19.285  0.00  0.00    -0.055 C 
ATOM     21  C   UNL     1      -6.334  11.750  18.205  0.00  0.00    +0.023 C 
ATOM     22  C   UNL     1      -5.824  13.117  17.966  0.00  0.00    +0.332 C 
ATOM     23  O   UNL     1      -5.832  13.633  16.859  0.00  0.00    -0.246 OA
ATOM     24  O   UNL     1      -5.434  13.701  19.125  0.00  0.00    -0.457 OA
ATOM     25  C   UNL     1      -5.337  15.141  19.137  0.00  0.00    +0.114 C 
ATOM     26  C   UNL     1      -6.630  15.669  19.855  0.00  0.00    +0.012 C 
ATOM     27  C   UNL     1      -7.931  15.253  19.190  0.00  0.00    -0.079 C 
ATOM     28  C   UNL     1      -8.262  15.457  17.901  0.00  0.00    -0.059 C 
ATOM     29  C   UNL     1      -9.562  15.063  17.223  0.00  0.00    +0.079 C 
ATOM     30  C   UNL     1      -9.342  13.748  16.456  0.00  0.00    +0.004 C 
ATOM     31  C   UNL     1     -10.312  13.466  15.294  0.00  0.00    +0.064 C 
ATOM     32  H   UNL     1     -11.870  13.068  16.735  0.00  0.00    +0.037 HD
ATOM     33  H   UNL     1     -13.211  11.659  15.508  0.00  0.00    +0.057 HD
ATOM     34  H   UNL     1     -11.940  12.827  12.968  0.00  0.00    +0.059 HD
ATOM     35  H   UNL     1     -13.980  10.539  13.490  0.00  0.00    +0.064 HD
ATOM     36  H   UNL     1     -13.190   9.736  11.190  0.00  0.00    +0.032 HD
ATOM     37  H   UNL     1     -11.975  10.951  11.214  0.00  0.00    +0.032 HD
ATOM     38  H   UNL     1     -10.823   9.901  13.115  0.00  0.00    +0.060 HD
ATOM     39  H   UNL     1     -12.544   8.886  14.456  0.00  0.00    +0.036 HD
ATOM     40  H   UNL     1     -11.151   6.488  13.168  0.00  0.00    +0.077 HD
ATOM     41  H   UNL     1      -9.330   6.499  14.617  0.00  0.00    +0.068 HD
ATOM     42  H   UNL     1     -11.128   7.915  17.807  0.00  0.00    +0.069 HD
ATOM     43  H   UNL     1      -8.994   8.822  17.692  0.00  0.00    +0.034 HD
ATOM     44  H   UNL     1      -8.651   9.621  16.173  0.00  0.00    +0.034 HD
ATOM     45  H   UNL     1      -7.100   7.906  15.480  0.00  0.00    +0.060 HD
ATOM     46  H   UNL     1      -6.025   9.409  16.980  0.00  0.00    +0.034 HD
ATOM     47  H   UNL     1      -5.425   7.817  17.354  0.00  0.00    +0.034 HD
ATOM     48  H   UNL     1      -6.749   9.658  20.705  0.00  0.00    +0.062 HD
ATOM     49  H   UNL     1      -5.358  11.456  20.046  0.00  0.00    +0.062 HD
ATOM     50  H   UNL     1      -6.997  11.381  17.434  0.00  0.00    +0.069 HD
ATOM     51  H   UNL     1      -5.315  15.549  18.120  0.00  0.00    +0.074 HD
ATOM     52  H   UNL     1      -6.666  15.206  20.848  0.00  0.00    +0.038 HD
ATOM     53  H   UNL     1      -8.647  14.753  19.840  0.00  0.00    +0.057 HD
ATOM     54  H   UNL     1      -7.546  15.939  17.240  0.00  0.00    +0.059 HD
ATOM     55  H   UNL     1      -9.847  15.865  16.532  0.00  0.00    +0.064 HD
ATOM     56  H   UNL     1      -9.390  12.904  17.157  0.00  0.00    +0.032 HD
ATOM     57  H   UNL     1      -8.334  13.753  16.022  0.00  0.00    +0.032 HD
ATOM     58  H   UNL     1     -10.001  12.496  14.877  0.00  0.00    +0.060 HD
ENDROOT
BRANCH   1  59
ATOM     59  C   UNL     1     -12.582  14.689  15.509  0.00  0.00    -0.057 C 
ATOM     60  H   UNL     1     -11.914  15.527  15.277  0.00  0.00    +0.024 HD
ATOM     61  H   UNL     1     -13.303  14.609  14.685  0.00  0.00    +0.024 HD
ATOM     62  H   UNL     1     -13.138  14.962  16.405  0.00  0.00    +0.024 HD
ENDBRANCH   1  59
BRANCH  26  63
ATOM     63  C   UNL     1      -6.646  17.190  20.052  0.00  0.00    -0.056 C 
ATOM     64  H   UNL     1      -6.117  17.478  20.967  0.00  0.00    +0.024 HD
ATOM     65  H   UNL     1      -7.669  17.572  20.120  0.00  0.00    +0.024 HD
ATOM     66  H   UNL     1      -6.144  17.703  19.226  0.00  0.00    +0.024 HD
ENDBRANCH  26  63
BRANCH  18  67
ATOM     67  C   UNL     1      -7.073   7.329  19.601  0.00  0.00    -0.043 C 
ATOM     68  H   UNL     1      -7.941   6.867  19.118  0.00  0.00    +0.027 HD
ATOM     69  H   UNL     1      -6.272   6.586  19.595  0.00  0.00    +0.027 HD
ATOM     70  H   UNL     1      -7.359   7.542  20.636  0.00  0.00    +0.027 HD
ENDBRANCH  18  67
BRANCH   7  71
ATOM     71  C   UNL     1     -13.508   7.685  12.976  0.00  0.00    -0.057 C 
ATOM     72  H   UNL     1     -13.364   6.626  12.743  0.00  0.00    +0.023 HD
ATOM     73  H   UNL     1     -13.805   8.195  12.052  0.00  0.00    +0.023 HD
ATOM     74  H   UNL     1     -14.352   7.727  13.670  0.00  0.00    +0.023 HD
ENDBRANCH   7  71
BRANCH  31  75
ATOM     75  O   UNL     1     -10.099  14.433  14.261  0.00  0.00    -0.391 OA
ATOM     76  H   UNL     1      -9.976  15.297  14.693  0.00  0.00    +0.210 HD
ENDBRANCH  31  75
BRANCH  25  77
ATOM     77  C   UNL     1      -4.015  15.564  19.847  0.00  0.00    +0.020 C 
ATOM     78  H   UNL     1      -4.283  16.399  20.500  0.00  0.00    +0.036 HD
BRANCH  77  79
ATOM     79  C   UNL     1      -3.462  14.500  20.802  0.00  0.00    -0.057 C 
ATOM     80  H   UNL     1      -3.630  13.491  20.409  0.00  0.00    +0.023 HD
ATOM     81  H   UNL     1      -3.972  14.550  21.771  0.00  0.00    +0.023 HD
ATOM     82  H   UNL     1      -2.388  14.602  20.975  0.00  0.00    +0.023 HD
ENDBRANCH  77  79
BRANCH  77  83
ATOM     83  C   UNL     1      -2.938  16.147  18.867  0.00  0.00    +0.067 C 
ATOM     84  H   UNL     1      -3.390  16.315  17.880  0.00  0.00    +0.060 HD
BRANCH  83  85
ATOM     85  C   UNL     1      -1.609  15.354  18.670  0.00  0.00    -0.017 C 
ATOM     86  H   UNL     1      -1.718  14.374  19.153  0.00  0.00    +0.032 HD
BRANCH  85  87
ATOM     87  C   UNL     1      -1.252  15.110  17.203  0.00  0.00    -0.060 C 
ATOM     88  H   UNL     1      -1.914  14.368  16.754  0.00  0.00    +0.023 HD
ATOM     89  H   UNL     1      -1.309  16.032  16.616  0.00  0.00    +0.023 HD
ATOM     90  H   UNL     1      -0.235  14.713  17.105  0.00  0.00    +0.023 HD
ENDBRANCH  85  87
BRANCH  85  91
ATOM     91  C   UNL     1      -0.397  16.007  19.394  0.00  0.00    -0.041 C 
ATOM     92  H   UNL     1      -0.776  16.813  20.033  0.00  0.00    +0.027 HD
ATOM     93  H   UNL     1       0.248  16.509  18.659  0.00  0.00    +0.027 HD
BRANCH  91  94
ATOM     94  C   UNL     1       0.456  15.050  20.230  0.00  0.00    +0.007 C 
ATOM     95  H   UNL     1       0.692  15.503  21.199  0.00  0.00    +0.034 HD
ATOM     96  H   UNL     1      -0.077  14.110  20.414  0.00  0.00    +0.034 HD
BRANCH  94  97
ATOM     97  C   UNL     1       1.773  14.714  19.545  0.00  0.00    +0.139 C 
ATOM     98  O   UNL     1       1.894  14.722  18.319  0.00  0.00    -0.297 OA
BRANCH  97  99
ATOM     99  C   UNL     1       2.952  14.409  20.471  0.00  0.00    +0.041 C 
ATOM    100  H   UNL     1       3.428  13.495  20.090  0.00  0.00    +0.040 HD
BRANCH  99 101
ATOM    101  C   UNL     1       2.370  14.130  21.853  0.00  0.00    -0.053 C 
ATOM    102  H   UNL     1       2.724  14.863  22.584  0.00  0.00    +0.024 HD
ATOM    103  H   UNL     1       2.671  13.143  22.222  0.00  0.00    +0.024 HD
ATOM    104  H   UNL     1       1.275  14.144  21.834  0.00  0.00    +0.024 HD
ENDBRANCH  99 101
BRANCH  99 105
ATOM    105  C   UNL     1       3.976  15.561  20.400  0.00  0.00    +0.071 C 
ATOM    106  H   UNL     1       4.164  15.833  19.353  0.00  0.00    +0.061 HD
BRANCH 105 107
ATOM    107  C   UNL     1       3.568  16.821  21.200  0.00  0.00    -0.006 C 
ATOM    108  H   UNL     1       2.687  16.598  21.816  0.00  0.00    +0.033 HD
ATOM    109  H   UNL     1       4.359  17.071  21.919  0.00  0.00    +0.033 HD
BRANCH 107 110
ATOM    110  C   UNL     1       3.355  18.043  20.344  0.00  0.00    -0.067 C 
ATOM    111  C   UNL     1       4.346  18.868  19.980  0.00  0.00    -0.005 C 
ATOM    112  H   UNL     1       2.331  18.220  20.027  0.00  0.00    +0.059 HD
ATOM    113  H   UNL     1       5.366  18.657  20.311  0.00  0.00    +0.078 HD
BRANCH 111 114
ATOM    114  N   UNL     1       4.213  20.012  19.209  0.00  0.00    -0.284 N 
ATOM    115  C   UNL     1       4.647  20.004  17.884  0.00  0.00    +0.206 C 
ATOM    116  O   UNL     1       5.172  19.069  17.290  0.00  0.00    -0.279 OA
ATOM    117  H   UNL     1       4.479  20.969  17.376  0.00  0.00    +0.126 HD
BRANCH 114 118
ATOM    118  C   UNL     1       3.632  21.229  19.752  0.00  0.00    +0.007 C 
ATOM    119  H   UNL     1       4.368  21.727  20.392  0.00  0.00    +0.043 HD
ATOM    120  H   UNL     1       3.336  21.889  18.931  0.00  0.00    +0.043 HD
ATOM    121  H   UNL     1       2.743  21.010  20.352  0.00  0.00    +0.043 HD
ENDBRANCH 114 118
ENDBRANCH 111 114
ENDBRANCH 107 110
ENDBRANCH 105 107
BRANCH 105 122
ATOM    122  O   UNL     1       5.194  15.049  20.987  0.00  0.00    -0.379 OA
BRANCH 122 123
ATOM    123  C   UNL     1       5.712  15.901  22.003  0.00  0.00    +0.037 C 
ATOM    124  H   UNL     1       6.759  15.672  22.212  0.00  0.00    +0.052 HD
ATOM    125  H   UNL     1       5.116  15.808  22.917  0.00  0.00    +0.052 HD
ATOM    126  H   UNL     1       5.645  16.934  21.648  0.00  0.00    +0.052 HD
ENDBRANCH 122 123
ENDBRANCH 105 122
ENDBRANCH  99 105
ENDBRANCH  97  99
ENDBRANCH  94  97
ENDBRANCH  91  94
ENDBRANCH  85  91
ENDBRANCH  83  85
BRANCH  83 127
ATOM    127  O   UNL     1      -2.537  17.431  19.409  0.00  0.00    -0.379 OA
BRANCH 127 128
ATOM    128  C   UNL     1      -3.387  18.506  19.021  0.00  0.00    +0.037 C 
ATOM    129  H   UNL     1      -2.891  19.055  18.217  0.00  0.00    +0.052 HD
ATOM    130  H   UNL     1      -3.561  19.192  19.853  0.00  0.00    +0.052 HD
ATOM    131  H   UNL     1      -4.341  18.125  18.647  0.00  0.00    +0.052 HD
ENDBRANCH 127 128
ENDBRANCH  83 127
ENDBRANCH  77  83
ENDBRANCH  25  77
BRANCH   9 132
ATOM    132  O   UNL     1      -9.144   8.354  13.817  0.00  0.00    -0.384 OA
ATOM    133  H   UNL     1      -8.489   8.760  14.420  0.00  0.00    +0.210 HD
ENDBRANCH   9 132
BRANCH  29 134
ATOM    134  O   UNL     1     -10.604  14.851  18.187  0.00  0.00    -0.376 OA
BRANCH 134 135
ATOM    135  C   UNL     1     -11.301  16.043  18.532  0.00  0.00    +0.037 C 
ATOM    136  H   UNL     1     -10.745  16.632  19.265  0.00  0.00    +0.052 HD
ATOM    137  H   UNL     1     -11.504  16.651  17.647  0.00  0.00    +0.052 HD
ATOM    138  H   UNL     1     -12.258  15.755  18.981  0.00  0.00    +0.052 HD
ENDBRANCH 134 135
ENDBRANCH  29 134
BRANCH   6 139
ATOM    139  O   UNL     1     -10.856   8.500  11.604  0.00  0.00    -0.379 OA
BRANCH 139 140
ATOM    140  C   UNL     1     -10.860   9.014  10.276  0.00  0.00    +0.037 C 
ATOM    141  H   UNL     1     -11.901   9.090   9.947  0.00  0.00    +0.052 HD
ATOM    142  H   UNL     1     -10.427  10.018  10.248  0.00  0.00    +0.052 HD
ATOM    143  H   UNL     1     -10.327   8.344   9.594  0.00  0.00    +0.052 HD
ENDBRANCH 139 140
ENDBRANCH   6 139
BRANCH  16 144
ATOM    144  O   UNL     1      -7.664   6.467  16.849  0.00  0.00    -0.379 OA
BRANCH 144 145
ATOM    145  C   UNL     1      -7.258   5.570  15.823  0.00  0.00    +0.037 C 
ATOM    146  H   UNL     1      -6.774   4.709  16.292  0.00  0.00    +0.052 HD
ATOM    147  H   UNL     1      -8.129   5.215  15.265  0.00  0.00    +0.052 HD
ATOM    148  H   UNL     1      -6.542   6.037  15.142  0.00  0.00    +0.052 HD
ENDBRANCH 144 145
ENDBRANCH  16 144
BRANCH   4 149
ATOM    149  O   UNL     1     -14.281  11.895  11.956  0.00  0.00    -0.376 OA
BRANCH 149 150
ATOM    150  C   UNL     1     -13.675  13.030  11.346  0.00  0.00    +0.037 C 
ATOM    151  H   UNL     1     -13.153  13.594  12.124  0.00  0.00    +0.052 HD
ATOM    152  H   UNL     1     -14.431  13.683  10.903  0.00  0.00    +0.052 HD
ATOM    153  H   UNL     1     -12.946  12.725  10.591  0.00  0.00    +0.052 HD
ENDBRANCH 149 150
ENDBRANCH   4 149
TORSDOF 33
ENDMDL
MODEL 6
REMARK VINA RESULT:      -5.1      1.473      2.079
REMARK  Name = Sphinxolide B_conf2
REMARK  33 active torsions:
REMARK  status: ('A' for Active; 'I' for Inactive)
REMARK    1  A    between atoms: C_1  and  C_2
REMARK    2  A    between atoms: C_5  and  O_67
REMARK    3  A    between atoms: C_7  and  O_65
REMARK    4  A    between atoms: C_8  and  C_64
REMARK    5  A    between atoms: C_10  and  O_63
REMARK    6  A    between atoms: C_17  and  O_61
REMARK    7  A    between atoms: C_19  and  C_60
REMARK    8  A    between atoms: C_26  and  C_37
REMARK    9  A    between atoms: C_27  and  C_36
REMARK   10  A    between atoms: C_30  and  O_34
REMARK   11  A    between atoms: C_32  and  O_33
REMARK   12  A    between atoms: O_34  and  C_35
REMARK   13  A    between atoms: C_37  and  C_38
REMARK   14  A    between atoms: C_37  and  C_39
REMARK   15  A    between atoms: C_39  and  C_40
REMARK   16  A    between atoms: C_39  and  O_58
REMARK   17  A    between atoms: C_40  and  C_41
REMARK   18  A    between atoms: C_40  and  C_42
REMARK   19  A    between atoms: C_42  and  C_43
REMARK   20  A    between atoms: C_43  and  C_44
REMARK   21  A    between atoms: C_44  and  C_46
REMARK   22  A    between atoms: C_46  and  C_47
REMARK   23  A    between atoms: C_46  and  C_48
REMARK   24  A    between atoms: C_48  and  C_49
REMARK   25  A    between atoms: C_48  and  O_56
REMARK   26  A    between atoms: C_49  and  C_50
REMARK   27  A    between atoms: C_51  and  N_52
REMARK   28  A    between atoms: N_52  and  C_53
REMARK   29  A    between atoms: O_56  and  C_57
REMARK   30  A    between atoms: O_58  and  C_59
REMARK   31  A    between atoms: O_61  and  C_62
REMARK   32  A    between atoms: O_65  and  C_66
REMARK   33  A    between atoms: O_67  and  C_68
REMARK                            x       y       z     vdW  Elec       q    Type
REMARK                         _______ _______ _______ _____ _____    ______ ____
ROOT
ATOM      1  C   UNL     1      -9.075  14.545  23.189  0.00  0.00    +0.000 C 
ATOM      2  C   UNL     1      -8.075  15.411  22.432  0.00  0.00    -0.080 C 
ATOM      3  C   UNL     1      -6.822  15.682  22.840  0.00  0.00    -0.059 C 
ATOM      4  C   UNL     1      -5.889  16.639  22.149  0.00  0.00    +0.079 C 
ATOM      5  C   UNL     1      -4.537  15.985  21.831  0.00  0.00    +0.004 C 
ATOM      6  C   UNL     1      -4.555  14.850  20.784  0.00  0.00    +0.067 C 
ATOM      7  C   UNL     1      -5.155  15.244  19.404  0.00  0.00    +0.022 C 
ATOM      8  C   UNL     1      -4.903  14.201  18.262  0.00  0.00    +0.138 C 
ATOM      9  C   UNL     1      -5.268  12.711  18.479  0.00  0.00    +0.114 C 
ATOM     10  C   UNL     1      -6.747  12.490  18.341  0.00  0.00    -0.029 C 
ATOM     11  C   UNL     1      -7.480  13.364  17.631  0.00  0.00    +0.024 C 
ATOM     12  C   UNL     1      -6.885  14.501  16.904  0.00  0.00    +0.332 C 
ATOM     13  O   UNL     1      -7.572  15.209  16.181  0.00  0.00    -0.246 OA
ATOM     14  O   UNL     1      -5.551  14.678  17.050  0.00  0.00    -0.455 OA
ATOM     15  C   UNL     1      -7.366  11.211  18.874  0.00  0.00    -0.002 C 
ATOM     16  C   UNL     1      -6.688   9.910  18.371  0.00  0.00    +0.066 C 
ATOM     17  C   UNL     1      -7.530   8.642  18.693  0.00  0.00    -0.005 C 
ATOM     18  C   UNL     1      -8.971   8.634  18.192  0.00  0.00    -0.070 C 
ATOM     19  C   UNL     1     -10.074   8.389  18.925  0.00  0.00    -0.062 C 
ATOM     20  C   UNL     1     -10.213   8.019  20.315  0.00  0.00    -0.055 C 
ATOM     21  C   UNL     1      -9.617   8.595  21.367  0.00  0.00    +0.023 C 
ATOM     22  C   UNL     1      -9.883   8.197  22.765  0.00  0.00    +0.332 C 
ATOM     23  O   UNL     1      -9.118   8.466  23.679  0.00  0.00    -0.246 OA
ATOM     24  O   UNL     1     -11.087   7.582  22.875  0.00  0.00    -0.457 OA
ATOM     25  C   UNL     1     -11.683   7.533  24.188  0.00  0.00    +0.114 C 
ATOM     26  C   UNL     1     -12.783   8.654  24.219  0.00  0.00    +0.012 C 
ATOM     27  C   UNL     1     -12.259  10.055  23.952  0.00  0.00    -0.079 C 
ATOM     28  C   UNL     1     -11.261  10.667  24.616  0.00  0.00    -0.059 C 
ATOM     29  C   UNL     1     -10.735  12.070  24.374  0.00  0.00    +0.079 C 
ATOM     30  C   UNL     1      -9.461  11.979  23.517  0.00  0.00    +0.004 C 
ATOM     31  C   UNL     1      -8.490  13.171  23.611  0.00  0.00    +0.064 C 
ATOM     32  H   UNL     1      -9.892  14.360  22.479  0.00  0.00    +0.037 HD
ATOM     33  H   UNL     1      -8.460  15.890  21.533  0.00  0.00    +0.057 HD
ATOM     34  H   UNL     1      -6.457  15.248  23.771  0.00  0.00    +0.059 HD
ATOM     35  H   UNL     1      -6.339  17.045  21.237  0.00  0.00    +0.064 HD
ATOM     36  H   UNL     1      -3.812  16.754  21.531  0.00  0.00    +0.032 HD
ATOM     37  H   UNL     1      -4.118  15.604  22.772  0.00  0.00    +0.032 HD
ATOM     38  H   UNL     1      -5.152  14.028  21.195  0.00  0.00    +0.060 HD
ATOM     39  H   UNL     1      -6.237  15.378  19.523  0.00  0.00    +0.036 HD
ATOM     40  H   UNL     1      -3.827  14.221  18.037  0.00  0.00    +0.077 HD
ATOM     41  H   UNL     1      -4.781  12.128  17.686  0.00  0.00    +0.068 HD
ATOM     42  H   UNL     1      -8.542  13.228  17.464  0.00  0.00    +0.069 HD
ATOM     43  H   UNL     1      -8.425  11.203  18.594  0.00  0.00    +0.034 HD
ATOM     44  H   UNL     1      -7.348  11.230  19.973  0.00  0.00    +0.034 HD
ATOM     45  H   UNL     1      -5.724   9.812  18.886  0.00  0.00    +0.060 HD
ATOM     46  H   UNL     1      -7.488   8.484  19.775  0.00  0.00    +0.034 HD
ATOM     47  H   UNL     1      -7.041   7.765  18.254  0.00  0.00    +0.034 HD
ATOM     48  H   UNL     1     -11.037   8.381  18.411  0.00  0.00    +0.062 HD
ATOM     49  H   UNL     1     -10.948   7.230  20.477  0.00  0.00    +0.062 HD
ATOM     50  H   UNL     1      -8.900   9.399  21.262  0.00  0.00    +0.069 HD
ATOM     51  H   UNL     1     -10.947   7.748  24.971  0.00  0.00    +0.074 HD
ATOM     52  H   UNL     1     -13.478   8.455  23.395  0.00  0.00    +0.038 HD
ATOM     53  H   UNL     1     -12.760  10.593  23.148  0.00  0.00    +0.057 HD
ATOM     54  H   UNL     1     -10.743  10.130  25.407  0.00  0.00    +0.059 HD
ATOM     55  H   UNL     1     -10.511  12.527  25.344  0.00  0.00    +0.064 HD
ATOM     56  H   UNL     1      -9.738  11.844  22.463  0.00  0.00    +0.032 HD
ATOM     57  H   UNL     1      -8.890  11.092  23.820  0.00  0.00    +0.032 HD
ATOM     58  H   UNL     1      -7.655  12.927  22.938  0.00  0.00    +0.060 HD
ENDROOT
BRANCH   1  59
ATOM     59  C   UNL     1      -9.616  15.379  24.357  0.00  0.00    -0.057 C 
ATOM     60  H   UNL     1      -8.808  15.814  24.957  0.00  0.00    +0.024 HD
ATOM     61  H   UNL     1     -10.231  16.208  23.987  0.00  0.00    +0.024 HD
ATOM     62  H   UNL     1     -10.234  14.788  25.033  0.00  0.00    +0.024 HD
ENDBRANCH   1  59
BRANCH  26  63
ATOM     63  C   UNL     1     -13.600   8.677  25.518  0.00  0.00    -0.056 C 
ATOM     64  H   UNL     1     -13.068   9.213  26.312  0.00  0.00    +0.024 HD
ATOM     65  H   UNL     1     -13.807   7.664  25.876  0.00  0.00    +0.024 HD
ATOM     66  H   UNL     1     -14.555   9.193  25.377  0.00  0.00    +0.024 HD
ENDBRANCH  26  63
BRANCH  18  67
ATOM     67  C   UNL     1      -9.137   8.861  16.704  0.00  0.00    -0.043 C 
ATOM     68  H   UNL     1      -9.718   9.764  16.486  0.00  0.00    +0.027 HD
ATOM     69  H   UNL     1      -8.167   8.978  16.214  0.00  0.00    +0.027 HD
ATOM     70  H   UNL     1      -9.671   8.020  16.249  0.00  0.00    +0.027 HD
ENDBRANCH  18  67
BRANCH   7  71
ATOM     71  C   UNL     1      -4.597  16.602  18.913  0.00  0.00    -0.057 C 
ATOM     72  H   UNL     1      -5.214  17.030  18.117  0.00  0.00    +0.023 HD
ATOM     73  H   UNL     1      -3.578  16.490  18.524  0.00  0.00    +0.023 HD
ATOM     74  H   UNL     1      -4.573  17.351  19.708  0.00  0.00    +0.023 HD
ENDBRANCH   7  71
BRANCH  31  75
ATOM     75  O   UNL     1      -7.939  13.223  24.931  0.00  0.00    -0.391 OA
ATOM     76  H   UNL     1      -7.884  14.161  25.185  0.00  0.00    +0.210 HD
ENDBRANCH  31  75
BRANCH  25  77
ATOM     77  C   UNL     1     -12.247   6.102  24.447  0.00  0.00    +0.020 C 
ATOM     78  H   UNL     1     -13.303   6.240  24.696  0.00  0.00    +0.036 HD
BRANCH  77  79
ATOM     79  C   UNL     1     -12.266   5.213  23.198  0.00  0.00    -0.057 C 
ATOM     80  H   UNL     1     -11.630   5.628  22.408  0.00  0.00    +0.023 HD
ATOM     81  H   UNL     1     -13.280   5.150  22.785  0.00  0.00    +0.023 HD
ATOM     82  H   UNL     1     -11.913   4.198  23.394  0.00  0.00    +0.023 HD
ENDBRANCH  77  79
BRANCH  77  83
ATOM     83  C   UNL     1     -11.622   5.403  25.705  0.00  0.00    +0.067 C 
ATOM     84  H   UNL     1     -12.295   4.611  26.058  0.00  0.00    +0.060 HD
BRANCH  83  85
ATOM     85  C   UNL     1     -11.227   6.292  26.925  0.00  0.00    -0.017 C 
ATOM     86  H   UNL     1     -11.729   7.263  26.821  0.00  0.00    +0.032 HD
BRANCH  85  87
ATOM     87  C   UNL     1     -11.639   5.700  28.274  0.00  0.00    -0.060 C 
ATOM     88  H   UNL     1     -11.961   4.662  28.168  0.00  0.00    +0.023 HD
ATOM     89  H   UNL     1     -10.820   5.741  28.998  0.00  0.00    +0.023 HD
ATOM     90  H   UNL     1     -12.490   6.243  28.700  0.00  0.00    +0.023 HD
ENDBRANCH  85  87
BRANCH  85  91
ATOM     91  C   UNL     1      -9.712   6.643  26.957  0.00  0.00    -0.041 C 
ATOM     92  H   UNL     1      -9.245   6.219  26.060  0.00  0.00    +0.027 HD
ATOM     93  H   UNL     1      -9.229   6.127  27.798  0.00  0.00    +0.027 HD
BRANCH  91  94
ATOM     94  C   UNL     1      -9.391   8.137  27.043  0.00  0.00    +0.007 C 
ATOM     95  H   UNL     1      -8.527   8.374  26.413  0.00  0.00    +0.034 HD
ATOM     96  H   UNL     1     -10.239   8.740  26.699  0.00  0.00    +0.034 HD
BRANCH  94  97
ATOM     97  C   UNL     1      -9.058   8.568  28.464  0.00  0.00    +0.139 C 
ATOM     98  O   UNL     1      -8.980   7.761  29.392  0.00  0.00    -0.297 OA
BRANCH  97  99
ATOM     99  C   UNL     1      -8.780  10.059  28.666  0.00  0.00    +0.041 C 
ATOM    100  H   UNL     1      -7.773  10.251  28.271  0.00  0.00    +0.040 HD
BRANCH  99 101
ATOM    101  C   UNL     1      -8.783  10.310  30.171  0.00  0.00    -0.053 C 
ATOM    102  H   UNL     1      -8.316   9.481  30.710  0.00  0.00    +0.024 HD
ATOM    103  H   UNL     1      -9.803  10.406  30.559  0.00  0.00    +0.024 HD
ATOM    104  H   UNL     1      -8.258  11.239  30.421  0.00  0.00    +0.024 HD
ENDBRANCH  99 101
BRANCH  99 105
ATOM    105  C   UNL     1      -9.794  10.889  27.852  0.00  0.00    +0.071 C 
ATOM    106  H   UNL     1     -10.064  10.354  26.932  0.00  0.00    +0.061 HD
BRANCH 105 107
ATOM    107  C   UNL     1     -11.078  11.264  28.632  0.00  0.00    -0.006 C 
ATOM    108  H   UNL     1     -10.839  11.389  29.696  0.00  0.00    +0.033 HD
ATOM    109  H   UNL     1     -11.430  12.250  28.304  0.00  0.00    +0.033 HD
BRANCH 107 110
ATOM    110  C   UNL     1     -12.219  10.301  28.425  0.00  0.00    -0.067 C 
ATOM    111  C   UNL     1     -13.344  10.328  29.152  0.00  0.00    -0.005 C 
ATOM    112  H   UNL     1     -12.078   9.572  27.633  0.00  0.00    +0.059 HD
ATOM    113  H   UNL     1     -13.455  11.080  29.937  0.00  0.00    +0.078 HD
BRANCH 111 114
ATOM    114  N   UNL     1     -14.420   9.465  29.021  0.00  0.00    -0.284 N 
ATOM    115  C   UNL     1     -15.610   9.927  28.462  0.00  0.00    +0.206 C 
ATOM    116  O   UNL     1     -15.841  11.064  28.065  0.00  0.00    -0.279 OA
ATOM    117  H   UNL     1     -16.386   9.144  28.405  0.00  0.00    +0.126 HD
BRANCH 114 118
ATOM    118  C   UNL     1     -14.339   8.080  29.458  0.00  0.00    +0.007 C 
ATOM    119  H   UNL     1     -13.418   7.934  30.032  0.00  0.00    +0.043 HD
ATOM    120  H   UNL     1     -15.211   7.841  30.074  0.00  0.00    +0.043 HD
ATOM    121  H   UNL     1     -14.326   7.395  28.604  0.00  0.00    +0.043 HD
ENDBRANCH 114 118
ENDBRANCH 111 114
ENDBRANCH 107 110
ENDBRANCH 105 107
BRANCH 105 122
ATOM    122  O   UNL     1      -9.118  12.120  27.510  0.00  0.00    -0.379 OA
BRANCH 122 123
ATOM    123  C   UNL     1      -9.871  13.275  27.867  0.00  0.00    +0.037 C 
ATOM    124  H   UNL     1      -9.835  13.449  28.945  0.00  0.00    +0.052 HD
ATOM    125  H   UNL     1     -10.910  13.167  27.537  0.00  0.00    +0.052 HD
ATOM    126  H   UNL     1      -9.432  14.138  27.358  0.00  0.00    +0.052 HD
ENDBRANCH 122 123
ENDBRANCH 105 122
ENDBRANCH  99 105
ENDBRANCH  97  99
ENDBRANCH  94  97
ENDBRANCH  91  94
ENDBRANCH  85  91
ENDBRANCH  83  85
BRANCH  83 127
ATOM    127  O   UNL     1     -10.385   4.789  25.265  0.00  0.00    -0.379 OA
BRANCH 127 128
ATOM    128  C   UNL     1     -10.292   3.403  25.577  0.00  0.00    +0.037 C 
ATOM    129  H   UNL     1      -9.947   2.878  24.683  0.00  0.00    +0.052 HD
ATOM    130  H   UNL     1     -11.264   2.996  25.864  0.00  0.00    +0.052 HD
ATOM    131  H   UNL     1      -9.567   3.238  26.379  0.00  0.00    +0.052 HD
ENDBRANCH 127 128
ENDBRANCH  83 127
ENDBRANCH  77  83
ENDBRANCH  25  77
BRANCH   9 132
ATOM    132  O   UNL     1      -4.814  12.185  19.713  0.00  0.00    -0.384 OA
ATOM    133  H   UNL     1      -5.611  11.863  20.182  0.00  0.00    +0.210 HD
ENDBRANCH   9 132
BRANCH  29 134
ATOM    134  O   UNL     1     -11.695  12.867  23.665  0.00  0.00    -0.376 OA
BRANCH 134 135
ATOM    135  C   UNL     1     -12.626  13.519  24.523  0.00  0.00    +0.037 C 
ATOM    136  H   UNL     1     -12.153  13.837  25.455  0.00  0.00    +0.052 HD
ATOM    137  H   UNL     1     -13.081  14.381  24.027  0.00  0.00    +0.052 HD
ATOM    138  H   UNL     1     -13.418  12.804  24.768  0.00  0.00    +0.052 HD
ENDBRANCH 134 135
ENDBRANCH  29 134
BRANCH   6 139
ATOM    139  O   UNL     1      -3.228  14.345  20.529  0.00  0.00    -0.379 OA
BRANCH 139 140
ATOM    140  C   UNL     1      -2.171  15.156  21.034  0.00  0.00    +0.037 C 
ATOM    141  H   UNL     1      -1.232  14.609  20.900  0.00  0.00    +0.052 HD
ATOM    142  H   UNL     1      -2.096  16.090  20.470  0.00  0.00    +0.052 HD
ATOM    143  H   UNL     1      -2.307  15.357  22.101  0.00  0.00    +0.052 HD
ENDBRANCH 139 140
ENDBRANCH   6 139
BRANCH  16 144
ATOM    144  O   UNL     1      -6.441  10.013  16.960  0.00  0.00    -0.379 OA
BRANCH 144 145
ATOM    145  C   UNL     1      -5.181   9.481  16.568  0.00  0.00    +0.037 C 
ATOM    146  H   UNL     1      -4.742  10.155  15.826  0.00  0.00    +0.052 HD
ATOM    147  H   UNL     1      -4.509   9.428  17.428  0.00  0.00    +0.052 HD
ATOM    148  H   UNL     1      -5.287   8.493  16.113  0.00  0.00    +0.052 HD
ENDBRANCH 144 145
ENDBRANCH  16 144
BRANCH   4 149
ATOM    149  O   UNL     1      -5.601  17.722  23.049  0.00  0.00    -0.376 OA
BRANCH 149 150
ATOM    150  C   UNL     1      -5.683  17.352  24.421  0.00  0.00    +0.037 C 
ATOM    151  H   UNL     1      -4.772  16.806  24.680  0.00  0.00    +0.052 HD
ATOM    152  H   UNL     1      -6.536  16.691  24.594  0.00  0.00    +0.052 HD
ATOM    153  H   UNL     1      -5.751  18.237  25.060  0.00  0.00    +0.052 HD
ENDBRANCH 149 150
ENDBRANCH   4 149
TORSDOF 33
ENDMDL
MODEL 7
REMARK VINA RESULT:      -5.1      2.250      5.205
REMARK  Name = Sphinxolide B_conf2
REMARK  33 active torsions:
REMARK  status: ('A' for Active; 'I' for Inactive)
REMARK    1  A    between atoms: C_1  and  C_2
REMARK    2  A    between atoms: C_5  and  O_67
REMARK    3  A    between atoms: C_7  and  O_65
REMARK    4  A    between atoms: C_8  and  C_64
REMARK    5  A    between atoms: C_10  and  O_63
REMARK    6  A    between atoms: C_17  and  O_61
REMARK    7  A    between atoms: C_19  and  C_60
REMARK    8  A    between atoms: C_26  and  C_37
REMARK    9  A    between atoms: C_27  and  C_36
REMARK   10  A    between atoms: C_30  and  O_34
REMARK   11  A    between atoms: C_32  and  O_33
REMARK   12  A    between atoms: O_34  and  C_35
REMARK   13  A    between atoms: C_37  and  C_38
REMARK   14  A    between atoms: C_37  and  C_39
REMARK   15  A    between atoms: C_39  and  C_40
REMARK   16  A    between atoms: C_39  and  O_58
REMARK   17  A    between atoms: C_40  and  C_41
REMARK   18  A    between atoms: C_40  and  C_42
REMARK   19  A    between atoms: C_42  and  C_43
REMARK   20  A    between atoms: C_43  and  C_44
REMARK   21  A    between atoms: C_44  and  C_46
REMARK   22  A    between atoms: C_46  and  C_47
REMARK   23  A    between atoms: C_46  and  C_48
REMARK   24  A    between atoms: C_48  and  C_49
REMARK   25  A    between atoms: C_48  and  O_56
REMARK   26  A    between atoms: C_49  and  C_50
REMARK   27  A    between atoms: C_51  and  N_52
REMARK   28  A    between atoms: N_52  and  C_53
REMARK   29  A    between atoms: O_56  and  C_57
REMARK   30  A    between atoms: O_58  and  C_59
REMARK   31  A    between atoms: O_61  and  C_62
REMARK   32  A    between atoms: O_65  and  C_66
REMARK   33  A    between atoms: O_67  and  C_68
REMARK                            x       y       z     vdW  Elec       q    Type
REMARK                         _______ _______ _______ _____ _____    ______ ____
ROOT
ATOM      1  C   UNL     1      -7.272  17.695  23.073  0.00  0.00    +0.000 C 
ATOM      2  C   UNL     1      -6.623  17.828  21.701  0.00  0.00    -0.080 C 
ATOM      3  C   UNL     1      -5.320  17.619  21.438  0.00  0.00    -0.059 C 
ATOM      4  C   UNL     1      -4.668  17.876  20.107  0.00  0.00    +0.079 C 
ATOM      5  C   UNL     1      -3.902  16.644  19.602  0.00  0.00    +0.004 C 
ATOM      6  C   UNL     1      -4.756  15.413  19.231  0.00  0.00    +0.067 C 
ATOM      7  C   UNL     1      -5.856  15.678  18.164  0.00  0.00    +0.022 C 
ATOM      8  C   UNL     1      -6.514  14.385  17.572  0.00  0.00    +0.138 C 
ATOM      9  C   UNL     1      -7.088  13.303  18.521  0.00  0.00    +0.114 C 
ATOM     10  C   UNL     1      -8.423  13.719  19.071  0.00  0.00    -0.029 C 
ATOM     11  C   UNL     1      -9.159  14.622  18.401  0.00  0.00    +0.024 C 
ATOM     12  C   UNL     1      -8.753  15.173  17.095  0.00  0.00    +0.332 C 
ATOM     13  O   UNL     1      -9.502  15.909  16.467  0.00  0.00    -0.246 OA
ATOM     14  O   UNL     1      -7.544  14.784  16.626  0.00  0.00    -0.455 OA
ATOM     15  C   UNL     1      -8.985  13.008  20.288  0.00  0.00    -0.002 C 
ATOM     16  C   UNL     1      -9.033  11.464  20.165  0.00  0.00    +0.066 C 
ATOM     17  C   UNL     1      -9.885  10.807  21.290  0.00  0.00    -0.005 C 
ATOM     18  C   UNL     1     -11.320  11.303  21.437  0.00  0.00    -0.070 C 
ATOM     19  C   UNL     1     -11.903  11.747  22.567  0.00  0.00    -0.062 C 
ATOM     20  C   UNL     1     -11.394  11.826  23.917  0.00  0.00    -0.055 C 
ATOM     21  C   UNL     1     -10.213  12.324  24.306  0.00  0.00    +0.023 C 
ATOM     22  C   UNL     1      -9.811  12.435  25.724  0.00  0.00    +0.332 C 
ATOM     23  O   UNL     1      -8.644  12.559  26.065  0.00  0.00    -0.246 OA
ATOM     24  O   UNL     1     -10.895  12.450  26.538  0.00  0.00    -0.457 OA
ATOM     25  C   UNL     1     -10.714  12.986  27.865  0.00  0.00    +0.114 C 
ATOM     26  C   UNL     1     -11.301  14.443  27.840  0.00  0.00    +0.012 C 
ATOM     27  C   UNL     1     -10.646  15.366  26.826  0.00  0.00    -0.079 C 
ATOM     28  C   UNL     1      -9.329  15.626  26.727  0.00  0.00    -0.059 C 
ATOM     29  C   UNL     1      -8.659  16.556  25.732  0.00  0.00    +0.079 C 
ATOM     30  C   UNL     1      -8.088  15.716  24.577  0.00  0.00    +0.004 C 
ATOM     31  C   UNL     1      -6.937  16.352  23.776  0.00  0.00    +0.064 C 
ATOM     32  H   UNL     1      -8.354  17.715  22.884  0.00  0.00    +0.037 HD
ATOM     33  H   UNL     1      -7.277  18.190  20.909  0.00  0.00    +0.057 HD
ATOM     34  H   UNL     1      -4.655  17.312  22.245  0.00  0.00    +0.059 HD
ATOM     35  H   UNL     1      -5.400  18.201  19.361  0.00  0.00    +0.064 HD
ATOM     36  H   UNL     1      -3.265  16.924  18.752  0.00  0.00    +0.032 HD
ATOM     37  H   UNL     1      -3.173  16.363  20.374  0.00  0.00    +0.032 HD
ATOM     38  H   UNL     1      -5.244  15.059  20.146  0.00  0.00    +0.060 HD
ATOM     39  H   UNL     1      -6.640  16.292  18.621  0.00  0.00    +0.036 HD
ATOM     40  H   UNL     1      -5.748  13.881  16.964  0.00  0.00    +0.077 HD
ATOM     41  H   UNL     1      -7.255  12.393  17.929  0.00  0.00    +0.068 HD
ATOM     42  H   UNL     1     -10.146  14.924  18.731  0.00  0.00    +0.069 HD
ATOM     43  H   UNL     1      -9.996  13.393  20.469  0.00  0.00    +0.034 HD
ATOM     44  H   UNL     1      -8.397  13.285  21.174  0.00  0.00    +0.034 HD
ATOM     45  H   UNL     1      -8.008  11.086  20.257  0.00  0.00    +0.060 HD
ATOM     46  H   UNL     1      -9.332  10.916  22.228  0.00  0.00    +0.034 HD
ATOM     47  H   UNL     1      -9.943   9.726  21.113  0.00  0.00    +0.034 HD
ATOM     48  H   UNL     1     -12.956  12.032  22.519  0.00  0.00    +0.062 HD
ATOM     49  H   UNL     1     -12.115  11.500  24.667  0.00  0.00    +0.062 HD
ATOM     50  H   UNL     1      -9.473  12.685  23.604  0.00  0.00    +0.069 HD
ATOM     51  H   UNL     1      -9.653  13.045  28.132  0.00  0.00    +0.074 HD
ATOM     52  H   UNL     1     -12.346  14.370  27.515  0.00  0.00    +0.038 HD
ATOM     53  H   UNL     1     -11.329  15.853  26.132  0.00  0.00    +0.057 HD
ATOM     54  H   UNL     1      -8.638  15.129  27.404  0.00  0.00    +0.059 HD
ATOM     55  H   UNL     1      -7.854  17.092  26.248  0.00  0.00    +0.064 HD
ATOM     56  H   UNL     1      -8.895  15.462  23.877  0.00  0.00    +0.032 HD
ATOM     57  H   UNL     1      -7.698  14.773  24.981  0.00  0.00    +0.032 HD
ATOM     58  H   UNL     1      -6.669  15.614  23.005  0.00  0.00    +0.060 HD
ENDROOT
BRANCH   1  59
ATOM     59  C   UNL     1      -6.890  18.937  23.887  0.00  0.00    -0.057 C 
ATOM     60  H   UNL     1      -7.671  19.210  24.607  0.00  0.00    +0.024 HD
ATOM     61  H   UNL     1      -5.969  18.759  24.455  0.00  0.00    +0.024 HD
ATOM     62  H   UNL     1      -6.721  19.808  23.254  0.00  0.00    +0.024 HD
ENDBRANCH   1  59
BRANCH  26  63
ATOM     63  C   UNL     1     -11.288  15.134  29.209  0.00  0.00    -0.056 C 
ATOM     64  H   UNL     1     -12.259  15.591  29.433  0.00  0.00    +0.024 HD
ATOM     65  H   UNL     1     -10.528  15.921  29.251  0.00  0.00    +0.024 HD
ATOM     66  H   UNL     1     -11.086  14.420  30.013  0.00  0.00    +0.024 HD
ENDBRANCH  26  63
BRANCH  18  67
ATOM     67  C   UNL     1     -12.166  11.208  20.185  0.00  0.00    -0.043 C 
ATOM     68  H   UNL     1     -12.984  11.937  20.182  0.00  0.00    +0.027 HD
ATOM     69  H   UNL     1     -11.567  11.397  19.291  0.00  0.00    +0.027 HD
ATOM     70  H   UNL     1     -12.624  10.216  20.109  0.00  0.00    +0.027 HD
ENDBRANCH  18  67
BRANCH   7  71
ATOM     71  C   UNL     1      -5.299  16.494  16.971  0.00  0.00    -0.057 C 
ATOM     72  H   UNL     1      -6.071  17.122  16.515  0.00  0.00    +0.023 HD
ATOM     73  H   UNL     1      -4.903  15.832  16.193  0.00  0.00    +0.023 HD
ATOM     74  H   UNL     1      -4.500  17.175  17.273  0.00  0.00    +0.023 HD
ENDBRANCH   7  71
BRANCH  31  75
ATOM     75  O   UNL     1      -5.791  16.480  24.623  0.00  0.00    -0.391 OA
ATOM     76  H   UNL     1      -5.806  17.378  24.998  0.00  0.00    +0.210 HD
ENDBRANCH  31  75
BRANCH  25  77
ATOM     77  C   UNL     1     -11.414  12.053  28.900  0.00  0.00    +0.020 C 
ATOM     78  H   UNL     1     -12.156  12.675  29.407  0.00  0.00    +0.036 HD
BRANCH  77  79
ATOM     79  C   UNL     1     -12.237  10.930  28.257  0.00  0.00    -0.057 C 
ATOM     80  H   UNL     1     -11.588  10.194  27.769  0.00  0.00    +0.023 HD
ATOM     81  H   UNL     1     -12.897  11.333  27.481  0.00  0.00    +0.023 HD
ATOM     82  H   UNL     1     -12.851  10.387  28.980  0.00  0.00    +0.023 HD
ENDBRANCH  77  79
BRANCH  77  83
ATOM     83  C   UNL     1     -10.457  11.556  30.039  0.00  0.00    +0.067 C 
ATOM     84  H   UNL     1     -10.357  12.338  30.803  0.00  0.00    +0.060 HD
BRANCH  83  85
ATOM     85  C   UNL     1      -9.028  11.068  29.646  0.00  0.00    -0.017 C 
ATOM     86  H   UNL     1      -8.720  11.600  28.736  0.00  0.00    +0.032 HD
BRANCH  85  87
ATOM     87  C   UNL     1      -7.971  11.336  30.719  0.00  0.00    -0.060 C 
ATOM     88  H   UNL     1      -6.970  11.096  30.356  0.00  0.00    +0.023 HD
ATOM     89  H   UNL     1      -7.985  12.381  31.044  0.00  0.00    +0.023 HD
ATOM     90  H   UNL     1      -8.137  10.709  31.601  0.00  0.00    +0.023 HD
ENDBRANCH  85  87
BRANCH  85  91
ATOM     91  C   UNL     1      -8.986   9.566  29.245  0.00  0.00    -0.041 C 
ATOM     92  H   UNL     1      -9.850   9.068  29.701  0.00  0.00    +0.027 HD
ATOM     93  H   UNL     1      -8.110   9.084  29.700  0.00  0.00    +0.027 HD
BRANCH  91  94
ATOM     94  C   UNL     1      -8.974   9.293  27.739  0.00  0.00    +0.007 C 
ATOM     95  H   UNL     1      -9.969   9.473  27.315  0.00  0.00    +0.034 HD
ATOM     96  H   UNL     1      -8.262   9.950  27.227  0.00  0.00    +0.034 HD
BRANCH  94  97
ATOM     97  C   UNL     1      -8.593   7.854  27.423  0.00  0.00    +0.139 C 
ATOM     98  O   UNL     1      -7.829   7.566  26.500  0.00  0.00    -0.297 OA
BRANCH  97  99
ATOM     99  C   UNL     1      -9.177   6.786  28.350  0.00  0.00    +0.041 C 
ATOM    100  H   UNL     1      -9.442   7.290  29.289  0.00  0.00    +0.040 HD
BRANCH  99 101
ATOM    101  C   UNL     1      -8.064   5.778  28.622  0.00  0.00    -0.053 C 
ATOM    102  H   UNL     1      -8.016   5.022  27.833  0.00  0.00    +0.024 HD
ATOM    103  H   UNL     1      -8.229   5.243  29.564  0.00  0.00    +0.024 HD
ATOM    104  H   UNL     1      -7.089   6.273  28.703  0.00  0.00    +0.024 HD
ENDBRANCH  99 101
BRANCH  99 105
ATOM    105  C   UNL     1     -10.461   6.205  27.724  0.00  0.00    +0.071 C 
ATOM    106  H   UNL     1     -11.020   6.997  27.210  0.00  0.00    +0.061 HD
BRANCH 105 107
ATOM    107  C   UNL     1     -10.216   5.026  26.752  0.00  0.00    -0.006 C 
ATOM    108  H   UNL     1      -9.246   4.561  26.974  0.00  0.00    +0.033 HD
ATOM    109  H   UNL     1     -10.956   4.238  26.937  0.00  0.00    +0.033 HD
BRANCH 107 110
ATOM    110  C   UNL     1     -10.334   5.402  25.297  0.00  0.00    -0.067 C 
ATOM    111  C   UNL     1     -10.878   6.553  24.877  0.00  0.00    -0.005 C 
ATOM    112  H   UNL     1      -9.941   4.676  24.593  0.00  0.00    +0.059 HD
ATOM    113  H   UNL     1     -11.257   7.265  25.614  0.00  0.00    +0.078 HD
BRANCH 111 114
ATOM    114  N   UNL     1     -11.028   6.949  23.558  0.00  0.00    -0.284 N 
ATOM    115  C   UNL     1     -10.056   7.754  22.965  0.00  0.00    +0.206 C 
ATOM    116  O   UNL     1      -9.040   8.188  23.496  0.00  0.00    -0.279 OA
ATOM    117  H   UNL     1     -10.287   7.993  21.913  0.00  0.00    +0.126 HD
BRANCH 114 118
ATOM    118  C   UNL     1     -12.184   6.548  22.772  0.00  0.00    +0.007 C 
ATOM    119  H   UNL     1     -11.931   5.661  22.182  0.00  0.00    +0.043 HD
ATOM    120  H   UNL     1     -13.022   6.332  23.442  0.00  0.00    +0.043 HD
ATOM    121  H   UNL     1     -12.492   7.344  22.086  0.00  0.00    +0.043 HD
ENDBRANCH 114 118
ENDBRANCH 111 114
ENDBRANCH 107 110
ENDBRANCH 105 107
BRANCH 105 122
ATOM    122  O   UNL     1     -11.249   5.701  28.827  0.00  0.00    -0.379 OA
BRANCH 122 123
ATOM    123  C   UNL     1     -11.529   4.310  28.709  0.00  0.00    +0.037 C 
ATOM    124  H   UNL     1     -10.666   3.710  29.007  0.00  0.00    +0.052 HD
ATOM    125  H   UNL     1     -11.821   4.067  27.682  0.00  0.00    +0.052 HD
ATOM    126  H   UNL     1     -12.365   4.073  29.374  0.00  0.00    +0.052 HD
ENDBRANCH 122 123
ENDBRANCH 105 122
ENDBRANCH  99 105
ENDBRANCH  97  99
ENDBRANCH  94  97
ENDBRANCH  91  94
ENDBRANCH  85  91
ENDBRANCH  83  85
BRANCH  83 127
ATOM    127  O   UNL     1     -11.097  10.405  30.645  0.00  0.00    -0.379 OA
BRANCH 127 128
ATOM    128  C   UNL     1     -11.457  10.602  32.008  0.00  0.00    +0.037 C 
ATOM    129  H   UNL     1     -11.539  11.678  32.184  0.00  0.00    +0.052 HD
ATOM    130  H   UNL     1     -10.696  10.199  32.681  0.00  0.00    +0.052 HD
ATOM    131  H   UNL     1     -12.425  10.140  32.221  0.00  0.00    +0.052 HD
ENDBRANCH 127 128
ENDBRANCH  83 127
ENDBRANCH  77  83
ENDBRANCH  25  77
BRANCH   9 132
ATOM    132  O   UNL     1      -6.218  12.952  19.581  0.00  0.00    -0.384 OA
ATOM    133  H   UNL     1      -6.706  13.138  20.408  0.00  0.00    +0.210 HD
ENDBRANCH   9 132
BRANCH  29 134
ATOM    134  O   UNL     1      -9.600  17.491  25.184  0.00  0.00    -0.376 OA
BRANCH 134 135
ATOM    135  C   UNL     1      -9.751  18.665  25.975  0.00  0.00    +0.037 C 
ATOM    136  H   UNL     1     -10.719  19.141  25.800  0.00  0.00    +0.052 HD
ATOM    137  H   UNL     1      -9.637  18.441  27.039  0.00  0.00    +0.052 HD
ATOM    138  H   UNL     1      -8.966  19.371  25.684  0.00  0.00    +0.052 HD
ENDBRANCH 134 135
ENDBRANCH  29 134
BRANCH   6 139
ATOM    139  O   UNL     1      -3.938  14.337  18.724  0.00  0.00    -0.379 OA
BRANCH 139 140
ATOM    140  C   UNL     1      -2.550  14.638  18.616  0.00  0.00    +0.037 C 
ATOM    141  H   UNL     1      -2.199  14.272  17.646  0.00  0.00    +0.052 HD
ATOM    142  H   UNL     1      -2.385  15.719  18.645  0.00  0.00    +0.052 HD
ATOM    143  H   UNL     1      -1.978  14.139  19.405  0.00  0.00    +0.052 HD
ENDBRANCH 139 140
ENDBRANCH   6 139
BRANCH  16 144
ATOM    144  O   UNL     1      -9.536  11.101  18.868  0.00  0.00    -0.379 OA
BRANCH 144 145
ATOM    145  C   UNL     1      -8.883   9.969  18.307  0.00  0.00    +0.037 C 
ATOM    146  H   UNL     1      -8.000  10.319  17.763  0.00  0.00    +0.052 HD
ATOM    147  H   UNL     1      -8.554   9.291  19.098  0.00  0.00    +0.052 HD
ATOM    148  H   UNL     1      -9.530   9.439  17.604  0.00  0.00    +0.052 HD
ENDBRANCH 144 145
ENDBRANCH  16 144
BRANCH   4 149
ATOM    149  O   UNL     1      -3.685  18.910  20.276  0.00  0.00    -0.376 OA
BRANCH 149 150
ATOM    150  C   UNL     1      -3.318  19.544  19.055  0.00  0.00    +0.037 C 
ATOM    151  H   UNL     1      -3.568  18.867  18.233  0.00  0.00    +0.052 HD
ATOM    152  H   UNL     1      -2.243  19.735  19.024  0.00  0.00    +0.052 HD
ATOM    153  H   UNL     1      -3.874  20.476  18.917  0.00  0.00    +0.052 HD
ENDBRANCH 149 150
ENDBRANCH   4 149
TORSDOF 33
ENDMDL
MODEL 8
REMARK VINA RESULT:      -5.1     10.612     17.313
REMARK  Name = Sphinxolide B_conf2
REMARK  33 active torsions:
REMARK  status: ('A' for Active; 'I' for Inactive)
REMARK    1  A    between atoms: C_1  and  C_2
REMARK    2  A    between atoms: C_5  and  O_67
REMARK    3  A    between atoms: C_7  and  O_65
REMARK    4  A    between atoms: C_8  and  C_64
REMARK    5  A    between atoms: C_10  and  O_63
REMARK    6  A    between atoms: C_17  and  O_61
REMARK    7  A    between atoms: C_19  and  C_60
REMARK    8  A    between atoms: C_26  and  C_37
REMARK    9  A    between atoms: C_27  and  C_36
REMARK   10  A    between atoms: C_30  and  O_34
REMARK   11  A    between atoms: C_32  and  O_33
REMARK   12  A    between atoms: O_34  and  C_35
REMARK   13  A    between atoms: C_37  and  C_38
REMARK   14  A    between atoms: C_37  and  C_39
REMARK   15  A    between atoms: C_39  and  C_40
REMARK   16  A    between atoms: C_39  and  O_58
REMARK   17  A    between atoms: C_40  and  C_41
REMARK   18  A    between atoms: C_40  and  C_42
REMARK   19  A    between atoms: C_42  and  C_43
REMARK   20  A    between atoms: C_43  and  C_44
REMARK   21  A    between atoms: C_44  and  C_46
REMARK   22  A    between atoms: C_46  and  C_47
REMARK   23  A    between atoms: C_46  and  C_48
REMARK   24  A    between atoms: C_48  and  C_49
REMARK   25  A    between atoms: C_48  and  O_56
REMARK   26  A    between atoms: C_49  and  C_50
REMARK   27  A    between atoms: C_51  and  N_52
REMARK   28  A    between atoms: N_52  and  C_53
REMARK   29  A    between atoms: O_56  and  C_57
REMARK   30  A    between atoms: O_58  and  C_59
REMARK   31  A    between atoms: O_61  and  C_62
REMARK   32  A    between atoms: O_65  and  C_66
REMARK   33  A    between atoms: O_67  and  C_68
REMARK                            x       y       z     vdW  Elec       q    Type
REMARK                         _______ _______ _______ _____ _____    ______ ____
ROOT
ATOM      1  C   UNL     1       4.971  21.796  26.312  0.00  0.00    +0.000 C 
ATOM      2  C   UNL     1       5.733  22.224  27.561  0.00  0.00    -0.080 C 
ATOM      3  C   UNL     1       5.374  21.929  28.824  0.00  0.00    -0.059 C 
ATOM      4  C   UNL     1       6.062  22.462  30.051  0.00  0.00    +0.079 C 
ATOM      5  C   UNL     1       6.480  21.333  31.004  0.00  0.00    +0.004 C 
ATOM      6  C   UNL     1       7.579  20.377  30.494  0.00  0.00    +0.067 C 
ATOM      7  C   UNL     1       8.907  21.073  30.076  0.00  0.00    +0.022 C 
ATOM      8  C   UNL     1      10.110  20.096  29.847  0.00  0.00    +0.138 C 
ATOM      9  C   UNL     1       9.950  18.876  28.905  0.00  0.00    +0.114 C 
ATOM     10  C   UNL     1      10.025  19.291  27.464  0.00  0.00    -0.029 C 
ATOM     11  C   UNL     1      10.653  20.434  27.140  0.00  0.00    +0.024 C 
ATOM     12  C   UNL     1      11.351  21.271  28.132  0.00  0.00    +0.332 C 
ATOM     13  O   UNL     1      12.003  22.246  27.781  0.00  0.00    -0.246 OA
ATOM     14  O   UNL     1      11.263  20.876  29.424  0.00  0.00    -0.455 OA
ATOM     15  C   UNL     1       9.526  18.346  26.386  0.00  0.00    -0.002 C 
ATOM     16  C   UNL     1      10.126  16.919  26.454  0.00  0.00    +0.066 C 
ATOM     17  C   UNL     1       9.827  16.089  25.172  0.00  0.00    -0.005 C 
ATOM     18  C   UNL     1      10.255  16.706  23.845  0.00  0.00    -0.070 C 
ATOM     19  C   UNL     1       9.481  16.887  22.757  0.00  0.00    -0.062 C 
ATOM     20  C   UNL     1       8.107  16.517  22.512  0.00  0.00    -0.055 C 
ATOM     21  C   UNL     1       7.058  16.727  23.318  0.00  0.00    +0.023 C 
ATOM     22  C   UNL     1       5.670  16.382  22.946  0.00  0.00    +0.332 C 
ATOM     23  O   UNL     1       4.783  16.252  23.776  0.00  0.00    -0.246 OA
ATOM     24  O   UNL     1       5.531  16.309  21.600  0.00  0.00    -0.457 OA
ATOM     25  C   UNL     1       4.194  16.422  21.068  0.00  0.00    +0.114 C 
ATOM     26  C   UNL     1       4.052  17.891  20.530  0.00  0.00    +0.012 C 
ATOM     27  C   UNL     1       4.275  18.968  21.579  0.00  0.00    -0.079 C 
ATOM     28  C   UNL     1       3.632  19.071  22.756  0.00  0.00    -0.059 C 
ATOM     29  C   UNL     1       3.830  20.148  23.808  0.00  0.00    +0.079 C 
ATOM     30  C   UNL     1       4.753  19.599  24.910  0.00  0.00    +0.004 C 
ATOM     31  C   UNL     1       4.647  20.279  26.288  0.00  0.00    +0.064 C 
ATOM     32  H   UNL     1       5.648  22.010  25.474  0.00  0.00    +0.037 HD
ATOM     33  H   UNL     1       6.587  22.876  27.386  0.00  0.00    +0.057 HD
ATOM     34  H   UNL     1       4.486  21.323  29.000  0.00  0.00    +0.059 HD
ATOM     35  H   UNL     1       6.930  23.076  29.786  0.00  0.00    +0.064 HD
ATOM     36  H   UNL     1       6.776  21.755  31.975  0.00  0.00    +0.032 HD
ATOM     37  H   UNL     1       5.580  20.753  31.252  0.00  0.00    +0.032 HD
ATOM     38  H   UNL     1       7.181  19.848  29.621  0.00  0.00    +0.060 HD
ATOM     39  H   UNL     1       8.727  21.631  29.149  0.00  0.00    +0.036 HD
ATOM     40  H   UNL     1      10.387  19.688  30.830  0.00  0.00    +0.077 HD
ATOM     41  H   UNL     1      10.794  18.198  29.089  0.00  0.00    +0.068 HD
ATOM     42  H   UNL     1      10.774  20.757  26.112  0.00  0.00    +0.069 HD
ATOM     43  H   UNL     1       9.753  18.793  25.411  0.00  0.00    +0.034 HD
ATOM     44  H   UNL     1       8.430  18.284  26.437  0.00  0.00    +0.034 HD
ATOM     45  H   UNL     1       9.666  16.399  27.304  0.00  0.00    +0.060 HD
ATOM     46  H   UNL     1       8.757  15.858  25.172  0.00  0.00    +0.034 HD
ATOM     47  H   UNL     1      10.333  15.119  25.245  0.00  0.00    +0.034 HD
ATOM     48  H   UNL     1       9.947  17.309  21.864  0.00  0.00    +0.062 HD
ATOM     49  H   UNL     1       7.947  16.090  21.522  0.00  0.00    +0.062 HD
ATOM     50  H   UNL     1       7.158  17.171  24.300  0.00  0.00    +0.069 HD
ATOM     51  H   UNL     1       3.439  16.265  21.847  0.00  0.00    +0.074 HD
ATOM     52  H   UNL     1       4.850  18.050  19.795  0.00  0.00    +0.038 HD
ATOM     53  H   UNL     1       5.025  19.716  21.325  0.00  0.00    +0.057 HD
ATOM     54  H   UNL     1       2.895  18.319  23.026  0.00  0.00    +0.059 HD
ATOM     55  H   UNL     1       2.850  20.408  24.225  0.00  0.00    +0.064 HD
ATOM     56  H   UNL     1       5.797  19.659  24.576  0.00  0.00    +0.032 HD
ATOM     57  H   UNL     1       4.523  18.538  25.072  0.00  0.00    +0.032 HD
ATOM     58  H   UNL     1       5.372  19.758  26.931  0.00  0.00    +0.060 HD
ENDROOT
BRANCH   1  59
ATOM     59  C   UNL     1       3.737  22.699  26.192  0.00  0.00    -0.057 C 
ATOM     60  H   UNL     1       2.809  22.119  26.149  0.00  0.00    +0.024 HD
ATOM     61  H   UNL     1       3.663  23.369  27.058  0.00  0.00    +0.024 HD
ATOM     62  H   UNL     1       3.767  23.321  25.298  0.00  0.00    +0.024 HD
ENDBRANCH   1  59
BRANCH  26  63
ATOM     63  C   UNL     1       2.716  18.162  19.828  0.00  0.00    -0.056 C 
ATOM     64  H   UNL     1       2.611  19.221  19.568  0.00  0.00    +0.024 HD
ATOM     65  H   UNL     1       1.869  17.887  20.465  0.00  0.00    +0.024 HD
ATOM     66  H   UNL     1       2.637  17.600  18.892  0.00  0.00    +0.024 HD
ENDBRANCH  26  63
BRANCH  18  67
ATOM     67  C   UNL     1      11.720  17.079  23.750  0.00  0.00    -0.043 C 
ATOM     68  H   UNL     1      12.012  17.805  24.515  0.00  0.00    +0.027 HD
ATOM     69  H   UNL     1      12.357  16.201  23.881  0.00  0.00    +0.027 HD
ATOM     70  H   UNL     1      11.934  17.537  22.778  0.00  0.00    +0.027 HD
ENDBRANCH  18  67
BRANCH   7  71
ATOM     71  C   UNL     1       9.357  22.112  31.133  0.00  0.00    -0.057 C 
ATOM     72  H   UNL     1      10.219  22.690  30.790  0.00  0.00    +0.023 HD
ATOM     73  H   UNL     1       9.634  21.620  32.073  0.00  0.00    +0.023 HD
ATOM     74  H   UNL     1       8.574  22.842  31.353  0.00  0.00    +0.023 HD
ENDBRANCH   7  71
BRANCH  31  75
ATOM     75  O   UNL     1       3.356  20.012  26.844  0.00  0.00    -0.391 OA
ATOM     76  H   UNL     1       3.364  20.334  27.763  0.00  0.00    +0.210 HD
ENDBRANCH  31  75
BRANCH  25  77
ATOM     77  C   UNL     1       3.980  15.335  19.972  0.00  0.00    +0.020 C 
ATOM     78  H   UNL     1       3.779  15.883  19.046  0.00  0.00    +0.036 HD
BRANCH  77  79
ATOM     79  C   UNL     1       5.238  14.517  19.662  0.00  0.00    -0.057 C 
ATOM     80  H   UNL     1       5.594  13.987  20.553  0.00  0.00    +0.023 HD
ATOM     81  H   UNL     1       6.054  15.173  19.338  0.00  0.00    +0.023 HD
ATOM     82  H   UNL     1       5.076  13.766  18.885  0.00  0.00    +0.023 HD
ENDBRANCH  77  79
BRANCH  77  83
ATOM     83  C   UNL     1       2.701  14.456  20.205  0.00  0.00    +0.067 C 
ATOM     84  H   UNL     1       2.951  13.397  20.062  0.00  0.00    +0.060 HD
BRANCH  83  85
ATOM     85  C   UNL     1       1.421  14.776  19.371  0.00  0.00    -0.017 C 
ATOM     86  H   UNL     1       1.623  15.663  18.756  0.00  0.00    +0.032 HD
BRANCH  85  87
ATOM     87  C   UNL     1       1.005  13.645  18.430  0.00  0.00    -0.060 C 
ATOM     88  H   UNL     1       1.512  12.712  18.684  0.00  0.00    +0.023 HD
ATOM     89  H   UNL     1      -0.076  13.475  18.459  0.00  0.00    +0.023 HD
ATOM     90  H   UNL     1       1.280  13.872  17.394  0.00  0.00    +0.023 HD
ENDBRANCH  85  87
BRANCH  85  91
ATOM     91  C   UNL     1       0.207  15.187  20.252  0.00  0.00    -0.041 C 
ATOM     92  H   UNL     1       0.526  16.003  20.912  0.00  0.00    +0.027 HD
ATOM     93  H   UNL     1      -0.056  14.364  20.929  0.00  0.00    +0.027 HD
BRANCH  91  94
ATOM     94  C   UNL     1      -1.044  15.614  19.479  0.00  0.00    +0.007 C 
ATOM     95  H   UNL     1      -1.052  16.701  19.346  0.00  0.00    +0.034 HD
ATOM     96  H   UNL     1      -1.069  15.148  18.488  0.00  0.00    +0.034 HD
BRANCH  94  97
ATOM     97  C   UNL     1      -2.323  15.228  20.209  0.00  0.00    +0.139 C 
ATOM     98  O   UNL     1      -2.322  14.870  21.388  0.00  0.00    -0.297 OA
BRANCH  97  99
ATOM     99  C   UNL     1      -3.618  15.357  19.405  0.00  0.00    +0.041 C 
ATOM    100  H   UNL     1      -3.511  16.244  18.767  0.00  0.00    +0.040 HD
BRANCH  99 101
ATOM    101  C   UNL     1      -4.741  15.599  20.410  0.00  0.00    -0.053 C 
ATOM    102  H   UNL     1      -5.537  14.858  20.297  0.00  0.00    +0.024 HD
ATOM    103  H   UNL     1      -5.201  16.583  20.267  0.00  0.00    +0.024 HD
ATOM    104  H   UNL     1      -4.367  15.568  21.440  0.00  0.00    +0.024 HD
ENDBRANCH  99 101
BRANCH  99 105
ATOM    105  C   UNL     1      -3.791  14.119  18.502  0.00  0.00    +0.071 C 
ATOM    106  H   UNL     1      -2.831  13.856  18.037  0.00  0.00    +0.061 HD
BRANCH 105 107
ATOM    107  C   UNL     1      -4.375  12.882  19.225  0.00  0.00    -0.006 C 
ATOM    108  H   UNL     1      -3.713  12.591  20.051  0.00  0.00    +0.033 HD
ATOM    109  H   UNL     1      -5.324  13.153  19.706  0.00  0.00    +0.033 HD
BRANCH 107 110
ATOM    110  C   UNL     1      -4.667  11.722  18.309  0.00  0.00    -0.067 C 
ATOM    111  C   UNL     1      -5.486  10.713  18.637  0.00  0.00    -0.005 C 
ATOM    112  H   UNL     1      -4.170  11.751  17.344  0.00  0.00    +0.059 HD
ATOM    113  H   UNL     1      -5.975  10.718  19.614  0.00  0.00    +0.078 HD
BRANCH 111 114
ATOM    114  N   UNL     1      -5.782   9.614  17.847  0.00  0.00    -0.284 N 
ATOM    115  C   UNL     1      -6.208   8.429  18.446  0.00  0.00    +0.206 C 
ATOM    116  O   UNL     1      -6.346   8.223  19.646  0.00  0.00    -0.279 OA
ATOM    117  H   UNL     1      -6.419   7.633  17.711  0.00  0.00    +0.126 HD
BRANCH 114 118
ATOM    118  C   UNL     1      -5.655   9.664  16.399  0.00  0.00    +0.007 C 
ATOM    119  H   UNL     1      -4.800   9.054  16.089  0.00  0.00    +0.043 HD
ATOM    120  H   UNL     1      -6.575   9.289  15.940  0.00  0.00    +0.043 HD
ATOM    121  H   UNL     1      -5.493  10.690  16.052  0.00  0.00    +0.043 HD
ENDBRANCH 114 118
ENDBRANCH 111 114
ENDBRANCH 107 110
ENDBRANCH 105 107
BRANCH 105 122
ATOM    122  O   UNL     1      -4.730  14.504  17.473  0.00  0.00    -0.379 OA
BRANCH 122 123
ATOM    123  C   UNL     1      -4.276  15.616  16.706  0.00  0.00    +0.037 C 
ATOM    124  H   UNL     1      -3.283  15.427  16.291  0.00  0.00    +0.052 HD
ATOM    125  H   UNL     1      -4.261  16.520  17.322  0.00  0.00    +0.052 HD
ATOM    126  H   UNL     1      -4.977  15.769  15.880  0.00  0.00    +0.052 HD
ENDBRANCH 122 123
ENDBRANCH 105 122
ENDBRANCH  99 105
ENDBRANCH  97  99
ENDBRANCH  94  97
ENDBRANCH  91  94
ENDBRANCH  85  91
ENDBRANCH  83  85
BRANCH  83 127
ATOM    127  O   UNL     1       2.312  14.651  21.588  0.00  0.00    -0.379 OA
BRANCH 127 128
ATOM    128  C   UNL     1       2.685  13.577  22.444  0.00  0.00    +0.037 C 
ATOM    129  H   UNL     1       1.771  13.130  22.844  0.00  0.00    +0.052 HD
ATOM    130  H   UNL     1       3.292  13.930  23.281  0.00  0.00    +0.052 HD
ATOM    131  H   UNL     1       3.231  12.813  21.884  0.00  0.00    +0.052 HD
ENDBRANCH 127 128
ENDBRANCH  83 127
ENDBRANCH  77  83
ENDBRANCH  25  77
BRANCH   9 132
ATOM    132  O   UNL     1       8.767  18.130  29.132  0.00  0.00    -0.384 OA
ATOM    133  H   UNL     1       8.641  17.571  28.339  0.00  0.00    +0.210 HD
ENDBRANCH   9 132
BRANCH  29 134
ATOM    134  O   UNL     1       4.449  21.313  23.245  0.00  0.00    -0.376 OA
BRANCH 134 135
ATOM    135  C   UNL     1       3.517  22.224  22.673  0.00  0.00    +0.037 C 
ATOM    136  H   UNL     1       3.341  22.003  21.617  0.00  0.00    +0.052 HD
ATOM    137  H   UNL     1       2.568  22.210  23.216  0.00  0.00    +0.052 HD
ATOM    138  H   UNL     1       3.941  23.231  22.745  0.00  0.00    +0.052 HD
ENDBRANCH 134 135
ENDBRANCH  29 134
BRANCH   6 139
ATOM    139  O   UNL     1       7.925  19.390  31.488  0.00  0.00    -0.379 OA
BRANCH 139 140
ATOM    140  C   UNL     1       6.816  18.721  32.080  0.00  0.00    +0.037 C 
ATOM    141  H   UNL     1       5.903  19.102  31.611  0.00  0.00    +0.052 HD
ATOM    142  H   UNL     1       6.866  17.645  31.888  0.00  0.00    +0.052 HD
ATOM    143  H   UNL     1       6.765  18.921  33.155  0.00  0.00    +0.052 HD
ENDBRANCH 139 140
ENDBRANCH   6 139
BRANCH  16 144
ATOM    144  O   UNL     1      11.541  17.004  26.687  0.00  0.00    -0.379 OA
BRANCH 144 145
ATOM    145  C   UNL     1      12.054  15.916  27.447  0.00  0.00    +0.037 C 
ATOM    146  H   UNL     1      12.045  15.023  26.815  0.00  0.00    +0.052 HD
ATOM    147  H   UNL     1      13.086  16.118  27.746  0.00  0.00    +0.052 HD
ATOM    148  H   UNL     1      11.441  15.718  28.329  0.00  0.00    +0.052 HD
ENDBRANCH 144 145
ENDBRANCH  16 144
BRANCH   4 149
ATOM    149  O   UNL     1       5.125  23.270  30.782  0.00  0.00    -0.376 OA
BRANCH 149 150
ATOM    150  C   UNL     1       5.216  23.101  32.193  0.00  0.00    +0.037 C 
ATOM    151  H   UNL     1       4.208  22.927  32.580  0.00  0.00    +0.052 HD
ATOM    152  H   UNL     1       5.611  24.003  32.666  0.00  0.00    +0.052 HD
ATOM    153  H   UNL     1       5.837  22.237  32.443  0.00  0.00    +0.052 HD
ENDBRANCH 149 150
ENDBRANCH   4 149
TORSDOF 33
ENDMDL
MODEL 9
REMARK VINA RESULT:      -5.0      7.445     13.923
REMARK  Name = Sphinxolide B_conf2
REMARK  33 active torsions:
REMARK  status: ('A' for Active; 'I' for Inactive)
REMARK    1  A    between atoms: C_1  and  C_2
REMARK    2  A    between atoms: C_5  and  O_67
REMARK    3  A    between atoms: C_7  and  O_65
REMARK    4  A    between atoms: C_8  and  C_64
REMARK    5  A    between atoms: C_10  and  O_63
REMARK    6  A    between atoms: C_17  and  O_61
REMARK    7  A    between atoms: C_19  and  C_60
REMARK    8  A    between atoms: C_26  and  C_37
REMARK    9  A    between atoms: C_27  and  C_36
REMARK   10  A    between atoms: C_30  and  O_34
REMARK   11  A    between atoms: C_32  and  O_33
REMARK   12  A    between atoms: O_34  and  C_35
REMARK   13  A    between atoms: C_37  and  C_38
REMARK   14  A    between atoms: C_37  and  C_39
REMARK   15  A    between atoms: C_39  and  C_40
REMARK   16  A    between atoms: C_39  and  O_58
REMARK   17  A    between atoms: C_40  and  C_41
REMARK   18  A    between atoms: C_40  and  C_42
REMARK   19  A    between atoms: C_42  and  C_43
REMARK   20  A    between atoms: C_43  and  C_44
REMARK   21  A    between atoms: C_44  and  C_46
REMARK   22  A    between atoms: C_46  and  C_47
REMARK   23  A    between atoms: C_46  and  C_48
REMARK   24  A    between atoms: C_48  and  C_49
REMARK   25  A    between atoms: C_48  and  O_56
REMARK   26  A    between atoms: C_49  and  C_50
REMARK   27  A    between atoms: C_51  and  N_52
REMARK   28  A    between atoms: N_52  and  C_53
REMARK   29  A    between atoms: O_56  and  C_57
REMARK   30  A    between atoms: O_58  and  C_59
REMARK   31  A    between atoms: O_61  and  C_62
REMARK   32  A    between atoms: O_65  and  C_66
REMARK   33  A    between atoms: O_67  and  C_68
REMARK                            x       y       z     vdW  Elec       q    Type
REMARK                         _______ _______ _______ _____ _____    ______ ____
ROOT
ATOM      1  C   UNL     1      -9.739   5.110  10.270  0.00  0.00    +0.000 C 
ATOM      2  C   UNL     1      -9.638   3.792   9.513  0.00  0.00    -0.080 C 
ATOM      3  C   UNL     1      -8.532   3.337   8.896  0.00  0.00    -0.059 C 
ATOM      4  C   UNL     1      -8.480   2.096   8.047  0.00  0.00    +0.079 C 
ATOM      5  C   UNL     1      -7.364   1.143   8.501  0.00  0.00    +0.004 C 
ATOM      6  C   UNL     1      -7.543   0.492   9.889  0.00  0.00    +0.067 C 
ATOM      7  C   UNL     1      -8.865  -0.309  10.069  0.00  0.00    +0.022 C 
ATOM      8  C   UNL     1      -8.912  -1.210  11.350  0.00  0.00    +0.138 C 
ATOM      9  C   UNL     1      -8.586  -0.601  12.738  0.00  0.00    +0.114 C 
ATOM     10  C   UNL     1      -9.746   0.195  13.265  0.00  0.00    -0.029 C 
ATOM     11  C   UNL     1     -10.984  -0.067  12.813  0.00  0.00    +0.024 C 
ATOM     12  C   UNL     1     -11.276  -1.164  11.871  0.00  0.00    +0.332 C 
ATOM     13  O   UNL     1     -12.429  -1.437  11.569  0.00  0.00    -0.246 OA
ATOM     14  O   UNL     1     -10.212  -1.860  11.408  0.00  0.00    -0.455 OA
ATOM     15  C   UNL     1      -9.526   1.172  14.405  0.00  0.00    -0.002 C 
ATOM     16  C   UNL     1      -8.820   0.566  15.645  0.00  0.00    +0.066 C 
ATOM     17  C   UNL     1      -8.889   1.507  16.883  0.00  0.00    -0.005 C 
ATOM     18  C   UNL     1     -10.279   1.959  17.319  0.00  0.00    -0.070 C 
ATOM     19  C   UNL     1     -10.681   3.228  17.525  0.00  0.00    -0.062 C 
ATOM     20  C   UNL     1      -9.943   4.468  17.459  0.00  0.00    -0.055 C 
ATOM     21  C   UNL     1      -9.121   4.867  16.480  0.00  0.00    +0.023 C 
ATOM     22  C   UNL     1      -8.469   6.193  16.462  0.00  0.00    +0.332 C 
ATOM     23  O   UNL     1      -7.482   6.428  15.781  0.00  0.00    -0.246 OA
ATOM     24  O   UNL     1      -9.150   7.081  17.227  0.00  0.00    -0.457 OA
ATOM     25  C   UNL     1      -8.919   8.483  16.973  0.00  0.00    +0.114 C 
ATOM     26  C   UNL     1     -10.142   8.989  16.128  0.00  0.00    +0.012 C 
ATOM     27  C   UNL     1     -10.339   8.260  14.809  0.00  0.00    -0.079 C 
ATOM     28  C   UNL     1      -9.414   8.108  13.843  0.00  0.00    -0.059 C 
ATOM     29  C   UNL     1      -9.597   7.398  12.514  0.00  0.00    +0.079 C 
ATOM     30  C   UNL     1      -9.012   5.979  12.627  0.00  0.00    +0.004 C 
ATOM     31  C   UNL     1      -8.600   5.305  11.305  0.00  0.00    +0.064 C 
ATOM     32  H   UNL     1     -10.688   5.056  10.819  0.00  0.00    +0.037 HD
ATOM     33  H   UNL     1     -10.569   3.233   9.422  0.00  0.00    +0.057 HD
ATOM     34  H   UNL     1      -7.616   3.925   8.939  0.00  0.00    +0.059 HD
ATOM     35  H   UNL     1      -9.444   1.577   8.040  0.00  0.00    +0.064 HD
ATOM     36  H   UNL     1      -7.208   0.364   7.742  0.00  0.00    +0.032 HD
ATOM     37  H   UNL     1      -6.418   1.701   8.480  0.00  0.00    +0.032 HD
ATOM     38  H   UNL     1      -7.523   1.292  10.637  0.00  0.00    +0.060 HD
ATOM     39  H   UNL     1      -9.697   0.403  10.110  0.00  0.00    +0.036 HD
ATOM     40  H   UNL     1      -8.191  -2.025  11.198  0.00  0.00    +0.077 HD
ATOM     41  H   UNL     1      -8.422  -1.431  13.437  0.00  0.00    +0.068 HD
ATOM     42  H   UNL     1     -11.860   0.447  13.192  0.00  0.00    +0.069 HD
ATOM     43  H   UNL     1     -10.502   1.575  14.699  0.00  0.00    +0.034 HD
ATOM     44  H   UNL     1      -8.947   2.031  14.039  0.00  0.00    +0.034 HD
ATOM     45  H   UNL     1      -7.762   0.421  15.393  0.00  0.00    +0.060 HD
ATOM     46  H   UNL     1      -8.240   2.364  16.682  0.00  0.00    +0.034 HD
ATOM     47  H   UNL     1      -8.439   1.000  17.745  0.00  0.00    +0.034 HD
ATOM     48  H   UNL     1     -11.703   3.389  17.875  0.00  0.00    +0.062 HD
ATOM     49  H   UNL     1     -10.172   5.148  18.281  0.00  0.00    +0.062 HD
ATOM     50  H   UNL     1      -8.882   4.242  15.630  0.00  0.00    +0.069 HD
ATOM     51  H   UNL     1      -8.005   8.638  16.388  0.00  0.00    +0.074 HD
ATOM     52  H   UNL     1     -11.050   8.774  16.703  0.00  0.00    +0.038 HD
ATOM     53  H   UNL     1     -11.330   7.838  14.655  0.00  0.00    +0.057 HD
ATOM     54  H   UNL     1      -8.416   8.511  13.996  0.00  0.00    +0.059 HD
ATOM     55  H   UNL     1      -9.069   7.968  11.742  0.00  0.00    +0.064 HD
ATOM     56  H   UNL     1      -9.733   5.326  13.136  0.00  0.00    +0.032 HD
ATOM     57  H   UNL     1      -8.109   6.015  13.249  0.00  0.00    +0.032 HD
ATOM     58  H   UNL     1      -8.212   4.315  11.586  0.00  0.00    +0.060 HD
ENDROOT
BRANCH   1  59
ATOM     59  C   UNL     1      -9.835   6.233   9.229  0.00  0.00    -0.057 C 
ATOM     60  H   UNL     1      -9.134   6.083   8.400  0.00  0.00    +0.024 HD
ATOM     61  H   UNL     1     -10.844   6.278   8.800  0.00  0.00    +0.024 HD
ATOM     62  H   UNL     1      -9.618   7.212   9.658  0.00  0.00    +0.024 HD
ENDBRANCH   1  59
BRANCH  26  63
ATOM     63  C   UNL     1     -10.115  10.498  15.852  0.00  0.00    -0.056 C 
ATOM     64  H   UNL     1     -10.232  10.709  14.783  0.00  0.00    +0.024 HD
ATOM     65  H   UNL     1      -9.173  10.947  16.183  0.00  0.00    +0.024 HD
ATOM     66  H   UNL     1     -10.936  11.010  16.364  0.00  0.00    +0.024 HD
ENDBRANCH  26  63
BRANCH  18  67
ATOM     67  C   UNL     1     -11.260   0.842  17.607  0.00  0.00    -0.043 C 
ATOM     68  H   UNL     1     -10.946  -0.109  17.164  0.00  0.00    +0.027 HD
ATOM     69  H   UNL     1     -11.362   0.677  18.682  0.00  0.00    +0.027 HD
ATOM     70  H   UNL     1     -12.242   1.081  17.185  0.00  0.00    +0.027 HD
ENDBRANCH  18  67
BRANCH   7  71
ATOM     71  C   UNL     1      -9.137  -1.230   8.853  0.00  0.00    -0.057 C 
ATOM     72  H   UNL     1     -10.010  -1.869   9.017  0.00  0.00    +0.023 HD
ATOM     73  H   UNL     1      -8.278  -1.881   8.654  0.00  0.00    +0.023 HD
ATOM     74  H   UNL     1      -9.348  -0.662   7.944  0.00  0.00    +0.023 HD
ENDBRANCH   7  71
BRANCH  31  75
ATOM     75  O   UNL     1      -7.497   6.020  10.739  0.00  0.00    -0.391 OA
ATOM     76  H   UNL     1      -6.689   5.520  10.950  0.00  0.00    +0.210 HD
ENDBRANCH  31  75
BRANCH  25  77
ATOM     77  C   UNL     1      -8.748   9.232  18.329  0.00  0.00    +0.020 C 
ATOM     78  H   UNL     1      -9.707   9.721  18.521  0.00  0.00    +0.036 HD
BRANCH  77  79
ATOM     79  C   UNL     1      -8.552   8.298  19.529  0.00  0.00    -0.057 C 
ATOM     80  H   UNL     1      -8.249   8.858  20.420  0.00  0.00    +0.023 HD
ATOM     81  H   UNL     1      -7.756   7.572  19.326  0.00  0.00    +0.023 HD
ATOM     82  H   UNL     1      -9.459   7.746  19.789  0.00  0.00    +0.023 HD
ENDBRANCH  77  79
BRANCH  77  83
ATOM     83  C   UNL     1      -7.704  10.402  18.269  0.00  0.00    +0.067 C 
ATOM     84  H   UNL     1      -7.882  11.008  17.371  0.00  0.00    +0.060 HD
BRANCH  83  85
ATOM     85  C   UNL     1      -6.187  10.044  18.328  0.00  0.00    -0.017 C 
ATOM     86  H   UNL     1      -6.063   9.172  18.984  0.00  0.00    +0.032 HD
BRANCH  85  87
ATOM     87  C   UNL     1      -5.588   9.686  16.967  0.00  0.00    -0.060 C 
ATOM     88  H   UNL     1      -6.113  10.196  16.158  0.00  0.00    +0.023 HD
ATOM     89  H   UNL     1      -4.526   9.946  16.914  0.00  0.00    +0.023 HD
ATOM     90  H   UNL     1      -5.680   8.614  16.764  0.00  0.00    +0.023 HD
ENDBRANCH  85  87
BRANCH  85  91
ATOM     91  C   UNL     1      -5.324  11.153  18.996  0.00  0.00    -0.041 C 
ATOM     92  H   UNL     1      -4.602  10.666  19.663  0.00  0.00    +0.027 HD
ATOM     93  H   UNL     1      -5.952  11.764  19.657  0.00  0.00    +0.027 HD
BRANCH  91  94
ATOM     94  C   UNL     1      -4.582  12.074  18.024  0.00  0.00    +0.007 C 
ATOM     95  H   UNL     1      -3.555  12.238  18.369  0.00  0.00    +0.034 HD
ATOM     96  H   UNL     1      -4.538  11.633  17.022  0.00  0.00    +0.034 HD
BRANCH  94  97
ATOM     97  C   UNL     1      -5.252  13.436  17.907  0.00  0.00    +0.139 C 
ATOM     98  O   UNL     1      -6.435  13.558  17.583  0.00  0.00    -0.297 OA
BRANCH  97  99
ATOM     99  C   UNL     1      -4.384  14.644  18.260  0.00  0.00    +0.041 C 
ATOM    100  H   UNL     1      -4.845  15.123  19.134  0.00  0.00    +0.040 HD
BRANCH  99 101
ATOM    101  C   UNL     1      -4.452  15.601  17.073  0.00  0.00    -0.053 C 
ATOM    102  H   UNL     1      -3.470  16.031  16.857  0.00  0.00    +0.024 HD
ATOM    103  H   UNL     1      -5.129  16.439  17.273  0.00  0.00    +0.024 HD
ATOM    104  H   UNL     1      -4.826  15.096  16.175  0.00  0.00    +0.024 HD
ENDBRANCH  99 101
BRANCH  99 105
ATOM    105  C   UNL     1      -2.969  14.168  18.649  0.00  0.00    +0.071 C 
ATOM    106  H   UNL     1      -2.846  13.108  18.393  0.00  0.00    +0.061 HD
BRANCH 105 107
ATOM    107  C   UNL     1      -1.825  14.994  18.014  0.00  0.00    -0.006 C 
ATOM    108  H   UNL     1      -2.145  15.375  17.035  0.00  0.00    +0.033 HD
ATOM    109  H   UNL     1      -1.640  15.890  18.619  0.00  0.00    +0.033 HD
BRANCH 107 110
ATOM    110  C   UNL     1      -0.516  14.251  17.923  0.00  0.00    -0.067 C 
ATOM    111  C   UNL     1       0.517  14.478  18.747  0.00  0.00    -0.005 C 
ATOM    112  H   UNL     1      -0.457  13.502  17.140  0.00  0.00    +0.059 HD
ATOM    113  H   UNL     1       0.420  15.234  19.529  0.00  0.00    +0.078 HD
BRANCH 111 114
ATOM    114  N   UNL     1       1.746  13.841  18.706  0.00  0.00    -0.284 N 
ATOM    115  C   UNL     1       2.899  14.546  19.050  0.00  0.00    +0.206 C 
ATOM    116  O   UNL     1       2.966  15.722  19.387  0.00  0.00    -0.279 OA
ATOM    117  H   UNL     1       3.811  13.927  18.985  0.00  0.00    +0.126 HD
BRANCH 114 118
ATOM    118  C   UNL     1       1.866  12.448  18.307  0.00  0.00    +0.007 C 
ATOM    119  H   UNL     1       2.848  12.068  18.608  0.00  0.00    +0.043 HD
ATOM    120  H   UNL     1       1.072  11.864  18.781  0.00  0.00    +0.043 HD
ATOM    121  H   UNL     1       1.771  12.338  17.222  0.00  0.00    +0.043 HD
ENDBRANCH 114 118
ENDBRANCH 111 114
ENDBRANCH 107 110
ENDBRANCH 105 107
BRANCH 105 122
ATOM    122  O   UNL     1      -2.876  14.327  20.083  0.00  0.00    -0.379 OA
BRANCH 122 123
ATOM    123  C   UNL     1      -3.080  15.673  20.499  0.00  0.00    +0.037 C 
ATOM    124  H   UNL     1      -3.492  15.714  21.510  0.00  0.00    +0.052 HD
ATOM    125  H   UNL     1      -3.747  16.189  19.800  0.00  0.00    +0.052 HD
ATOM    126  H   UNL     1      -2.112  16.182  20.496  0.00  0.00    +0.052 HD
ENDBRANCH 122 123
ENDBRANCH 105 122
ENDBRANCH  99 105
ENDBRANCH  97  99
ENDBRANCH  94  97
ENDBRANCH  91  94
ENDBRANCH  85  91
ENDBRANCH  83  85
BRANCH  83 127
ATOM    127  O   UNL     1      -7.944  11.231  19.434  0.00  0.00    -0.379 OA
BRANCH 127 128
ATOM    128  C   UNL     1      -9.118  12.031  19.335  0.00  0.00    +0.037 C 
ATOM    129  H   UNL     1      -8.834  13.071  19.514  0.00  0.00    +0.052 HD
ATOM    130  H   UNL     1      -9.859  11.741  20.083  0.00  0.00    +0.052 HD
ATOM    131  H   UNL     1      -9.550  11.955  18.333  0.00  0.00    +0.052 HD
ENDBRANCH 127 128
ENDBRANCH  83 127
ENDBRANCH  77  83
ENDBRANCH  25  77
BRANCH   9 132
ATOM    132  O   UNL     1      -7.411   0.190  12.754  0.00  0.00    -0.384 OA
ATOM    133  H   UNL     1      -6.661  -0.437  12.778  0.00  0.00    +0.210 HD
ENDBRANCH   9 132
BRANCH  29 134
ATOM    134  O   UNL     1     -10.987   7.283  12.176  0.00  0.00    -0.376 OA
BRANCH 134 135
ATOM    135  C   UNL     1     -11.499   8.431  11.508  0.00  0.00    +0.037 C 
ATOM    136  H   UNL     1     -11.735   9.231  12.213  0.00  0.00    +0.052 HD
ATOM    137  H   UNL     1     -10.794   8.797  10.756  0.00  0.00    +0.052 HD
ATOM    138  H   UNL     1     -12.425   8.140  10.999  0.00  0.00    +0.052 HD
ENDBRANCH 134 135
ENDBRANCH  29 134
BRANCH   6 139
ATOM    139  O   UNL     1      -6.465  -0.419  10.188  0.00  0.00    -0.379 OA
BRANCH 139 140
ATOM    140  C   UNL     1      -5.168   0.170  10.198  0.00  0.00    +0.037 C 
ATOM    141  H   UNL     1      -5.290   1.255  10.284  0.00  0.00    +0.052 HD
ATOM    142  H   UNL     1      -4.594  -0.171  11.065  0.00  0.00    +0.052 HD
ATOM    143  H   UNL     1      -4.631  -0.047   9.269  0.00  0.00    +0.052 HD
ENDBRANCH 139 140
ENDBRANCH   6 139
BRANCH  16 144
ATOM    144  O   UNL     1      -9.395  -0.715  15.946  0.00  0.00    -0.379 OA
BRANCH 144 145
ATOM    145  C   UNL     1      -8.467  -1.630  16.516  0.00  0.00    +0.037 C 
ATOM    146  H   UNL     1      -8.203  -2.369  15.755  0.00  0.00    +0.052 HD
ATOM    147  H   UNL     1      -7.557  -1.105  16.819  0.00  0.00    +0.052 HD
ATOM    148  H   UNL     1      -8.897  -2.157  17.371  0.00  0.00    +0.052 HD
ENDBRANCH 144 145
ENDBRANCH  16 144
BRANCH   4 149
ATOM    149  O   UNL     1      -8.148   2.480   6.703  0.00  0.00    -0.376 OA
BRANCH 149 150
ATOM    150  C   UNL     1      -9.290   2.707   5.883  0.00  0.00    +0.037 C 
ATOM    151  H   UNL     1      -9.430   3.787   5.787  0.00  0.00    +0.052 HD
ATOM    152  H   UNL     1     -10.187   2.287   6.344  0.00  0.00    +0.052 HD
ATOM    153  H   UNL     1      -9.143   2.287   4.884  0.00  0.00    +0.052 HD
ENDBRANCH 149 150
ENDBRANCH   4 149
TORSDOF 33
ENDMDL
MODEL 10
REMARK VINA RESULT:      -5.0      6.019     12.157
REMARK  Name = Sphinxolide B_conf2
REMARK  33 active torsions:
REMARK  status: ('A' for Active; 'I' for Inactive)
REMARK    1  A    between atoms: C_1  and  C_2
REMARK    2  A    between atoms: C_5  and  O_67
REMARK    3  A    between atoms: C_7  and  O_65
REMARK    4  A    between atoms: C_8  and  C_64
REMARK    5  A    between atoms: C_10  and  O_63
REMARK    6  A    between atoms: C_17  and  O_61
REMARK    7  A    between atoms: C_19  and  C_60
REMARK    8  A    between atoms: C_26  and  C_37
REMARK    9  A    between atoms: C_27  and  C_36
REMARK   10  A    between atoms: C_30  and  O_34
REMARK   11  A    between atoms: C_32  and  O_33
REMARK   12  A    between atoms: O_34  and  C_35
REMARK   13  A    between atoms: C_37  and  C_38
REMARK   14  A    between atoms: C_37  and  C_39
REMARK   15  A    between atoms: C_39  and  C_40
REMARK   16  A    between atoms: C_39  and  O_58
REMARK   17  A    between atoms: C_40  and  C_41
REMARK   18  A    between atoms: C_40  and  C_42
REMARK   19  A    between atoms: C_42  and  C_43
REMARK   20  A    between atoms: C_43  and  C_44
REMARK   21  A    between atoms: C_44  and  C_46
REMARK   22  A    between atoms: C_46  and  C_47
REMARK   23  A    between atoms: C_46  and  C_48
REMARK   24  A    between atoms: C_48  and  C_49
REMARK   25  A    between atoms: C_48  and  O_56
REMARK   26  A    between atoms: C_49  and  C_50
REMARK   27  A    between atoms: C_51  and  N_52
REMARK   28  A    between atoms: N_52  and  C_53
REMARK   29  A    between atoms: O_56  and  C_57
REMARK   30  A    between atoms: O_58  and  C_59
REMARK   31  A    between atoms: O_61  and  C_62
REMARK   32  A    between atoms: O_65  and  C_66
REMARK   33  A    between atoms: O_67  and  C_68
REMARK                            x       y       z     vdW  Elec       q    Type
REMARK                         _______ _______ _______ _____ _____    ______ ____
ROOT
ATOM      1  C   UNL     1     -12.190  13.279  13.844  0.00  0.00    +0.000 C 
ATOM      2  C   UNL     1     -12.669  12.211  12.868  0.00  0.00    -0.080 C 
ATOM      3  C   UNL     1     -12.197  12.037  11.620  0.00  0.00    -0.059 C 
ATOM      4  C   UNL     1     -12.764  11.063  10.624  0.00  0.00    +0.079 C 
ATOM      5  C   UNL     1     -11.679  10.139  10.051  0.00  0.00    +0.004 C 
ATOM      6  C   UNL     1     -11.036   9.144  11.039  0.00  0.00    +0.067 C 
ATOM      7  C   UNL     1     -12.040   8.199  11.760  0.00  0.00    +0.022 C 
ATOM      8  C   UNL     1     -11.375   7.003  12.525  0.00  0.00    +0.138 C 
ATOM      9  C   UNL     1     -10.233   7.269  13.538  0.00  0.00    +0.114 C 
ATOM     10  C   UNL     1     -10.774   7.789  14.839  0.00  0.00    -0.029 C 
ATOM     11  C   UNL     1     -12.050   7.531  15.171  0.00  0.00    +0.024 C 
ATOM     12  C   UNL     1     -12.935   6.685  14.349  0.00  0.00    +0.332 C 
ATOM     13  O   UNL     1     -14.055   6.386  14.740  0.00  0.00    -0.246 OA
ATOM     14  O   UNL     1     -12.423   6.235  13.179  0.00  0.00    -0.455 OA
ATOM     15  C   UNL     1      -9.836   8.463  15.823  0.00  0.00    -0.002 C 
ATOM     16  C   UNL     1      -8.576   7.635  16.181  0.00  0.00    +0.066 C 
ATOM     17  C   UNL     1      -7.811   8.220  17.404  0.00  0.00    -0.005 C 
ATOM     18  C   UNL     1      -8.617   8.410  18.685  0.00  0.00    -0.070 C 
ATOM     19  C   UNL     1      -8.713   9.540  19.412  0.00  0.00    -0.062 C 
ATOM     20  C   UNL     1      -8.071  10.822  19.242  0.00  0.00    -0.055 C 
ATOM     21  C   UNL     1      -7.976  11.534  18.111  0.00  0.00    +0.023 C 
ATOM     22  C   UNL     1      -7.366  12.878  18.050  0.00  0.00    +0.332 C 
ATOM     23  O   UNL     1      -6.974  13.373  17.004  0.00  0.00    -0.246 OA
ATOM     24  O   UNL     1      -7.377  13.473  19.269  0.00  0.00    -0.457 OA
ATOM     25  C   UNL     1      -7.237  14.909  19.302  0.00  0.00    +0.114 C 
ATOM     26  C   UNL     1      -8.678  15.491  19.527  0.00  0.00    +0.012 C 
ATOM     27  C   UNL     1      -9.686  15.104  18.457  0.00  0.00    -0.079 C 
ATOM     28  C   UNL     1      -9.545  15.292  17.132  0.00  0.00    -0.059 C 
ATOM     29  C   UNL     1     -10.547  14.927  16.052  0.00  0.00    +0.079 C 
ATOM     30  C   UNL     1     -10.125  13.590  15.418  0.00  0.00    +0.004 C 
ATOM     31  C   UNL     1     -10.646  13.316  13.995  0.00  0.00    +0.064 C 
ATOM     32  H   UNL     1     -12.617  12.996  14.815  0.00  0.00    +0.037 HD
ATOM     33  H   UNL     1     -13.506  11.606  13.213  0.00  0.00    +0.057 HD
ATOM     34  H   UNL     1     -11.398  12.682  11.256  0.00  0.00    +0.059 HD
ATOM     35  H   UNL     1     -13.574  10.471  11.062  0.00  0.00    +0.064 HD
ATOM     36  H   UNL     1     -12.073   9.597   9.181  0.00  0.00    +0.032 HD
ATOM     37  H   UNL     1     -10.897  10.774   9.612  0.00  0.00    +0.032 HD
ATOM     38  H   UNL     1     -10.507   9.726  11.801  0.00  0.00    +0.060 HD
ATOM     39  H   UNL     1     -12.620   8.793  12.476  0.00  0.00    +0.036 HD
ATOM     40  H   UNL     1     -10.957   6.326  11.765  0.00  0.00    +0.077 HD
ATOM     41  H   UNL     1      -9.746   6.309  13.752  0.00  0.00    +0.068 HD
ATOM     42  H   UNL     1     -12.477   7.844  16.117  0.00  0.00    +0.069 HD
ATOM     43  H   UNL     1     -10.402   8.681  16.736  0.00  0.00    +0.034 HD
ATOM     44  H   UNL     1      -9.530   9.439  15.422  0.00  0.00    +0.034 HD
ATOM     45  H   UNL     1      -7.899   7.662  15.319  0.00  0.00    +0.060 HD
ATOM     46  H   UNL     1      -7.350   9.160  17.086  0.00  0.00    +0.034 HD
ATOM     47  H   UNL     1      -6.974   7.558  17.655  0.00  0.00    +0.034 HD
ATOM     48  H   UNL     1      -9.301   9.506  20.331  0.00  0.00    +0.062 HD
ATOM     49  H   UNL     1      -7.704  11.246  20.177  0.00  0.00    +0.062 HD
ATOM     50  H   UNL     1      -8.347  11.170  17.161  0.00  0.00    +0.069 HD
ATOM     51  H   UNL     1      -6.852  15.296  18.351  0.00  0.00    +0.074 HD
ATOM     52  H   UNL     1      -9.070  15.050  20.451  0.00  0.00    +0.038 HD
ATOM     53  H   UNL     1     -10.599  14.639  18.826  0.00  0.00    +0.057 HD
ATOM     54  H   UNL     1      -8.629  15.738  16.754  0.00  0.00    +0.059 HD
ATOM     55  H   UNL     1     -10.548  15.723  15.298  0.00  0.00    +0.064 HD
ATOM     56  H   UNL     1     -10.442  12.762  16.066  0.00  0.00    +0.032 HD
ATOM     57  H   UNL     1      -9.029  13.555  15.357  0.00  0.00    +0.032 HD
ATOM     58  H   UNL     1     -10.246  12.329  13.718  0.00  0.00    +0.060 HD
ENDROOT
BRANCH   1  59
ATOM     59  C   UNL     1     -12.806  14.614  13.405  0.00  0.00    -0.057 C 
ATOM     60  H   UNL     1     -13.860  14.505  13.127  0.00  0.00    +0.024 HD
ATOM     61  H   UNL     1     -12.757  15.347  14.220  0.00  0.00    +0.024 HD
ATOM     62  H   UNL     1     -12.290  15.043  12.546  0.00  0.00    +0.024 HD
ENDBRANCH   1  59
BRANCH  26  63
ATOM     63  C   UNL     1      -8.705  17.016  19.694  0.00  0.00    -0.056 C 
ATOM     64  H   UNL     1      -9.693  17.425  19.453  0.00  0.00    +0.024 HD
ATOM     65  H   UNL     1      -7.972  17.501  19.042  0.00  0.00    +0.024 HD
ATOM     66  H   UNL     1      -8.490  17.306  20.727  0.00  0.00    +0.024 HD
ENDBRANCH  26  63
BRANCH  18  67
ATOM     67  C   UNL     1      -9.310   7.166  19.201  0.00  0.00    -0.043 C 
ATOM     68  H   UNL     1      -9.220   7.063  20.288  0.00  0.00    +0.027 HD
ATOM     69  H   UNL     1     -10.378   7.188  18.970  0.00  0.00    +0.027 HD
ATOM     70  H   UNL     1      -8.864   6.270  18.758  0.00  0.00    +0.027 HD
ENDBRANCH  18  67
BRANCH   7  71
ATOM     71  C   UNL     1     -13.060   7.593  10.764  0.00  0.00    -0.057 C 
ATOM     72  H   UNL     1     -13.904   8.267  10.590  0.00  0.00    +0.023 HD
ATOM     73  H   UNL     1     -13.461   6.645  11.141  0.00  0.00    +0.023 HD
ATOM     74  H   UNL     1     -12.618   7.406   9.783  0.00  0.00    +0.023 HD
ENDBRANCH   7  71
BRANCH  31  75
ATOM     75  O   UNL     1     -10.056  14.254  13.091  0.00  0.00    -0.391 OA
ATOM     76  H   UNL     1     -10.366  14.029  12.196  0.00  0.00    +0.210 HD
ENDBRANCH  31  75
BRANCH  25  77
ATOM     77  C   UNL     1      -6.225  15.304  20.420  0.00  0.00    +0.020 C 
ATOM     78  H   UNL     1      -6.597  16.244  20.838  0.00  0.00    +0.036 HD
BRANCH  77  79
ATOM     79  C   UNL     1      -6.216  14.339  21.611  0.00  0.00    -0.057 C 
ATOM     80  H   UNL     1      -5.537  13.497  21.432  0.00  0.00    +0.023 HD
ATOM     81  H   UNL     1      -7.214  13.912  21.768  0.00  0.00    +0.023 HD
ATOM     82  H   UNL     1      -5.898  14.815  22.541  0.00  0.00    +0.023 HD
ENDBRANCH  77  79
BRANCH  77  83
ATOM     83  C   UNL     1      -4.793  15.643  19.876  0.00  0.00    +0.067 C 
ATOM     84  H   UNL     1      -4.869  16.018  18.847  0.00  0.00    +0.060 HD
BRANCH  83  85
ATOM     85  C   UNL     1      -3.704  14.525  19.913  0.00  0.00    -0.017 C 
ATOM     86  H   UNL     1      -3.700  14.081  20.917  0.00  0.00    +0.032 HD
BRANCH  85  87
ATOM     87  C   UNL     1      -3.950  13.398  18.909  0.00  0.00    -0.060 C 
ATOM     88  H   UNL     1      -5.009  13.312  18.661  0.00  0.00    +0.023 HD
ATOM     89  H   UNL     1      -3.385  13.552  17.984  0.00  0.00    +0.023 HD
ATOM     90  H   UNL     1      -3.652  12.428  19.324  0.00  0.00    +0.023 HD
ENDBRANCH  85  87
BRANCH  85  91
ATOM     91  C   UNL     1      -2.261  15.075  19.729  0.00  0.00    -0.041 C 
ATOM     92  H   UNL     1      -1.624  14.620  20.497  0.00  0.00    +0.027 HD
ATOM     93  H   UNL     1      -2.242  16.151  19.947  0.00  0.00    +0.027 HD
BRANCH  91  94
ATOM     94  C   UNL     1      -1.645  14.837  18.347  0.00  0.00    +0.007 C 
ATOM     95  H   UNL     1      -1.755  13.786  18.061  0.00  0.00    +0.034 HD
ATOM     96  H   UNL     1      -2.140  15.451  17.587  0.00  0.00    +0.034 HD
BRANCH  94  97
ATOM     97  C   UNL     1      -0.160  15.170  18.321  0.00  0.00    +0.139 C 
ATOM     98  O   UNL     1       0.458  15.325  17.267  0.00  0.00    -0.297 OA
BRANCH  97  99
ATOM     99  C   UNL     1       0.512  15.348  19.684  0.00  0.00    +0.041 C 
ATOM    100  H   UNL     1      -0.262  15.180  20.445  0.00  0.00    +0.040 HD
BRANCH  99 101
ATOM    101  C   UNL     1       0.981  16.798  19.761  0.00  0.00    -0.053 C 
ATOM    102  H   UNL     1       1.597  17.059  18.896  0.00  0.00    +0.024 HD
ATOM    103  H   UNL     1       1.595  16.973  20.652  0.00  0.00    +0.024 HD
ATOM    104  H   UNL     1       0.132  17.489  19.818  0.00  0.00    +0.024 HD
ENDBRANCH  99 101
BRANCH  99 105
ATOM    105  C   UNL     1       1.614  14.283  19.860  0.00  0.00    +0.071 C 
ATOM    106  H   UNL     1       2.529  14.601  19.343  0.00  0.00    +0.061 HD
BRANCH 105 107
ATOM    107  C   UNL     1       1.940  13.945  21.335  0.00  0.00    -0.006 C 
ATOM    108  H   UNL     1       1.201  14.421  21.994  0.00  0.00    +0.033 HD
ATOM    109  H   UNL     1       1.812  12.868  21.500  0.00  0.00    +0.033 HD
BRANCH 107 110
ATOM    110  C   UNL     1       3.351  14.285  21.740  0.00  0.00    -0.067 C 
ATOM    111  C   UNL     1       3.747  15.526  22.054  0.00  0.00    -0.005 C 
ATOM    112  H   UNL     1       4.043  13.449  21.769  0.00  0.00    +0.059 HD
ATOM    113  H   UNL     1       3.022  16.343  22.021  0.00  0.00    +0.078 HD
BRANCH 111 114
ATOM    114  N   UNL     1       5.029  15.904  22.420  0.00  0.00    -0.284 N 
ATOM    115  C   UNL     1       5.916  16.362  21.446  0.00  0.00    +0.206 C 
ATOM    116  O   UNL     1       5.698  16.464  20.244  0.00  0.00    -0.279 OA
ATOM    117  H   UNL     1       6.900  16.639  21.864  0.00  0.00    +0.126 HD
BRANCH 114 118
ATOM    118  C   UNL     1       5.477  15.831  23.801  0.00  0.00    +0.007 C 
ATOM    119  H   UNL     1       5.692  16.841  24.166  0.00  0.00    +0.043 HD
ATOM    120  H   UNL     1       4.698  15.365  24.412  0.00  0.00    +0.043 HD
ATOM    121  H   UNL     1       6.388  15.230  23.890  0.00  0.00    +0.043 HD
ENDBRANCH 114 118
ENDBRANCH 111 114
ENDBRANCH 107 110
ENDBRANCH 105 107
BRANCH 105 122
ATOM    122  O   UNL     1       1.108  13.079  19.240  0.00  0.00    -0.379 OA
BRANCH 122 123
ATOM    123  C   UNL     1       2.104  12.389  18.492  0.00  0.00    +0.037 C 
ATOM    124  H   UNL     1       3.104  12.613  18.870  0.00  0.00    +0.052 HD
ATOM    125  H   UNL     1       2.034  12.652  17.432  0.00  0.00    +0.052 HD
ATOM    126  H   UNL     1       1.924  11.315  18.596  0.00  0.00    +0.052 HD
ENDBRANCH 122 123
ENDBRANCH 105 122
ENDBRANCH  99 105
ENDBRANCH  97  99
ENDBRANCH  94  97
ENDBRANCH  91  94
ENDBRANCH  85  91
ENDBRANCH  83  85
BRANCH  83 127
ATOM    127  O   UNL     1      -4.273  16.707  20.712  0.00  0.00    -0.379 OA
BRANCH 127 128
ATOM    128  C   UNL     1      -4.819  17.987  20.413  0.00  0.00    +0.037 C 
ATOM    129  H   UNL     1      -4.640  18.640  21.272  0.00  0.00    +0.052 HD
ATOM    130  H   UNL     1      -5.896  17.928  20.242  0.00  0.00    +0.052 HD
ATOM    131  H   UNL     1      -4.325  18.420  19.538  0.00  0.00    +0.052 HD
ENDBRANCH 127 128
ENDBRANCH  83 127
ENDBRANCH  77  83
ENDBRANCH  25  77
BRANCH   9 132
ATOM    132  O   UNL     1      -9.229   8.141  13.050  0.00  0.00    -0.384 OA
ATOM    133  H   UNL     1      -8.433   7.589  12.911  0.00  0.00    +0.210 HD
ENDBRANCH   9 132
BRANCH  29 134
ATOM    134  O   UNL     1     -11.863  14.767  16.600  0.00  0.00    -0.376 OA
BRANCH 134 135
ATOM    135  C   UNL     1     -12.595  15.985  16.668  0.00  0.00    +0.037 C 
ATOM    136  H   UNL     1     -13.324  15.967  17.482  0.00  0.00    +0.052 HD
ATOM    137  H   UNL     1     -11.926  16.841  16.791  0.00  0.00    +0.052 HD
ATOM    138  H   UNL     1     -13.139  16.105  15.725  0.00  0.00    +0.052 HD
ENDBRANCH 134 135
ENDBRANCH  29 134
BRANCH   6 139
ATOM    139  O   UNL     1     -10.070   8.296  10.383  0.00  0.00    -0.379 OA
BRANCH 139 140
ATOM    140  C   UNL     1      -9.259   8.952   9.412  0.00  0.00    +0.037 C 
ATOM    141  H   UNL     1      -8.212   8.746   9.652  0.00  0.00    +0.052 HD
ATOM    142  H   UNL     1      -9.457   8.556   8.411  0.00  0.00    +0.052 HD
ATOM    143  H   UNL     1      -9.416  10.035   9.437  0.00  0.00    +0.052 HD
ENDBRANCH 139 140
ENDBRANCH   6 139
BRANCH  16 144
ATOM    144  O   UNL     1      -8.951   6.269  16.421  0.00  0.00    -0.379 OA
BRANCH 144 145
ATOM    145  C   UNL     1      -7.917   5.339  16.123  0.00  0.00    +0.037 C 
ATOM    146  H   UNL     1      -7.512   4.964  17.068  0.00  0.00    +0.052 HD
ATOM    147  H   UNL     1      -8.320   4.494  15.559  0.00  0.00    +0.052 HD
ATOM    148  H   UNL     1      -7.103   5.809  15.565  0.00  0.00    +0.052 HD
ENDBRANCH 144 145
ENDBRANCH  16 144
BRANCH   4 149
ATOM    149  O   UNL     1     -13.281  11.805   9.507  0.00  0.00    -0.376 OA
BRANCH 149 150
ATOM    150  C   UNL     1     -13.646  10.982   8.404  0.00  0.00    +0.037 C 
ATOM    151  H   UNL     1     -12.838  11.023   7.668  0.00  0.00    +0.052 HD
ATOM    152  H   UNL     1     -14.557  11.352   7.929  0.00  0.00    +0.052 HD
ATOM    153  H   UNL     1     -13.775   9.943   8.718  0.00  0.00    +0.052 HD
ENDBRANCH 149 150
ENDBRANCH   4 149
TORSDOF 33
ENDMDL
