MODEL 1
REMARK VINA RESULT:      -4.8      0.000      0.000
REMARK  Name = Swinholide A_conf1
REMARK  40 active torsions:
REMARK  status: ('A' for Active; 'I' for Inactive)
REMARK    1  A    between atoms: C_1  and  C_2
REMARK    2  A    between atoms: C_4  and  C_10
REMARK    3  A    between atoms: C_6  and  O_8
REMARK    4  A    between atoms: O_8  and  C_9
REMARK    5  A    between atoms: C_10  and  C_11
REMARK    6  A    between atoms: C_11  and  C_12
REMARK    7  A    between atoms: C_12  and  C_13
REMARK    8  A    between atoms: C_12  and  C_98
REMARK    9  A    between atoms: C_13  and  O_14
REMARK   10  A    between atoms: C_13  and  C_15
REMARK   11  A    between atoms: C_15  and  C_16
REMARK   12  A    between atoms: C_15  and  C_97
REMARK   13  A    between atoms: C_22  and  C_96
REMARK   14  A    between atoms: C_25  and  O_95
REMARK   15  A    between atoms: C_31  and  O_90
REMARK   16  A    between atoms: C_32  and  C_89
REMARK   17  A    between atoms: C_33  and  O_88
REMARK   18  A    between atoms: C_35  and  O_87
REMARK   19  A    between atoms: C_36  and  C_86
REMARK   20  A    between atoms: C_37  and  C_69
REMARK   21  A    between atoms: C_43  and  C_68
REMARK   22  A    between atoms: C_46  and  O_67
REMARK   23  A    between atoms: C_52  and  O_62
REMARK   24  A    between atoms: C_53  and  C_61
REMARK   25  A    between atoms: C_54  and  O_60
REMARK   26  A    between atoms: C_56  and  O_59
REMARK   27  A    between atoms: C_57  and  C_58
REMARK   28  A    between atoms: O_62  and  C_63
REMARK   29  A    between atoms: C_69  and  C_70
REMARK   30  A    between atoms: C_69  and  C_85
REMARK   31  A    between atoms: C_70  and  O_71
REMARK   32  A    between atoms: C_70  and  C_72
REMARK   33  A    between atoms: C_72  and  C_73
REMARK   34  A    between atoms: C_72  and  C_84
REMARK   35  A    between atoms: C_73  and  C_74
REMARK   36  A    between atoms: C_74  and  C_75
REMARK   37  A    between atoms: C_77  and  C_83
REMARK   38  A    between atoms: C_79  and  O_81
REMARK   39  A    between atoms: O_81  and  C_82
REMARK   40  A    between atoms: O_90  and  C_91
REMARK                            x       y       z     vdW  Elec       q    Type
REMARK                         _______ _______ _______ _____ _____    ______ ____
ROOT
ATOM      1  C   UNL     1     -13.493   9.143  21.308  0.00  0.00    +0.113 C 
ATOM      2  O   UNL     1     -12.758   9.475  20.099  0.00  0.00    -0.458 OA
ATOM      3  C   UNL     1     -13.500   9.594  18.963  0.00  0.00    +0.332 C 
ATOM      4  O   UNL     1     -14.707   9.404  18.865  0.00  0.00    -0.246 OA
ATOM      5  C   UNL     1     -12.699   9.983  17.792  0.00  0.00    +0.023 C 
ATOM      6  C   UNL     1     -11.532  10.640  17.853  0.00  0.00    -0.052 C 
ATOM      7  C   UNL     1     -10.804  11.147  16.693  0.00  0.00    -0.054 C 
ATOM      8  C   UNL     1     -11.439  11.779  15.685  0.00  0.00    -0.079 C 
ATOM      9  C   UNL     1     -10.781  12.535  14.558  0.00  0.00    -0.008 C 
ATOM     10  C   UNL     1     -11.590  13.737  14.034  0.00  0.00    +0.061 C 
ATOM     11  C   UNL     1     -12.212  14.698  15.057  0.00  0.00    +0.003 C 
ATOM     12  C   UNL     1     -11.277  15.590  15.895  0.00  0.00    +0.080 C 
ATOM     13  O   UNL     1     -12.147  16.633  16.401  0.00  0.00    -0.369 OA
ATOM     14  C   UNL     1     -11.747  17.274  17.623  0.00  0.00    +0.065 C 
ATOM     15  C   UNL     1     -10.488  18.141  17.409  0.00  0.00    +0.000 C 
ATOM     16  C   UNL     1     -10.100  18.986  18.641  0.00  0.00    +0.066 C 
ATOM     17  C   UNL     1      -8.781  19.769  18.359  0.00  0.00    +0.009 C 
ATOM     18  C   UNL     1      -7.664  19.456  19.388  0.00  0.00    +0.063 C 
ATOM     19  C   UNL     1      -7.163  17.997  19.319  0.00  0.00    -0.000 C 
ATOM     20  C   UNL     1      -5.907  17.787  20.191  0.00  0.00    +0.064 C 
ATOM     21  C   UNL     1      -5.217  16.397  20.038  0.00  0.00    +0.020 C 
ATOM     22  C   UNL     1      -6.153  15.187  20.354  0.00  0.00    +0.113 C 
ATOM     23  O   UNL     1      -6.589  15.333  21.731  0.00  0.00    -0.458 OA
ATOM     24  C   UNL     1      -7.917  15.162  21.967  0.00  0.00    +0.332 C 
ATOM     25  O   UNL     1      -8.750  14.789  21.159  0.00  0.00    -0.246 OA
ATOM     26  C   UNL     1      -8.197  15.466  23.389  0.00  0.00    +0.023 C 
ATOM     27  C   UNL     1      -9.459  15.397  23.837  0.00  0.00    -0.052 C 
ATOM     28  C   UNL     1      -9.897  15.635  25.207  0.00  0.00    -0.054 C 
ATOM     29  C   UNL     1      -9.324  14.997  26.248  0.00  0.00    -0.079 C 
ATOM     30  C   UNL     1      -9.695  15.105  27.702  0.00  0.00    -0.008 C 
ATOM     31  C   UNL     1     -10.473  13.892  28.268  0.00  0.00    +0.061 C 
ATOM     32  C   UNL     1      -9.559  12.695  28.604  0.00  0.00    +0.003 C 
ATOM     33  C   UNL     1     -10.272  11.588  29.413  0.00  0.00    +0.080 C 
ATOM     34  O   UNL     1     -11.061  10.735  28.566  0.00  0.00    -0.369 OA
ATOM     35  C   UNL     1     -10.457   9.488  28.154  0.00  0.00    +0.065 C 
ATOM     36  C   UNL     1     -11.545   8.749  27.353  0.00  0.00    +0.000 C 
ATOM     37  C   UNL     1     -11.208   7.395  26.687  0.00  0.00    +0.066 C 
ATOM     38  C   UNL     1     -10.093   7.531  25.604  0.00  0.00    +0.009 C 
ATOM     39  C   UNL     1     -10.435   6.831  24.258  0.00  0.00    +0.063 C 
ATOM     40  C   UNL     1     -11.840   7.147  23.720  0.00  0.00    -0.000 C 
ATOM     41  C   UNL     1     -11.891   7.197  22.181  0.00  0.00    +0.064 C 
ATOM     42  C   UNL     1     -13.303   7.631  21.685  0.00  0.00    +0.020 C 
ATOM     43  C   UNL     1      -9.979   8.677  29.366  0.00  0.00    -0.008 C 
ATOM     44  C   UNL     1      -9.148   9.514  30.281  0.00  0.00    -0.083 C 
ATOM     45  C   UNL     1      -9.294  10.840  30.290  0.00  0.00    -0.059 C 
ATOM     46  C   UNL     1     -11.641  16.211  18.730  0.00  0.00    -0.008 C 
ATOM     47  C   UNL     1     -10.745  15.096  18.301  0.00  0.00    -0.083 C 
ATOM     48  C   UNL     1     -10.565  14.843  16.998  0.00  0.00    -0.059 C 
ATOM     49  H   UNL     1     -14.569   9.236  21.095  0.00  0.00    +0.074 HD
ATOM     50  H   UNL     1     -13.183   9.771  16.844  0.00  0.00    +0.069 HD
ATOM     51  H   UNL     1     -11.074  10.876  18.811  0.00  0.00    +0.062 HD
ATOM     52  H   UNL     1     -12.527  11.831  15.696  0.00  0.00    +0.058 HD
ATOM     53  H   UNL     1      -9.775  12.876  14.829  0.00  0.00    +0.033 HD
ATOM     54  H   UNL     1     -10.633  11.839  13.720  0.00  0.00    +0.033 HD
ATOM     55  H   UNL     1     -12.417  13.325  13.441  0.00  0.00    +0.060 HD
ATOM     56  H   UNL     1     -12.896  14.158  15.724  0.00  0.00    +0.032 HD
ATOM     57  H   UNL     1     -12.865  15.376  14.487  0.00  0.00    +0.032 HD
ATOM     58  H   UNL     1     -10.538  16.076  15.250  0.00  0.00    +0.064 HD
ATOM     59  H   UNL     1     -12.578  17.941  17.885  0.00  0.00    +0.060 HD
ATOM     60  H   UNL     1     -10.689  18.810  16.560  0.00  0.00    +0.032 HD
ATOM     61  H   UNL     1      -9.638  17.517  17.108  0.00  0.00    +0.032 HD
ATOM     62  H   UNL     1      -9.961  18.309  19.490  0.00  0.00    +0.060 HD
ATOM     63  H   UNL     1      -8.384  19.453  17.383  0.00  0.00    +0.035 HD
ATOM     64  H   UNL     1      -6.813  20.120  19.188  0.00  0.00    +0.060 HD
ATOM     65  H   UNL     1      -7.956  17.334  19.684  0.00  0.00    +0.032 HD
ATOM     66  H   UNL     1      -6.945  17.737  18.277  0.00  0.00    +0.032 HD
ATOM     67  H   UNL     1      -5.168  18.556  19.930  0.00  0.00    +0.060 HD
ATOM     68  H   UNL     1      -4.409  16.392  20.781  0.00  0.00    +0.036 HD
ATOM     69  H   UNL     1      -7.005  15.262  19.669  0.00  0.00    +0.074 HD
ATOM     70  H   UNL     1      -7.364  15.739  24.023  0.00  0.00    +0.069 HD
ATOM     71  H   UNL     1     -10.258  15.145  23.139  0.00  0.00    +0.062 HD
ATOM     72  H   UNL     1      -8.488  14.328  26.058  0.00  0.00    +0.058 HD
ATOM     73  H   UNL     1      -8.775  15.253  28.284  0.00  0.00    +0.033 HD
ATOM     74  H   UNL     1     -10.268  16.021  27.887  0.00  0.00    +0.033 HD
ATOM     75  H   UNL     1     -11.260  13.573  27.575  0.00  0.00    +0.060 HD
ATOM     76  H   UNL     1      -8.718  13.080  29.197  0.00  0.00    +0.032 HD
ATOM     77  H   UNL     1      -9.147  12.280  27.676  0.00  0.00    +0.032 HD
ATOM     78  H   UNL     1     -10.989  12.045  30.104  0.00  0.00    +0.064 HD
ATOM     79  H   UNL     1      -9.613   9.732  27.501  0.00  0.00    +0.060 HD
ATOM     80  H   UNL     1     -11.906   9.432  26.569  0.00  0.00    +0.032 HD
ATOM     81  H   UNL     1     -12.413   8.616  28.012  0.00  0.00    +0.032 HD
ATOM     82  H   UNL     1     -12.133   7.076  26.198  0.00  0.00    +0.060 HD
ATOM     83  H   UNL     1     -10.010   8.593  25.349  0.00  0.00    +0.035 HD
ATOM     84  H   UNL     1      -9.686   7.169  23.530  0.00  0.00    +0.060 HD
ATOM     85  H   UNL     1     -12.535   6.366  24.061  0.00  0.00    +0.032 HD
ATOM     86  H   UNL     1     -12.192   8.088  24.133  0.00  0.00    +0.032 HD
ATOM     87  H   UNL     1     -11.131   7.876  21.786  0.00  0.00    +0.060 HD
ATOM     88  H   UNL     1     -14.017   7.420  22.494  0.00  0.00    +0.036 HD
ATOM     89  H   UNL     1      -9.383   7.817  29.042  0.00  0.00    +0.033 HD
ATOM     90  H   UNL     1     -10.830   8.297  29.943  0.00  0.00    +0.033 HD
ATOM     91  H   UNL     1      -8.461   9.021  30.963  0.00  0.00    +0.057 HD
ATOM     92  H   UNL     1      -8.708  11.434  30.989  0.00  0.00    +0.059 HD
ATOM     93  H   UNL     1     -12.632  15.782  18.927  0.00  0.00    +0.033 HD
ATOM     94  H   UNL     1     -11.286  16.642  19.668  0.00  0.00    +0.033 HD
ATOM     95  H   UNL     1     -10.233  14.510  19.059  0.00  0.00    +0.057 HD
ATOM     96  H   UNL     1      -9.862  14.069  16.714  0.00  0.00    +0.059 HD
ENDROOT
BRANCH  28  97
ATOM     97  C   UNL     1     -11.087  16.555  25.306  0.00  0.00    -0.040 C 
ATOM     98  H   UNL     1     -11.505  16.762  24.314  0.00  0.00    +0.028 HD
ATOM     99  H   UNL     1     -10.788  17.508  25.757  0.00  0.00    +0.028 HD
ATOM    100  H   UNL     1     -11.903  16.144  25.906  0.00  0.00    +0.028 HD
ENDBRANCH  28  97
BRANCH  21 101
ATOM    101  C   UNL     1      -4.576  16.287  18.650  0.00  0.00    -0.057 C 
ATOM    102  H   UNL     1      -5.212  15.730  17.954  0.00  0.00    +0.023 HD
ATOM    103  H   UNL     1      -3.607  15.780  18.699  0.00  0.00    +0.023 HD
ATOM    104  H   UNL     1      -4.390  17.277  18.221  0.00  0.00    +0.023 HD
ENDBRANCH  21 101
BRANCH  42 105
ATOM    105  C   UNL     1     -13.772   6.756  20.499  0.00  0.00    -0.057 C 
ATOM    106  H   UNL     1     -14.136   7.375  19.671  0.00  0.00    +0.023 HD
ATOM    107  H   UNL     1     -12.964   6.117  20.124  0.00  0.00    +0.023 HD
ATOM    108  H   UNL     1     -14.608   6.111  20.791  0.00  0.00    +0.023 HD
ENDBRANCH  42 105
BRANCH  17 109
ATOM    109  C   UNL     1      -8.989  21.287  18.259  0.00  0.00    -0.058 C 
ATOM    110  H   UNL     1     -10.029  21.574  18.443  0.00  0.00    +0.023 HD
ATOM    111  H   UNL     1      -8.368  21.809  18.996  0.00  0.00    +0.023 HD
ATOM    112  H   UNL     1      -8.698  21.657  17.270  0.00  0.00    +0.023 HD
ENDBRANCH  17 109
BRANCH  38 113
ATOM    113  C   UNL     1      -8.711   7.066  26.091  0.00  0.00    -0.058 C 
ATOM    114  H   UNL     1      -8.694   5.997  26.335  0.00  0.00    +0.023 HD
ATOM    115  H   UNL     1      -8.396   7.618  26.981  0.00  0.00    +0.023 HD
ATOM    116  H   UNL     1      -7.953   7.230  25.316  0.00  0.00    +0.023 HD
ENDBRANCH  38 113
BRANCH   7 117
ATOM    117  C   UNL     1      -9.312  10.995  16.792  0.00  0.00    -0.040 C 
ATOM    118  H   UNL     1      -8.807  11.679  16.101  0.00  0.00    +0.028 HD
ATOM    119  H   UNL     1      -9.019   9.973  16.547  0.00  0.00    +0.028 HD
ATOM    120  H   UNL     1      -8.932  11.229  17.790  0.00  0.00    +0.028 HD
ENDBRANCH   7 117
BRANCH   1 121
ATOM    121  C   UNL     1     -13.251  10.273  22.377  0.00  0.00    +0.020 C 
ATOM    122  H   UNL     1     -13.646  11.181  21.896  0.00  0.00    +0.036 HD
BRANCH 121 123
ATOM    123  C   UNL     1     -14.130   9.987  23.609  0.00  0.00    -0.057 C 
ATOM    124  H   UNL     1     -14.281   8.914  23.745  0.00  0.00    +0.023 HD
ATOM    125  H   UNL     1     -15.111  10.459  23.537  0.00  0.00    +0.023 HD
ATOM    126  H   UNL     1     -13.662  10.328  24.538  0.00  0.00    +0.023 HD
ENDBRANCH 121 123
BRANCH 121 127
ATOM    127  C   UNL     1     -11.764  10.623  22.725  0.00  0.00    +0.064 C 
ATOM    128  H   UNL     1     -11.198   9.697  22.781  0.00  0.00    +0.060 HD
BRANCH 127 129
ATOM    129  C   UNL     1     -11.456  11.433  24.030  0.00  0.00    -0.017 C 
ATOM    130  H   UNL     1     -12.193  11.139  24.789  0.00  0.00    +0.032 HD
BRANCH 129 131
ATOM    131  C   UNL     1     -10.081  11.213  24.658  0.00  0.00    -0.060 C 
ATOM    132  H   UNL     1      -9.860  11.987  25.398  0.00  0.00    +0.023 HD
ATOM    133  H   UNL     1      -9.995  10.223  25.113  0.00  0.00    +0.023 HD
ATOM    134  H   UNL     1      -9.291  11.292  23.899  0.00  0.00    +0.023 HD
ENDBRANCH 129 131
BRANCH 129 135
ATOM    135  C   UNL     1     -11.623  12.963  23.788  0.00  0.00    -0.046 C 
ATOM    136  H   UNL     1     -11.399  13.197  22.741  0.00  0.00    +0.027 HD
ATOM    137  H   UNL     1     -10.870  13.497  24.372  0.00  0.00    +0.027 HD
BRANCH 135 138
ATOM    138  C   UNL     1     -12.995  13.518  24.172  0.00  0.00    -0.026 C 
ATOM    139  H   UNL     1     -12.871  14.290  24.936  0.00  0.00    +0.029 HD
ATOM    140  H   UNL     1     -13.596  12.732  24.636  0.00  0.00    +0.029 HD
BRANCH 138 143
ATOM    141  C   UNL     1     -13.877  14.015  20.579  0.00  0.00    +0.059 C 
ATOM    142  O   UNL     1     -13.130  13.692  21.761  0.00  0.00    -0.373 OA
ATOM    143  C   UNL     1     -13.764  14.103  22.975  0.00  0.00    +0.061 C 
ATOM    144  C   UNL     1     -13.818  15.631  23.027  0.00  0.00    -0.000 C 
ATOM    145  C   UNL     1     -13.993  16.267  21.643  0.00  0.00    +0.063 C 
ATOM    146  C   UNL     1     -14.705  15.293  20.715  0.00  0.00    -0.000 C 
ATOM    147  H   UNL     1     -13.126  14.176  19.795  0.00  0.00    +0.059 HD
ATOM    148  H   UNL     1     -14.782  13.697  22.975  0.00  0.00    +0.060 HD
ATOM    149  H   UNL     1     -14.620  15.938  23.704  0.00  0.00    +0.032 HD
ATOM    150  H   UNL     1     -12.894  16.037  23.456  0.00  0.00    +0.032 HD
ATOM    151  H   UNL     1     -13.000  16.509  21.241  0.00  0.00    +0.060 HD
ATOM    152  H   UNL     1     -15.704  15.082  21.121  0.00  0.00    +0.032 HD
ATOM    153  H   UNL     1     -14.883  15.725  19.724  0.00  0.00    +0.032 HD
BRANCH 141 154
ATOM    154  C   UNL     1     -14.739  12.828  20.162  0.00  0.00    -0.039 C 
ATOM    155  H   UNL     1     -14.424  11.911  20.667  0.00  0.00    +0.025 HD
ATOM    156  H   UNL     1     -15.793  13.009  20.397  0.00  0.00    +0.025 HD
ATOM    157  H   UNL     1     -14.650  12.645  19.088  0.00  0.00    +0.025 HD
ENDBRANCH 141 154
BRANCH 145 158
ATOM    158  O   UNL     1     -14.736  17.477  21.821  0.00  0.00    -0.380 OA
BRANCH 158 159
ATOM    159  C   UNL     1     -14.226  18.313  22.853  0.00  0.00    +0.037 C 
ATOM    160  H   UNL     1     -13.311  17.857  23.239  0.00  0.00    +0.052 HD
ATOM    161  H   UNL     1     -14.941  18.387  23.678  0.00  0.00    +0.052 HD
ATOM    162  H   UNL     1     -13.985  19.311  22.473  0.00  0.00    +0.052 HD
ENDBRANCH 158 159
ENDBRANCH 145 158
ENDBRANCH 138 143
ENDBRANCH 135 138
ENDBRANCH 129 135
ENDBRANCH 127 129
BRANCH 127 163
ATOM    163  O   UNL     1     -11.150  11.374  21.670  0.00  0.00    -0.391 OA
ATOM    164  H   UNL     1     -11.148  12.317  21.908  0.00  0.00    +0.210 HD
ENDBRANCH 127 163
ENDBRANCH 121 127
ENDBRANCH   1 121
BRANCH  41 165
ATOM    165  O   UNL     1     -11.571   5.891  21.690  0.00  0.00    -0.391 OA
ATOM    166  H   UNL     1     -10.735   5.937  21.181  0.00  0.00    +0.210 HD
ENDBRANCH  41 165
BRANCH  39 167
ATOM    167  O   UNL     1     -10.306   5.412  24.327  0.00  0.00    -0.391 OA
ATOM    168  H   UNL     1     -10.146   5.167  25.259  0.00  0.00    +0.210 HD
ENDBRANCH  39 167
BRANCH  31 169
ATOM    169  O   UNL     1     -11.111  14.334  29.475  0.00  0.00    -0.391 OA
ATOM    170  H   UNL     1     -12.005  14.634  29.235  0.00  0.00    +0.210 HD
ENDBRANCH  31 169
BRANCH  22 171
ATOM    171  C   UNL     1      -5.491  13.778  20.155  0.00  0.00    +0.020 C 
ATOM    172  H   UNL     1      -4.642  13.923  19.478  0.00  0.00    +0.036 HD
BRANCH 171 173
ATOM    173  C   UNL     1      -4.965  13.202  21.472  0.00  0.00    -0.057 C 
ATOM    174  H   UNL     1      -4.128  12.523  21.297  0.00  0.00    +0.023 HD
ATOM    175  H   UNL     1      -5.740  12.647  22.010  0.00  0.00    +0.023 HD
ATOM    176  H   UNL     1      -4.623  13.989  22.150  0.00  0.00    +0.023 HD
ENDBRANCH 171 173
BRANCH 171 177
ATOM    177  C   UNL     1      -6.463  12.797  19.448  0.00  0.00    +0.064 C 
ATOM    178  H   UNL     1      -6.901  12.131  20.199  0.00  0.00    +0.060 HD
BRANCH 177 179
ATOM    179  O   UNL     1      -7.524  13.570  18.883  0.00  0.00    -0.391 OA
ATOM    180  H   UNL     1      -7.430  14.478  19.250  0.00  0.00    +0.210 HD
ENDBRANCH 177 179
BRANCH 177 181
ATOM    181  C   UNL     1      -5.869  11.883  18.339  0.00  0.00    -0.017 C 
ATOM    182  H   UNL     1      -6.477  12.014  17.433  0.00  0.00    +0.032 HD
BRANCH 181 183
ATOM    183  C   UNL     1      -4.446  12.361  17.997  0.00  0.00    -0.060 C 
ATOM    184  H   UNL     1      -3.867  11.575  17.500  0.00  0.00    +0.023 HD
ATOM    185  H   UNL     1      -4.460  13.237  17.343  0.00  0.00    +0.023 HD
ATOM    186  H   UNL     1      -3.904  12.650  18.899  0.00  0.00    +0.023 HD
ENDBRANCH 181 183
BRANCH 181 187
ATOM    187  C   UNL     1      -5.849  10.380  18.702  0.00  0.00    -0.046 C 
ATOM    188  H   UNL     1      -6.591  10.171  19.480  0.00  0.00    +0.027 HD
ATOM    189  H   UNL     1      -4.870  10.118  19.122  0.00  0.00    +0.027 HD
BRANCH 187 190
ATOM    190  C   UNL     1      -6.166   9.478  17.497  0.00  0.00    -0.026 C 
ATOM    191  H   UNL     1      -5.376   9.582  16.748  0.00  0.00    +0.029 HD
ATOM    192  H   UNL     1      -7.092   9.824  17.024  0.00  0.00    +0.029 HD
BRANCH 190 193
ATOM    193  C   UNL     1      -6.321   7.995  17.881  0.00  0.00    +0.061 C 
ATOM    194  O   UNL     1      -6.888   7.211  16.827  0.00  0.00    -0.373 OA
ATOM    195  C   UNL     1      -8.266   7.476  16.554  0.00  0.00    +0.059 C 
ATOM    196  C   UNL     1      -9.126   7.239  17.794  0.00  0.00    -0.000 C 
ATOM    197  C   UNL     1      -8.612   8.058  18.978  0.00  0.00    +0.063 C 
ATOM    198  C   UNL     1      -7.117   7.800  19.172  0.00  0.00    -0.000 C 
ATOM    199  H   UNL     1      -5.314   7.594  18.049  0.00  0.00    +0.060 HD
ATOM    200  H   UNL     1      -8.375   8.509  16.206  0.00  0.00    +0.059 HD
ATOM    201  H   UNL     1      -9.113   6.176  18.068  0.00  0.00    +0.032 HD
ATOM    202  H   UNL     1     -10.171   7.487  17.576  0.00  0.00    +0.032 HD
ATOM    203  H   UNL     1      -8.772   9.128  18.796  0.00  0.00    +0.060 HD
ATOM    204  H   UNL     1      -6.989   6.764  19.517  0.00  0.00    +0.032 HD
ATOM    205  H   UNL     1      -6.726   8.431  19.980  0.00  0.00    +0.032 HD
BRANCH 195 206
ATOM    206  C   UNL     1      -8.689   6.553  15.416  0.00  0.00    -0.039 C 
ATOM    207  H   UNL     1      -9.750   6.695  15.185  0.00  0.00    +0.025 HD
ATOM    208  H   UNL     1      -8.525   5.503  15.677  0.00  0.00    +0.025 HD
ATOM    209  H   UNL     1      -8.134   6.781  14.500  0.00  0.00    +0.025 HD
ENDBRANCH 195 206
BRANCH 197 210
ATOM    210  O   UNL     1      -9.268   7.690  20.198  0.00  0.00    -0.380 OA
BRANCH 210 211
ATOM    211  C   UNL     1      -8.742   8.336  21.350  0.00  0.00    +0.037 C 
ATOM    212  H   UNL     1      -9.451   9.110  21.658  0.00  0.00    +0.052 HD
ATOM    213  H   UNL     1      -7.788   8.820  21.126  0.00  0.00    +0.052 HD
ATOM    214  H   UNL     1      -8.623   7.625  22.173  0.00  0.00    +0.052 HD
ENDBRANCH 210 211
ENDBRANCH 197 210
ENDBRANCH 190 193
ENDBRANCH 187 190
ENDBRANCH 181 187
ENDBRANCH 177 181
ENDBRANCH 171 177
ENDBRANCH  22 171
BRANCH  20 215
ATOM    215  O   UNL     1      -6.266  18.046  21.556  0.00  0.00    -0.391 OA
ATOM    216  H   UNL     1      -5.632  18.697  21.908  0.00  0.00    +0.210 HD
ENDBRANCH  20 215
BRANCH  18 217
ATOM    217  O   UNL     1      -8.123  19.756  20.708  0.00  0.00    -0.391 OA
ATOM    218  H   UNL     1      -9.047  19.437  20.759  0.00  0.00    +0.210 HD
ENDBRANCH  18 217
BRANCH  10 219
ATOM    219  O   UNL     1     -10.768  14.469  13.120  0.00  0.00    -0.391 OA
ATOM    220  H   UNL     1     -10.222  15.081  13.647  0.00  0.00    +0.210 HD
ENDBRANCH  10 219
BRANCH  37 221
ATOM    221  O   UNL     1     -10.864   6.365  27.615  0.00  0.00    -0.379 OA
BRANCH 221 222
ATOM    222  C   UNL     1     -11.741   5.246  27.603  0.00  0.00    +0.037 C 
ATOM    223  H   UNL     1     -11.922   4.950  28.640  0.00  0.00    +0.052 HD
ATOM    224  H   UNL     1     -12.701   5.504  27.152  0.00  0.00    +0.052 HD
ATOM    225  H   UNL     1     -11.289   4.403  27.074  0.00  0.00    +0.052 HD
ENDBRANCH 221 222
ENDBRANCH  37 221
BRANCH  16 226
ATOM    226  O   UNL     1     -11.204  19.868  18.897  0.00  0.00    -0.379 OA
BRANCH 226 227
ATOM    227  C   UNL     1     -11.680  19.782  20.235  0.00  0.00    +0.037 C 
ATOM    228  H   UNL     1     -12.607  20.348  20.372  0.00  0.00    +0.052 HD
ATOM    229  H   UNL     1     -10.910  20.150  20.922  0.00  0.00    +0.052 HD
ATOM    230  H   UNL     1     -11.879  18.730  20.465  0.00  0.00    +0.052 HD
ENDBRANCH 226 227
ENDBRANCH  16 226
TORSDOF 40
ENDMDL
MODEL 2
REMARK VINA RESULT:      -4.2      2.363      8.452
REMARK  Name = Swinholide A_conf1
REMARK  40 active torsions:
REMARK  status: ('A' for Active; 'I' for Inactive)
REMARK    1  A    between atoms: C_1  and  C_2
REMARK    2  A    between atoms: C_4  and  C_10
REMARK    3  A    between atoms: C_6  and  O_8
REMARK    4  A    between atoms: O_8  and  C_9
REMARK    5  A    between atoms: C_10  and  C_11
REMARK    6  A    between atoms: C_11  and  C_12
REMARK    7  A    between atoms: C_12  and  C_13
REMARK    8  A    between atoms: C_12  and  C_98
REMARK    9  A    between atoms: C_13  and  O_14
REMARK   10  A    between atoms: C_13  and  C_15
REMARK   11  A    between atoms: C_15  and  C_16
REMARK   12  A    between atoms: C_15  and  C_97
REMARK   13  A    between atoms: C_22  and  C_96
REMARK   14  A    between atoms: C_25  and  O_95
REMARK   15  A    between atoms: C_31  and  O_90
REMARK   16  A    between atoms: C_32  and  C_89
REMARK   17  A    between atoms: C_33  and  O_88
REMARK   18  A    between atoms: C_35  and  O_87
REMARK   19  A    between atoms: C_36  and  C_86
REMARK   20  A    between atoms: C_37  and  C_69
REMARK   21  A    between atoms: C_43  and  C_68
REMARK   22  A    between atoms: C_46  and  O_67
REMARK   23  A    between atoms: C_52  and  O_62
REMARK   24  A    between atoms: C_53  and  C_61
REMARK   25  A    between atoms: C_54  and  O_60
REMARK   26  A    between atoms: C_56  and  O_59
REMARK   27  A    between atoms: C_57  and  C_58
REMARK   28  A    between atoms: O_62  and  C_63
REMARK   29  A    between atoms: C_69  and  C_70
REMARK   30  A    between atoms: C_69  and  C_85
REMARK   31  A    between atoms: C_70  and  O_71
REMARK   32  A    between atoms: C_70  and  C_72
REMARK   33  A    between atoms: C_72  and  C_73
REMARK   34  A    between atoms: C_72  and  C_84
REMARK   35  A    between atoms: C_73  and  C_74
REMARK   36  A    between atoms: C_74  and  C_75
REMARK   37  A    between atoms: C_77  and  C_83
REMARK   38  A    between atoms: C_79  and  O_81
REMARK   39  A    between atoms: O_81  and  C_82
REMARK   40  A    between atoms: O_90  and  C_91
REMARK                            x       y       z     vdW  Elec       q    Type
REMARK                         _______ _______ _______ _____ _____    ______ ____
ROOT
ATOM      1  C   UNL     1     -11.002   9.340  25.007  0.00  0.00    +0.113 C 
ATOM      2  O   UNL     1     -11.216  10.774  25.107  0.00  0.00    -0.458 OA
ATOM      3  C   UNL     1     -10.834  11.354  26.278  0.00  0.00    +0.332 C 
ATOM      4  O   UNL     1     -10.375  10.774  27.256  0.00  0.00    -0.246 OA
ATOM      5  C   UNL     1     -11.030  12.812  26.289  0.00  0.00    +0.023 C 
ATOM      6  C   UNL     1     -11.076  13.581  25.191  0.00  0.00    -0.052 C 
ATOM      7  C   UNL     1     -11.133  15.040  25.202  0.00  0.00    -0.054 C 
ATOM      8  C   UNL     1     -10.359  15.768  26.034  0.00  0.00    -0.079 C 
ATOM      9  C   UNL     1     -10.166  17.263  25.983  0.00  0.00    -0.008 C 
ATOM     10  C   UNL     1      -8.773  17.745  26.433  0.00  0.00    +0.061 C 
ATOM     11  C   UNL     1      -7.538  17.007  25.895  0.00  0.00    +0.003 C 
ATOM     12  C   UNL     1      -7.191  17.142  24.401  0.00  0.00    +0.080 C 
ATOM     13  O   UNL     1      -5.805  16.723  24.322  0.00  0.00    -0.369 OA
ATOM     14  C   UNL     1      -5.356  16.201  23.061  0.00  0.00    +0.065 C 
ATOM     15  C   UNL     1      -5.297  17.312  21.991  0.00  0.00    +0.000 C 
ATOM     16  C   UNL     1      -4.668  16.854  20.657  0.00  0.00    +0.066 C 
ATOM     17  C   UNL     1      -4.717  18.015  19.616  0.00  0.00    +0.009 C 
ATOM     18  C   UNL     1      -5.469  17.627  18.317  0.00  0.00    +0.063 C 
ATOM     19  C   UNL     1      -6.975  17.364  18.540  0.00  0.00    -0.000 C 
ATOM     20  C   UNL     1      -7.726  17.205  17.202  0.00  0.00    +0.064 C 
ATOM     21  C   UNL     1      -9.280  17.126  17.317  0.00  0.00    +0.020 C 
ATOM     22  C   UNL     1      -9.789  15.961  18.223  0.00  0.00    +0.113 C 
ATOM     23  O   UNL     1      -9.310  14.722  17.636  0.00  0.00    -0.458 OA
ATOM     24  C   UNL     1      -8.740  13.828  18.488  0.00  0.00    +0.332 C 
ATOM     25  O   UNL     1      -8.698  13.918  19.703  0.00  0.00    -0.246 OA
ATOM     26  C   UNL     1      -8.204  12.691  17.705  0.00  0.00    +0.023 C 
ATOM     27  C   UNL     1      -7.563  11.701  18.345  0.00  0.00    -0.052 C 
ATOM     28  C   UNL     1      -7.006  10.504  17.729  0.00  0.00    -0.054 C 
ATOM     29  C   UNL     1      -7.749   9.717  16.924  0.00  0.00    -0.079 C 
ATOM     30  C   UNL     1      -7.329   8.435  16.258  0.00  0.00    -0.008 C 
ATOM     31  C   UNL     1      -7.900   7.149  16.902  0.00  0.00    +0.061 C 
ATOM     32  C   UNL     1      -9.361   6.867  16.491  0.00  0.00    +0.003 C 
ATOM     33  C   UNL     1      -9.853   5.461  16.902  0.00  0.00    +0.080 C 
ATOM     34  O   UNL     1     -10.244   5.419  18.285  0.00  0.00    -0.369 OA
ATOM     35  C   UNL     1     -11.655   5.557  18.568  0.00  0.00    +0.065 C 
ATOM     36  C   UNL     1     -11.789   5.377  20.091  0.00  0.00    +0.000 C 
ATOM     37  C   UNL     1     -13.176   5.545  20.755  0.00  0.00    +0.066 C 
ATOM     38  C   UNL     1     -13.742   6.988  20.583  0.00  0.00    +0.009 C 
ATOM     39  C   UNL     1     -14.283   7.613  21.900  0.00  0.00    +0.063 C 
ATOM     40  C   UNL     1     -13.333   7.477  23.101  0.00  0.00    -0.000 C 
ATOM     41  C   UNL     1     -13.407   8.682  24.058  0.00  0.00    +0.064 C 
ATOM     42  C   UNL     1     -12.349   8.555  25.194  0.00  0.00    +0.020 C 
ATOM     43  C   UNL     1     -12.480   4.523  17.787  0.00  0.00    -0.008 C 
ATOM     44  C   UNL     1     -12.118   4.527  16.339  0.00  0.00    -0.083 C 
ATOM     45  C   UNL     1     -10.915   4.958  15.953  0.00  0.00    -0.059 C 
ATOM     46  C   UNL     1      -6.211  14.974  22.700  0.00  0.00    -0.008 C 
ATOM     47  C   UNL     1      -7.664  15.318  22.738  0.00  0.00    -0.083 C 
ATOM     48  C   UNL     1      -8.093  16.332  23.499  0.00  0.00    -0.059 C 
ATOM     49  H   UNL     1     -10.382   9.022  25.859  0.00  0.00    +0.074 HD
ATOM     50  H   UNL     1     -11.046  13.242  27.285  0.00  0.00    +0.069 HD
ATOM     51  H   UNL     1     -11.024  13.140  24.198  0.00  0.00    +0.062 HD
ATOM     52  H   UNL     1      -9.747  15.252  26.773  0.00  0.00    +0.058 HD
ATOM     53  H   UNL     1     -10.375  17.667  24.986  0.00  0.00    +0.033 HD
ATOM     54  H   UNL     1     -10.911  17.726  26.644  0.00  0.00    +0.033 HD
ATOM     55  H   UNL     1      -8.747  17.653  27.526  0.00  0.00    +0.060 HD
ATOM     56  H   UNL     1      -7.577  15.945  26.166  0.00  0.00    +0.032 HD
ATOM     57  H   UNL     1      -6.676  17.399  26.455  0.00  0.00    +0.032 HD
ATOM     58  H   UNL     1      -7.224  18.194  24.097  0.00  0.00    +0.064 HD
ATOM     59  H   UNL     1      -4.333  15.849  23.243  0.00  0.00    +0.060 HD
ATOM     60  H   UNL     1      -4.704  18.138  22.407  0.00  0.00    +0.032 HD
ATOM     61  H   UNL     1      -6.297  17.721  21.805  0.00  0.00    +0.032 HD
ATOM     62  H   UNL     1      -5.235  15.994  20.289  0.00  0.00    +0.060 HD
ATOM     63  H   UNL     1      -5.283  18.854  20.049  0.00  0.00    +0.035 HD
ATOM     64  H   UNL     1      -5.368  18.450  17.599  0.00  0.00    +0.060 HD
ATOM     65  H   UNL     1      -7.089  16.438  19.117  0.00  0.00    +0.032 HD
ATOM     66  H   UNL     1      -7.406  18.189  19.118  0.00  0.00    +0.032 HD
ATOM     67  H   UNL     1      -7.483  18.063  16.561  0.00  0.00    +0.060 HD
ATOM     68  H   UNL     1      -9.636  16.930  16.297  0.00  0.00    +0.036 HD
ATOM     69  H   UNL     1      -9.345  16.116  19.213  0.00  0.00    +0.074 HD
ATOM     70  H   UNL     1      -8.348  12.701  16.634  0.00  0.00    +0.069 HD
ATOM     71  H   UNL     1      -7.426  11.767  19.425  0.00  0.00    +0.062 HD
ATOM     72  H   UNL     1      -8.770  10.015  16.696  0.00  0.00    +0.058 HD
ATOM     73  H   UNL     1      -7.629   8.479  15.202  0.00  0.00    +0.033 HD
ATOM     74  H   UNL     1      -6.236   8.363  16.213  0.00  0.00    +0.033 HD
ATOM     75  H   UNL     1      -7.825   7.190  17.994  0.00  0.00    +0.060 HD
ATOM     76  H   UNL     1      -9.417   6.956  15.398  0.00  0.00    +0.032 HD
ATOM     77  H   UNL     1     -10.013   7.637  16.919  0.00  0.00    +0.032 HD
ATOM     78  H   UNL     1      -9.027   4.746  16.818  0.00  0.00    +0.064 HD
ATOM     79  H   UNL     1     -11.949   6.572  18.284  0.00  0.00    +0.060 HD
ATOM     80  H   UNL     1     -11.095   6.081  20.574  0.00  0.00    +0.032 HD
ATOM     81  H   UNL     1     -11.389   4.388  20.347  0.00  0.00    +0.032 HD
ATOM     82  H   UNL     1     -13.010   5.359  21.820  0.00  0.00    +0.060 HD
ATOM     83  H   UNL     1     -12.908   7.636  20.292  0.00  0.00    +0.035 HD
ATOM     84  H   UNL     1     -14.454   8.678  21.694  0.00  0.00    +0.060 HD
ATOM     85  H   UNL     1     -13.602   6.574  23.666  0.00  0.00    +0.032 HD
ATOM     86  H   UNL     1     -12.313   7.343  22.752  0.00  0.00    +0.032 HD
ATOM     87  H   UNL     1     -13.263   9.622  23.516  0.00  0.00    +0.060 HD
ATOM     88  H   UNL     1     -12.080   7.493  25.280  0.00  0.00    +0.036 HD
ATOM     89  H   UNL     1     -13.550   4.737  17.880  0.00  0.00    +0.033 HD
ATOM     90  H   UNL     1     -12.305   3.512  18.172  0.00  0.00    +0.033 HD
ATOM     91  H   UNL     1     -12.831   4.134  15.620  0.00  0.00    +0.057 HD
ATOM     92  H   UNL     1     -10.653   4.920  14.897  0.00  0.00    +0.059 HD
ATOM     93  H   UNL     1      -6.040  14.175  23.432  0.00  0.00    +0.033 HD
ATOM     94  H   UNL     1      -5.942  14.574  21.720  0.00  0.00    +0.033 HD
ATOM     95  H   UNL     1      -8.357  14.745  22.129  0.00  0.00    +0.057 HD
ATOM     96  H   UNL     1      -9.143  16.600  23.461  0.00  0.00    +0.059 HD
ENDROOT
BRANCH  28  97
ATOM     97  C   UNL     1      -5.596  10.202  18.169  0.00  0.00    -0.040 C 
ATOM     98  H   UNL     1      -5.177   9.367  17.595  0.00  0.00    +0.028 HD
ATOM     99  H   UNL     1      -5.585   9.927  19.230  0.00  0.00    +0.028 HD
ATOM    100  H   UNL     1      -4.911  11.043  18.036  0.00  0.00    +0.028 HD
ENDBRANCH  28  97
BRANCH  21 101
ATOM    101  C   UNL     1      -9.836  18.486  17.754  0.00  0.00    -0.057 C 
ATOM    102  H   UNL     1     -10.730  18.760  17.184  0.00  0.00    +0.023 HD
ATOM    103  H   UNL     1      -9.094  19.280  17.619  0.00  0.00    +0.023 HD
ATOM    104  H   UNL     1     -10.099  18.481  18.817  0.00  0.00    +0.023 HD
ENDBRANCH  21 101
BRANCH  42 105
ATOM    105  C   UNL     1     -12.957   8.926  26.568  0.00  0.00    -0.057 C 
ATOM    106  H   UNL     1     -12.173   9.117  27.308  0.00  0.00    +0.023 HD
ATOM    107  H   UNL     1     -13.594   9.816  26.501  0.00  0.00    +0.023 HD
ATOM    108  H   UNL     1     -13.563   8.104  26.966  0.00  0.00    +0.023 HD
ENDBRANCH  42 105
BRANCH  17 109
ATOM    109  C   UNL     1      -3.330  18.576  19.270  0.00  0.00    -0.058 C 
ATOM    110  H   UNL     1      -3.388  19.570  18.818  0.00  0.00    +0.023 HD
ATOM    111  H   UNL     1      -2.714  18.660  20.173  0.00  0.00    +0.023 HD
ATOM    112  H   UNL     1      -2.802  17.910  18.579  0.00  0.00    +0.023 HD
ENDBRANCH  17 109
BRANCH  38 113
ATOM    113  C   UNL     1     -14.812   7.095  19.483  0.00  0.00    -0.058 C 
ATOM    114  H   UNL     1     -14.558   7.850  18.730  0.00  0.00    +0.023 HD
ATOM    115  H   UNL     1     -15.789   7.353  19.901  0.00  0.00    +0.023 HD
ATOM    116  H   UNL     1     -14.921   6.140  18.956  0.00  0.00    +0.023 HD
ENDBRANCH  38 113
BRANCH   7 117
ATOM    117  C   UNL     1     -12.029  15.626  24.148  0.00  0.00    -0.040 C 
ATOM    118  H   UNL     1     -13.023  15.837  24.559  0.00  0.00    +0.028 HD
ATOM    119  H   UNL     1     -12.138  14.929  23.315  0.00  0.00    +0.028 HD
ATOM    120  H   UNL     1     -11.651  16.572  23.755  0.00  0.00    +0.028 HD
ENDBRANCH   7 117
BRANCH   1 121
ATOM    121  C   UNL     1     -10.071   9.049  23.771  0.00  0.00    +0.020 C 
ATOM    122  H   UNL     1      -9.191   9.689  23.948  0.00  0.00    +0.036 HD
BRANCH 121 123
ATOM    123  C   UNL     1      -9.595   7.586  23.842  0.00  0.00    -0.057 C 
ATOM    124  H   UNL     1     -10.245   6.932  23.255  0.00  0.00    +0.023 HD
ATOM    125  H   UNL     1      -9.570   7.206  24.864  0.00  0.00    +0.023 HD
ATOM    126  H   UNL     1      -8.598   7.456  23.411  0.00  0.00    +0.023 HD
ENDBRANCH 121 123
BRANCH 121 127
ATOM    127  C   UNL     1     -10.597   9.479  22.360  0.00  0.00    +0.064 C 
ATOM    128  H   UNL     1     -11.403   8.808  22.077  0.00  0.00    +0.060 HD
BRANCH 127 129
ATOM    129  C   UNL     1      -9.597   9.536  21.157  0.00  0.00    -0.017 C 
ATOM    130  H   UNL     1      -8.785  10.224  21.428  0.00  0.00    +0.032 HD
BRANCH 129 131
ATOM    131  C   UNL     1      -8.931   8.218  20.763  0.00  0.00    -0.060 C 
ATOM    132  H   UNL     1      -9.624   7.380  20.877  0.00  0.00    +0.023 HD
ATOM    133  H   UNL     1      -8.542   8.248  19.743  0.00  0.00    +0.023 HD
ATOM    134  H   UNL     1      -8.085   7.998  21.428  0.00  0.00    +0.023 HD
ENDBRANCH 129 131
BRANCH 129 135
ATOM    135  C   UNL     1     -10.287  10.113  19.885  0.00  0.00    -0.046 C 
ATOM    136  H   UNL     1      -9.590  10.771  19.354  0.00  0.00    +0.027 HD
ATOM    137  H   UNL     1     -11.115  10.756  20.193  0.00  0.00    +0.027 HD
BRANCH 135 138
ATOM    138  C   UNL     1     -10.846   9.055  18.932  0.00  0.00    -0.026 C 
ATOM    139  H   UNL     1     -11.551   8.419  19.473  0.00  0.00    +0.029 HD
ATOM    140  H   UNL     1     -10.041   8.395  18.600  0.00  0.00    +0.029 HD
BRANCH 138 143
ATOM    141  C   UNL     1     -11.502  11.585  16.266  0.00  0.00    +0.059 C 
ATOM    142  O   UNL     1     -11.067  10.995  17.501  0.00  0.00    -0.373 OA
ATOM    143  C   UNL     1     -11.543   9.661  17.702  0.00  0.00    +0.061 C 
ATOM    144  C   UNL     1     -13.063   9.684  17.866  0.00  0.00    -0.000 C 
ATOM    145  C   UNL     1     -13.735  10.778  17.027  0.00  0.00    +0.063 C 
ATOM    146  C   UNL     1     -12.877  11.094  15.811  0.00  0.00    -0.000 C 
ATOM    147  H   UNL     1     -11.573  12.661  16.467  0.00  0.00    +0.059 HD
ATOM    148  H   UNL     1     -11.276   9.074  16.817  0.00  0.00    +0.060 HD
ATOM    149  H   UNL     1     -13.465   8.698  17.619  0.00  0.00    +0.032 HD
ATOM    150  H   UNL     1     -13.338   9.864  18.912  0.00  0.00    +0.032 HD
ATOM    151  H   UNL     1     -13.849  11.676  17.649  0.00  0.00    +0.060 HD
ATOM    152  H   UNL     1     -12.795  10.192  15.190  0.00  0.00    +0.032 HD
ATOM    153  H   UNL     1     -13.341  11.847  15.164  0.00  0.00    +0.032 HD
BRANCH 141 154
ATOM    154  C   UNL     1     -10.446  11.380  15.186  0.00  0.00    -0.039 C 
ATOM    155  H   UNL     1     -10.690  11.940  14.279  0.00  0.00    +0.025 HD
ATOM    156  H   UNL     1      -9.459  11.701  15.537  0.00  0.00    +0.025 HD
ATOM    157  H   UNL     1     -10.386  10.326  14.900  0.00  0.00    +0.025 HD
ENDBRANCH 141 154
BRANCH 145 158
ATOM    158  O   UNL     1     -15.031  10.296  16.657  0.00  0.00    -0.380 OA
BRANCH 158 159
ATOM    159  C   UNL     1     -15.892  11.306  16.147  0.00  0.00    +0.037 C 
ATOM    160  H   UNL     1     -16.770  11.365  16.796  0.00  0.00    +0.052 HD
ATOM    161  H   UNL     1     -16.233  11.050  15.139  0.00  0.00    +0.052 HD
ATOM    162  H   UNL     1     -15.398  12.283  16.140  0.00  0.00    +0.052 HD
ENDBRANCH 158 159
ENDBRANCH 145 158
ENDBRANCH 138 143
ENDBRANCH 135 138
ENDBRANCH 129 135
ENDBRANCH 127 129
BRANCH 127 163
ATOM    163  O   UNL     1     -11.193  10.783  22.407  0.00  0.00    -0.391 OA
ATOM    164  H   UNL     1     -10.655  11.399  21.883  0.00  0.00    +0.210 HD
ENDBRANCH 127 163
ENDBRANCH 121 127
ENDBRANCH   1 121
BRANCH  41 165
ATOM    165  O   UNL     1     -14.727   8.723  24.609  0.00  0.00    -0.391 OA
ATOM    166  H   UNL     1     -15.379   8.624  23.885  0.00  0.00    +0.210 HD
ENDBRANCH  41 165
BRANCH  39 167
ATOM    167  O   UNL     1     -15.548   7.077  22.285  0.00  0.00    -0.391 OA
ATOM    168  H   UNL     1     -15.424   6.571  23.111  0.00  0.00    +0.210 HD
ENDBRANCH  39 167
BRANCH  31 169
ATOM    169  O   UNL     1      -7.080   6.060  16.452  0.00  0.00    -0.391 OA
ATOM    170  H   UNL     1      -7.504   5.688  15.659  0.00  0.00    +0.210 HD
ENDBRANCH  31 169
BRANCH  22 171
ATOM    171  C   UNL     1     -11.348  15.897  18.394  0.00  0.00    +0.020 C 
ATOM    172  H   UNL     1     -11.721  16.917  18.250  0.00  0.00    +0.036 HD
BRANCH 171 173
ATOM    173  C   UNL     1     -12.001  14.992  17.346  0.00  0.00    -0.057 C 
ATOM    174  H   UNL     1     -12.641  14.244  17.818  0.00  0.00    +0.023 HD
ATOM    175  H   UNL     1     -11.255  14.464  16.745  0.00  0.00    +0.023 HD
ATOM    176  H   UNL     1     -12.614  15.563  16.644  0.00  0.00    +0.023 HD
ENDBRANCH 171 173
BRANCH 171 177
ATOM    177  C   UNL     1     -11.737  15.479  19.837  0.00  0.00    +0.064 C 
ATOM    178  H   UNL     1     -11.854  14.391  19.869  0.00  0.00    +0.060 HD
BRANCH 177 179
ATOM    179  O   UNL     1     -10.649  15.824  20.696  0.00  0.00    -0.391 OA
ATOM    180  H   UNL     1     -10.953  16.591  21.232  0.00  0.00    +0.210 HD
ENDBRANCH 177 179
BRANCH 177 181
ATOM    181  C   UNL     1     -13.045  16.082  20.423  0.00  0.00    -0.017 C 
ATOM    182  H   UNL     1     -12.867  16.304  21.484  0.00  0.00    +0.032 HD
BRANCH 181 183
ATOM    183  C   UNL     1     -13.340  17.424  19.728  0.00  0.00    -0.060 C 
ATOM    184  H   UNL     1     -14.417  17.613  19.663  0.00  0.00    +0.023 HD
ATOM    185  H   UNL     1     -12.879  18.263  20.257  0.00  0.00    +0.023 HD
ATOM    186  H   UNL     1     -12.941  17.434  18.713  0.00  0.00    +0.023 HD
ENDBRANCH 181 183
BRANCH 181 187
ATOM    187  C   UNL     1     -14.274  15.150  20.316  0.00  0.00    -0.046 C 
ATOM    188  H   UNL     1     -14.077  14.349  19.596  0.00  0.00    +0.027 HD
ATOM    189  H   UNL     1     -15.131  15.717  19.932  0.00  0.00    +0.027 HD
BRANCH 187 190
ATOM    190  C   UNL     1     -14.635  14.494  21.660  0.00  0.00    -0.026 C 
ATOM    191  H   UNL     1     -15.718  14.370  21.724  0.00  0.00    +0.029 HD
ATOM    192  H   UNL     1     -14.348  15.168  22.476  0.00  0.00    +0.029 HD
BRANCH 190 193
ATOM    193  C   UNL     1     -13.946  13.133  21.868  0.00  0.00    +0.061 C 
ATOM    194  O   UNL     1     -14.378  12.149  20.924  0.00  0.00    -0.373 OA
ATOM    195  C   UNL     1     -15.725  11.701  21.093  0.00  0.00    +0.059 C 
ATOM    196  C   UNL     1     -15.933  11.102  22.483  0.00  0.00    -0.000 C 
ATOM    197  C   UNL     1     -15.521  12.094  23.571  0.00  0.00    +0.063 C 
ATOM    198  C   UNL     1     -14.105  12.602  23.294  0.00  0.00    -0.000 C 
ATOM    199  H   UNL     1     -12.875  13.277  21.687  0.00  0.00    +0.060 HD
ATOM    200  H   UNL     1     -16.410  12.542  20.934  0.00  0.00    +0.059 HD
ATOM    201  H   UNL     1     -15.338  10.187  22.596  0.00  0.00    +0.032 HD
ATOM    202  H   UNL     1     -16.980  10.804  22.608  0.00  0.00    +0.032 HD
ATOM    203  H   UNL     1     -16.212  12.945  23.589  0.00  0.00    +0.060 HD
ATOM    204  H   UNL     1     -13.405  11.768  23.445  0.00  0.00    +0.032 HD
ATOM    205  H   UNL     1     -13.824  13.361  24.035  0.00  0.00    +0.032 HD
BRANCH 195 206
ATOM    206  C   UNL     1     -16.000  10.664  20.009  0.00  0.00    -0.039 C 
ATOM    207  H   UNL     1     -17.063  10.405  19.992  0.00  0.00    +0.025 HD
ATOM    208  H   UNL     1     -15.419   9.752  20.179  0.00  0.00    +0.025 HD
ATOM    209  H   UNL     1     -15.755  11.060  19.018  0.00  0.00    +0.025 HD
ENDBRANCH 195 206
BRANCH 197 210
ATOM    210  O   UNL     1     -15.506  11.480  24.866  0.00  0.00    -0.380 OA
BRANCH 210 211
ATOM    211  C   UNL     1     -14.661  12.137  25.803  0.00  0.00    +0.037 C 
ATOM    212  H   UNL     1     -13.827  11.467  26.034  0.00  0.00    +0.052 HD
ATOM    213  H   UNL     1     -15.197  12.345  26.733  0.00  0.00    +0.052 HD
ATOM    214  H   UNL     1     -14.259  13.062  25.380  0.00  0.00    +0.052 HD
ENDBRANCH 210 211
ENDBRANCH 197 210
ENDBRANCH 190 193
ENDBRANCH 187 190
ENDBRANCH 181 187
ENDBRANCH 177 181
ENDBRANCH 171 177
ENDBRANCH  22 171
BRANCH  20 215
ATOM    215  O   UNL     1      -7.192  16.057  16.527  0.00  0.00    -0.391 OA
ATOM    216  H   UNL     1      -7.100  15.345  17.186  0.00  0.00    +0.210 HD
ENDBRANCH  20 215
BRANCH  18 217
ATOM    217  O   UNL     1      -4.852  16.481  17.725  0.00  0.00    -0.391 OA
ATOM    218  H   UNL     1      -3.950  16.427  18.101  0.00  0.00    +0.210 HD
ENDBRANCH  18 217
BRANCH  10 219
ATOM    219  O   UNL     1      -8.665  19.142  26.145  0.00  0.00    -0.391 OA
ATOM    220  H   UNL     1      -8.983  19.625  26.930  0.00  0.00    +0.210 HD
ENDBRANCH  10 219
BRANCH  37 221
ATOM    221  O   UNL     1     -14.143   4.586  20.322  0.00  0.00    -0.379 OA
BRANCH 221 222
ATOM    222  C   UNL     1     -14.615   3.724  21.349  0.00  0.00    +0.037 C 
ATOM    223  H   UNL     1     -15.704   3.662  21.263  0.00  0.00    +0.052 HD
ATOM    224  H   UNL     1     -14.209   2.717  21.235  0.00  0.00    +0.052 HD
ATOM    225  H   UNL     1     -14.367   4.123  22.337  0.00  0.00    +0.052 HD
ENDBRANCH 221 222
ENDBRANCH  37 221
BRANCH  16 226
ATOM    226  O   UNL     1      -3.320  16.457  20.955  0.00  0.00    -0.379 OA
BRANCH 226 227
ATOM    227  C   UNL     1      -3.024  15.138  20.512  0.00  0.00    +0.037 C 
ATOM    228  H   UNL     1      -3.932  14.544  20.375  0.00  0.00    +0.052 HD
ATOM    229  H   UNL     1      -2.360  14.649  21.234  0.00  0.00    +0.052 HD
ATOM    230  H   UNL     1      -2.505  15.205  19.550  0.00  0.00    +0.052 HD
ENDBRANCH 226 227
ENDBRANCH  16 226
TORSDOF 40
ENDMDL
MODEL 3
REMARK VINA RESULT:      -4.0      2.346      8.969
REMARK  Name = Swinholide A_conf1
REMARK  40 active torsions:
REMARK  status: ('A' for Active; 'I' for Inactive)
REMARK    1  A    between atoms: C_1  and  C_2
REMARK    2  A    between atoms: C_4  and  C_10
REMARK    3  A    between atoms: C_6  and  O_8
REMARK    4  A    between atoms: O_8  and  C_9
REMARK    5  A    between atoms: C_10  and  C_11
REMARK    6  A    between atoms: C_11  and  C_12
REMARK    7  A    between atoms: C_12  and  C_13
REMARK    8  A    between atoms: C_12  and  C_98
REMARK    9  A    between atoms: C_13  and  O_14
REMARK   10  A    between atoms: C_13  and  C_15
REMARK   11  A    between atoms: C_15  and  C_16
REMARK   12  A    between atoms: C_15  and  C_97
REMARK   13  A    between atoms: C_22  and  C_96
REMARK   14  A    between atoms: C_25  and  O_95
REMARK   15  A    between atoms: C_31  and  O_90
REMARK   16  A    between atoms: C_32  and  C_89
REMARK   17  A    between atoms: C_33  and  O_88
REMARK   18  A    between atoms: C_35  and  O_87
REMARK   19  A    between atoms: C_36  and  C_86
REMARK   20  A    between atoms: C_37  and  C_69
REMARK   21  A    between atoms: C_43  and  C_68
REMARK   22  A    between atoms: C_46  and  O_67
REMARK   23  A    between atoms: C_52  and  O_62
REMARK   24  A    between atoms: C_53  and  C_61
REMARK   25  A    between atoms: C_54  and  O_60
REMARK   26  A    between atoms: C_56  and  O_59
REMARK   27  A    between atoms: C_57  and  C_58
REMARK   28  A    between atoms: O_62  and  C_63
REMARK   29  A    between atoms: C_69  and  C_70
REMARK   30  A    between atoms: C_69  and  C_85
REMARK   31  A    between atoms: C_70  and  O_71
REMARK   32  A    between atoms: C_70  and  C_72
REMARK   33  A    between atoms: C_72  and  C_73
REMARK   34  A    between atoms: C_72  and  C_84
REMARK   35  A    between atoms: C_73  and  C_74
REMARK   36  A    between atoms: C_74  and  C_75
REMARK   37  A    between atoms: C_77  and  C_83
REMARK   38  A    between atoms: C_79  and  O_81
REMARK   39  A    between atoms: O_81  and  C_82
REMARK   40  A    between atoms: O_90  and  C_91
REMARK                            x       y       z     vdW  Elec       q    Type
REMARK                         _______ _______ _______ _____ _____    ______ ____
ROOT
ATOM      1  C   UNL     1     -11.003   9.342  24.998  0.00  0.00    +0.113 C 
ATOM      2  O   UNL     1     -11.217  10.777  25.097  0.00  0.00    -0.458 OA
ATOM      3  C   UNL     1     -10.837  11.358  26.268  0.00  0.00    +0.332 C 
ATOM      4  O   UNL     1     -10.380  10.778  27.247  0.00  0.00    -0.246 OA
ATOM      5  C   UNL     1     -11.033  12.815  26.277  0.00  0.00    +0.023 C 
ATOM      6  C   UNL     1     -11.077  13.584  25.179  0.00  0.00    -0.052 C 
ATOM      7  C   UNL     1     -11.133  15.042  25.189  0.00  0.00    -0.054 C 
ATOM      8  C   UNL     1     -10.360  15.771  26.021  0.00  0.00    -0.079 C 
ATOM      9  C   UNL     1     -10.166  17.266  25.969  0.00  0.00    -0.008 C 
ATOM     10  C   UNL     1      -8.774  17.748  26.420  0.00  0.00    +0.061 C 
ATOM     11  C   UNL     1      -7.539  17.010  25.885  0.00  0.00    +0.003 C 
ATOM     12  C   UNL     1      -7.189  17.143  24.391  0.00  0.00    +0.080 C 
ATOM     13  O   UNL     1      -5.804  16.724  24.315  0.00  0.00    -0.369 OA
ATOM     14  C   UNL     1      -5.353  16.201  23.055  0.00  0.00    +0.065 C 
ATOM     15  C   UNL     1      -5.292  17.310  21.984  0.00  0.00    +0.000 C 
ATOM     16  C   UNL     1      -4.661  16.852  20.652  0.00  0.00    +0.066 C 
ATOM     17  C   UNL     1      -4.708  18.012  19.610  0.00  0.00    +0.009 C 
ATOM     18  C   UNL     1      -5.459  17.622  18.310  0.00  0.00    +0.063 C 
ATOM     19  C   UNL     1      -6.965  17.360  18.531  0.00  0.00    -0.000 C 
ATOM     20  C   UNL     1      -7.714  17.200  17.191  0.00  0.00    +0.064 C 
ATOM     21  C   UNL     1      -9.268  17.122  17.304  0.00  0.00    +0.020 C 
ATOM     22  C   UNL     1      -9.778  15.958  18.211  0.00  0.00    +0.113 C 
ATOM     23  O   UNL     1      -9.299  14.718  17.625  0.00  0.00    -0.458 OA
ATOM     24  C   UNL     1      -8.731  13.825  18.479  0.00  0.00    +0.332 C 
ATOM     25  O   UNL     1      -8.690  13.915  19.694  0.00  0.00    -0.246 OA
ATOM     26  C   UNL     1      -8.195  12.687  17.698  0.00  0.00    +0.023 C 
ATOM     27  C   UNL     1      -7.555  11.697  18.339  0.00  0.00    -0.052 C 
ATOM     28  C   UNL     1      -6.997  10.499  17.726  0.00  0.00    -0.054 C 
ATOM     29  C   UNL     1      -7.739   9.711  16.920  0.00  0.00    -0.079 C 
ATOM     30  C   UNL     1      -7.318   8.429  16.256  0.00  0.00    -0.008 C 
ATOM     31  C   UNL     1      -7.891   7.143  16.900  0.00  0.00    +0.061 C 
ATOM     32  C   UNL     1      -9.351   6.862  16.487  0.00  0.00    +0.003 C 
ATOM     33  C   UNL     1      -9.844   5.457  16.898  0.00  0.00    +0.080 C 
ATOM     34  O   UNL     1     -10.237   5.415  18.281  0.00  0.00    -0.369 OA
ATOM     35  C   UNL     1     -11.648   5.554  18.561  0.00  0.00    +0.065 C 
ATOM     36  C   UNL     1     -11.785   5.375  20.084  0.00  0.00    +0.000 C 
ATOM     37  C   UNL     1     -13.173   5.544  20.746  0.00  0.00    +0.066 C 
ATOM     38  C   UNL     1     -13.738   6.988  20.572  0.00  0.00    +0.009 C 
ATOM     39  C   UNL     1     -14.281   7.614  21.888  0.00  0.00    +0.063 C 
ATOM     40  C   UNL     1     -13.332   7.479  23.090  0.00  0.00    -0.000 C 
ATOM     41  C   UNL     1     -13.407   8.685  24.047  0.00  0.00    +0.064 C 
ATOM     42  C   UNL     1     -12.351   8.559  25.185  0.00  0.00    +0.020 C 
ATOM     43  C   UNL     1     -12.473   4.520  17.781  0.00  0.00    -0.008 C 
ATOM     44  C   UNL     1     -12.109   4.523  16.333  0.00  0.00    -0.083 C 
ATOM     45  C   UNL     1     -10.905   4.953  15.948  0.00  0.00    -0.059 C 
ATOM     46  C   UNL     1      -6.208  14.974  22.693  0.00  0.00    -0.008 C 
ATOM     47  C   UNL     1      -7.660  15.317  22.729  0.00  0.00    -0.083 C 
ATOM     48  C   UNL     1      -8.090  16.333  23.489  0.00  0.00    -0.059 C 
ATOM     49  H   UNL     1     -10.385   9.025  25.852  0.00  0.00    +0.074 HD
ATOM     50  H   UNL     1     -11.050  13.247  27.273  0.00  0.00    +0.069 HD
ATOM     51  H   UNL     1     -11.024  13.142  24.186  0.00  0.00    +0.062 HD
ATOM     52  H   UNL     1      -9.750  15.256  26.761  0.00  0.00    +0.058 HD
ATOM     53  H   UNL     1     -10.374  17.670  24.972  0.00  0.00    +0.033 HD
ATOM     54  H   UNL     1     -10.913  17.730  26.629  0.00  0.00    +0.033 HD
ATOM     55  H   UNL     1      -8.750  17.657  27.514  0.00  0.00    +0.060 HD
ATOM     56  H   UNL     1      -7.579  15.947  26.157  0.00  0.00    +0.032 HD
ATOM     57  H   UNL     1      -6.677  17.401  26.446  0.00  0.00    +0.032 HD
ATOM     58  H   UNL     1      -7.222  18.195  24.087  0.00  0.00    +0.064 HD
ATOM     59  H   UNL     1      -4.331  15.848  23.238  0.00  0.00    +0.060 HD
ATOM     60  H   UNL     1      -4.699  18.137  22.400  0.00  0.00    +0.032 HD
ATOM     61  H   UNL     1      -6.292  17.720  21.796  0.00  0.00    +0.032 HD
ATOM     62  H   UNL     1      -5.228  15.991  20.283  0.00  0.00    +0.060 HD
ATOM     63  H   UNL     1      -5.274  18.851  20.040  0.00  0.00    +0.035 HD
ATOM     64  H   UNL     1      -5.356  18.445  17.591  0.00  0.00    +0.060 HD
ATOM     65  H   UNL     1      -7.080  16.435  19.108  0.00  0.00    +0.032 HD
ATOM     66  H   UNL     1      -7.396  18.186  19.107  0.00  0.00    +0.032 HD
ATOM     67  H   UNL     1      -7.469  18.057  16.550  0.00  0.00    +0.060 HD
ATOM     68  H   UNL     1      -9.623  16.925  16.284  0.00  0.00    +0.036 HD
ATOM     69  H   UNL     1      -9.336  16.113  19.201  0.00  0.00    +0.074 HD
ATOM     70  H   UNL     1      -8.337  12.696  16.626  0.00  0.00    +0.069 HD
ATOM     71  H   UNL     1      -7.419  11.764  19.420  0.00  0.00    +0.062 HD
ATOM     72  H   UNL     1      -8.760  10.010  16.691  0.00  0.00    +0.058 HD
ATOM     73  H   UNL     1      -7.617   8.472  15.199  0.00  0.00    +0.033 HD
ATOM     74  H   UNL     1      -6.226   8.357  16.213  0.00  0.00    +0.033 HD
ATOM     75  H   UNL     1      -7.817   7.186  17.992  0.00  0.00    +0.060 HD
ATOM     76  H   UNL     1      -9.406   6.950  15.393  0.00  0.00    +0.032 HD
ATOM     77  H   UNL     1     -10.004   7.633  16.914  0.00  0.00    +0.032 HD
ATOM     78  H   UNL     1      -9.018   4.741  16.816  0.00  0.00    +0.064 HD
ATOM     79  H   UNL     1     -11.942   6.570  18.276  0.00  0.00    +0.060 HD
ATOM     80  H   UNL     1     -11.091   6.080  20.568  0.00  0.00    +0.032 HD
ATOM     81  H   UNL     1     -11.386   4.386  20.342  0.00  0.00    +0.032 HD
ATOM     82  H   UNL     1     -13.008   5.360  21.812  0.00  0.00    +0.060 HD
ATOM     83  H   UNL     1     -12.904   7.635  20.282  0.00  0.00    +0.035 HD
ATOM     84  H   UNL     1     -14.451   8.679  21.681  0.00  0.00    +0.060 HD
ATOM     85  H   UNL     1     -13.603   6.576  23.656  0.00  0.00    +0.032 HD
ATOM     86  H   UNL     1     -12.312   7.344  22.744  0.00  0.00    +0.032 HD
ATOM     87  H   UNL     1     -13.263   9.624  23.504  0.00  0.00    +0.060 HD
ATOM     88  H   UNL     1     -12.083   7.496  25.272  0.00  0.00    +0.036 HD
ATOM     89  H   UNL     1     -13.543   4.734  17.872  0.00  0.00    +0.033 HD
ATOM     90  H   UNL     1     -12.298   3.509  18.166  0.00  0.00    +0.033 HD
ATOM     91  H   UNL     1     -12.820   4.130  15.613  0.00  0.00    +0.057 HD
ATOM     92  H   UNL     1     -10.641   4.914  14.893  0.00  0.00    +0.059 HD
ATOM     93  H   UNL     1      -6.038  14.175  23.427  0.00  0.00    +0.033 HD
ATOM     94  H   UNL     1      -5.938  14.572  21.714  0.00  0.00    +0.033 HD
ATOM     95  H   UNL     1      -8.353  14.744  22.120  0.00  0.00    +0.057 HD
ATOM     96  H   UNL     1      -9.140  16.601  23.449  0.00  0.00    +0.059 HD
ENDROOT
BRANCH  28  97
ATOM     97  C   UNL     1      -5.588  10.197  18.168  0.00  0.00    -0.040 C 
ATOM     98  H   UNL     1      -5.578   9.418  18.939  0.00  0.00    +0.028 HD
ATOM     99  H   UNL     1      -5.125  11.098  18.587  0.00  0.00    +0.028 HD
ATOM    100  H   UNL     1      -4.947   9.839  17.359  0.00  0.00    +0.028 HD
ENDBRANCH  28  97
BRANCH  21 101
ATOM    101  C   UNL     1      -9.825  18.482  17.739  0.00  0.00    -0.057 C 
ATOM    102  H   UNL     1     -10.866  18.611  17.428  0.00  0.00    +0.023 HD
ATOM    103  H   UNL     1      -9.241  19.304  17.313  0.00  0.00    +0.023 HD
ATOM    104  H   UNL     1      -9.779  18.597  18.828  0.00  0.00    +0.023 HD
ENDBRANCH  21 101
BRANCH  42 105
ATOM    105  C   UNL     1     -12.961   8.931  26.557  0.00  0.00    -0.057 C 
ATOM    106  H   UNL     1     -13.855   9.553  26.436  0.00  0.00    +0.023 HD
ATOM    107  H   UNL     1     -13.235   8.039  27.132  0.00  0.00    +0.023 HD
ATOM    108  H   UNL     1     -12.256   9.518  27.156  0.00  0.00    +0.023 HD
ENDBRANCH  42 105
BRANCH  17 109
ATOM    109  C   UNL     1      -3.320  18.571  19.265  0.00  0.00    -0.058 C 
ATOM    110  H   UNL     1      -3.106  19.501  19.800  0.00  0.00    +0.023 HD
ATOM    111  H   UNL     1      -2.539  17.851  19.533  0.00  0.00    +0.023 HD
ATOM    112  H   UNL     1      -3.232  18.760  18.190  0.00  0.00    +0.023 HD
ENDBRANCH  17 109
BRANCH  38 113
ATOM    113  C   UNL     1     -14.806   7.095  19.471  0.00  0.00    -0.058 C 
ATOM    114  H   UNL     1     -15.817   6.913  19.854  0.00  0.00    +0.023 HD
ATOM    115  H   UNL     1     -14.619   6.380  18.664  0.00  0.00    +0.023 HD
ATOM    116  H   UNL     1     -14.806   8.098  19.029  0.00  0.00    +0.023 HD
ENDBRANCH  38 113
BRANCH   7 117
ATOM    117  C   UNL     1     -12.028  15.628  24.133  0.00  0.00    -0.040 C 
ATOM    118  H   UNL     1     -11.477  16.342  23.511  0.00  0.00    +0.028 HD
ATOM    119  H   UNL     1     -12.870  16.147  24.597  0.00  0.00    +0.028 HD
ATOM    120  H   UNL     1     -12.427  14.871  23.454  0.00  0.00    +0.028 HD
ENDBRANCH   7 117
BRANCH   1 121
ATOM    121  C   UNL     1     -10.071   9.051  23.764  0.00  0.00    +0.020 C 
ATOM    122  H   UNL     1      -9.190   9.687  23.944  0.00  0.00    +0.036 HD
BRANCH 121 123
ATOM    123  C   UNL     1      -9.599   7.586  23.834  0.00  0.00    -0.057 C 
ATOM    124  H   UNL     1      -9.816   7.057  22.903  0.00  0.00    +0.023 HD
ATOM    125  H   UNL     1     -10.071   7.037  24.651  0.00  0.00    +0.023 HD
ATOM    126  H   UNL     1      -8.515   7.508  23.960  0.00  0.00    +0.023 HD
ENDBRANCH 121 123
BRANCH 121 127
ATOM    127  C   UNL     1     -10.594   9.483  22.352  0.00  0.00    +0.064 C 
ATOM    128  H   UNL     1     -11.417   8.830  22.078  0.00  0.00    +0.060 HD
BRANCH 127 129
ATOM    129  C   UNL     1      -9.598   9.506  21.144  0.00  0.00    -0.017 C 
ATOM    130  H   UNL     1      -8.659   9.958  21.492  0.00  0.00    +0.032 HD
BRANCH 129 131
ATOM    131  C   UNL     1      -9.227   8.152  20.543  0.00  0.00    -0.060 C 
ATOM    132  H   UNL     1      -9.702   8.013  19.567  0.00  0.00    +0.023 HD
ATOM    133  H   UNL     1      -8.145   8.028  20.455  0.00  0.00    +0.023 HD
ATOM    134  H   UNL     1      -9.598   7.333  21.174  0.00  0.00    +0.023 HD
ENDBRANCH 129 131
BRANCH 129 135
ATOM    135  C   UNL     1     -10.143  10.400  19.990  0.00  0.00    -0.046 C 
ATOM    136  H   UNL     1      -9.340  11.043  19.612  0.00  0.00    +0.027 HD
ATOM    137  H   UNL     1     -10.894  11.081  20.396  0.00  0.00    +0.027 HD
BRANCH 135 138
ATOM    138  C   UNL     1     -10.786   9.626  18.839  0.00  0.00    -0.026 C 
ATOM    139  H   UNL     1     -11.257   8.720  19.231  0.00  0.00    +0.029 HD
ATOM    140  H   UNL     1     -10.014   9.285  18.145  0.00  0.00    +0.029 HD
BRANCH 138 143
ATOM    141  C   UNL     1     -14.101  10.372  17.292  0.00  0.00    +0.059 C 
ATOM    142  O   UNL     1     -12.986   9.644  17.830  0.00  0.00    -0.373 OA
ATOM    143  C   UNL     1     -11.830  10.452  18.068  0.00  0.00    +0.061 C 
ATOM    144  C   UNL     1     -11.281  10.956  16.733  0.00  0.00    -0.000 C 
ATOM    145  C   UNL     1     -12.381  11.217  15.697  0.00  0.00    +0.063 C 
ATOM    146  C   UNL     1     -13.688  11.547  16.406  0.00  0.00    -0.000 C 
ATOM    147  H   UNL     1     -14.647   9.651  16.671  0.00  0.00    +0.059 HD
ATOM    148  H   UNL     1     -12.138  11.302  18.686  0.00  0.00    +0.060 HD
ATOM    149  H   UNL     1     -10.685  11.856  16.908  0.00  0.00    +0.032 HD
ATOM    150  H   UNL     1     -10.592  10.224  16.295  0.00  0.00    +0.032 HD
ATOM    151  H   UNL     1     -12.506  10.315  15.084  0.00  0.00    +0.060 HD
ATOM    152  H   UNL     1     -13.550  12.464  16.995  0.00  0.00    +0.032 HD
ATOM    153  H   UNL     1     -14.492  11.777  15.699  0.00  0.00    +0.032 HD
BRANCH 141 154
ATOM    154  C   UNL     1     -15.030  10.816  18.418  0.00  0.00    -0.039 C 
ATOM    155  H   UNL     1     -15.543   9.963  18.870  0.00  0.00    +0.025 HD
ATOM    156  H   UNL     1     -14.472  11.341  19.201  0.00  0.00    +0.025 HD
ATOM    157  H   UNL     1     -15.805  11.486  18.036  0.00  0.00    +0.025 HD
ENDBRANCH 141 154
BRANCH 145 158
ATOM    158  O   UNL     1     -11.937  12.294  14.866  0.00  0.00    -0.380 OA
BRANCH 158 159
ATOM    159  C   UNL     1     -12.981  13.174  14.465  0.00  0.00    +0.037 C 
ATOM    160  H   UNL     1     -13.266  12.918  13.441  0.00  0.00    +0.052 HD
ATOM    161  H   UNL     1     -12.634  14.211  14.470  0.00  0.00    +0.052 HD
ATOM    162  H   UNL     1     -13.859  13.066  15.108  0.00  0.00    +0.052 HD
ENDBRANCH 158 159
ENDBRANCH 145 158
ENDBRANCH 138 143
ENDBRANCH 135 138
ENDBRANCH 129 135
ENDBRANCH 127 129
BRANCH 127 163
ATOM    163  O   UNL     1     -11.157  10.801  22.392  0.00  0.00    -0.391 OA
ATOM    164  H   UNL     1     -11.384  11.024  23.311  0.00  0.00    +0.210 HD
ENDBRANCH 127 163
ENDBRANCH 121 127
ENDBRANCH   1 121
BRANCH  41 165
ATOM    165  O   UNL     1     -14.729   8.726  24.595  0.00  0.00    -0.391 OA
ATOM    166  H   UNL     1     -14.696   8.439  25.531  0.00  0.00    +0.210 HD
ENDBRANCH  41 165
BRANCH  39 167
ATOM    167  O   UNL     1     -15.546   7.079  22.272  0.00  0.00    -0.391 OA
ATOM    168  H   UNL     1     -16.238   7.532  21.752  0.00  0.00    +0.210 HD
ENDBRANCH  39 167
BRANCH  31 169
ATOM    169  O   UNL     1      -7.071   6.055  16.452  0.00  0.00    -0.391 OA
ATOM    170  H   UNL     1      -6.620   5.692  17.235  0.00  0.00    +0.210 HD
ENDBRANCH  31 169
BRANCH  22 171
ATOM    171  C   UNL     1     -11.338  15.894  18.379  0.00  0.00    +0.020 C 
ATOM    172  H   UNL     1     -11.748  16.743  17.822  0.00  0.00    +0.036 HD
BRANCH 171 173
ATOM    173  C   UNL     1     -11.925  14.606  17.797  0.00  0.00    -0.057 C 
ATOM    174  H   UNL     1     -11.288  13.748  18.022  0.00  0.00    +0.023 HD
ATOM    175  H   UNL     1     -12.034  14.666  16.710  0.00  0.00    +0.023 HD
ATOM    176  H   UNL     1     -12.921  14.398  18.196  0.00  0.00    +0.023 HD
ENDBRANCH 171 173
BRANCH 171 177
ATOM    177  C   UNL     1     -11.750  16.093  19.862  0.00  0.00    +0.064 C 
ATOM    178  H   UNL     1     -12.753  15.680  20.008  0.00  0.00    +0.060 HD
BRANCH 177 179
ATOM    179  O   UNL     1     -10.846  15.335  20.668  0.00  0.00    -0.391 OA
ATOM    180  H   UNL     1     -10.410  15.977  21.273  0.00  0.00    +0.210 HD
ENDBRANCH 177 179
BRANCH 177 181
ATOM    181  C   UNL     1     -11.791  17.553  20.398  0.00  0.00    -0.017 C 
ATOM    182  H   UNL     1     -11.532  18.223  19.568  0.00  0.00    +0.032 HD
BRANCH 181 183
ATOM    183  C   UNL     1     -13.231  17.897  20.821  0.00  0.00    -0.060 C 
ATOM    184  H   UNL     1     -13.520  18.897  20.482  0.00  0.00    +0.023 HD
ATOM    185  H   UNL     1     -13.952  17.180  20.417  0.00  0.00    +0.023 HD
ATOM    186  H   UNL     1     -13.337  17.872  21.906  0.00  0.00    +0.023 HD
ENDBRANCH 181 183
BRANCH 181 187
ATOM    187  C   UNL     1     -10.818  17.822  21.569  0.00  0.00    -0.046 C 
ATOM    188  H   UNL     1     -10.558  16.882  22.067  0.00  0.00    +0.027 HD
ATOM    189  H   UNL     1     -11.314  18.450  22.320  0.00  0.00    +0.027 HD
BRANCH 187 190
ATOM    190  C   UNL     1      -9.509  18.486  21.107  0.00  0.00    -0.026 C 
ATOM    191  H   UNL     1      -9.342  18.262  20.051  0.00  0.00    +0.029 HD
ATOM    192  H   UNL     1      -8.670  18.044  21.657  0.00  0.00    +0.029 HD
BRANCH 190 193
ATOM    193  C   UNL     1      -9.501  20.011  21.319  0.00  0.00    +0.061 C 
ATOM    194  O   UNL     1      -8.742  20.700  20.323  0.00  0.00    -0.373 OA
ATOM    195  C   UNL     1      -7.328  20.497  20.394  0.00  0.00    +0.059 C 
ATOM    196  C   UNL     1      -6.779  20.936  21.750  0.00  0.00    -0.000 C 
ATOM    197  C   UNL     1      -7.515  20.230  22.889  0.00  0.00    +0.063 C 
ATOM    198  C   UNL     1      -9.024  20.410  22.717  0.00  0.00    -0.000 C 
ATOM    199  H   UNL     1     -10.534  20.361  21.210  0.00  0.00    +0.060 HD
ATOM    200  H   UNL     1      -7.104  19.439  20.216  0.00  0.00    +0.059 HD
ATOM    201  H   UNL     1      -6.895  22.020  21.875  0.00  0.00    +0.032 HD
ATOM    202  H   UNL     1      -5.703  20.734  21.801  0.00  0.00    +0.032 HD
ATOM    203  H   UNL     1      -7.278  19.160  22.888  0.00  0.00    +0.060 HD
ATOM    204  H   UNL     1      -9.266  21.468  22.887  0.00  0.00    +0.032 HD
ATOM    205  H   UNL     1      -9.562  19.855  23.495  0.00  0.00    +0.032 HD
BRANCH 195 206
ATOM    206  C   UNL     1      -6.695  21.305  19.266  0.00  0.00    -0.039 C 
ATOM    207  H   UNL     1      -7.171  22.289  19.189  0.00  0.00    +0.025 HD
ATOM    208  H   UNL     1      -6.799  20.790  18.305  0.00  0.00    +0.025 HD
ATOM    209  H   UNL     1      -5.632  21.482  19.459  0.00  0.00    +0.025 HD
ENDBRANCH 195 206
BRANCH 197 210
ATOM    210  O   UNL     1      -7.165  20.783  24.165  0.00  0.00    -0.380 OA
BRANCH 210 211
ATOM    211  C   UNL     1      -7.598  22.126  24.346  0.00  0.00    +0.037 C 
ATOM    212  H   UNL     1      -7.604  22.614  23.367  0.00  0.00    +0.052 HD
ATOM    213  H   UNL     1      -6.910  22.674  24.995  0.00  0.00    +0.052 HD
ATOM    214  H   UNL     1      -8.611  22.155  24.756  0.00  0.00    +0.052 HD
ENDBRANCH 210 211
ENDBRANCH 197 210
ENDBRANCH 190 193
ENDBRANCH 187 190
ENDBRANCH 181 187
ENDBRANCH 177 181
ENDBRANCH 171 177
ENDBRANCH  22 171
BRANCH  20 215
ATOM    215  O   UNL     1      -7.180  16.051  16.518  0.00  0.00    -0.391 OA
ATOM    216  H   UNL     1      -6.906  16.335  15.627  0.00  0.00    +0.210 HD
ENDBRANCH  20 215
BRANCH  18 217
ATOM    217  O   UNL     1      -4.841  16.476  17.719  0.00  0.00    -0.391 OA
ATOM    218  H   UNL     1      -4.374  16.794  16.920  0.00  0.00    +0.210 HD
ENDBRANCH  18 217
BRANCH  10 219
ATOM    219  O   UNL     1      -8.666  19.145  26.132  0.00  0.00    -0.391 OA
ATOM    220  H   UNL     1      -7.727  19.330  25.943  0.00  0.00    +0.210 HD
ENDBRANCH  10 219
BRANCH  37 221
ATOM    221  O   UNL     1     -14.140   4.586  20.313  0.00  0.00    -0.379 OA
BRANCH 221 222
ATOM    222  C   UNL     1     -14.618   3.729  21.341  0.00  0.00    +0.037 C 
ATOM    223  H   UNL     1     -14.894   4.351  22.197  0.00  0.00    +0.052 HD
ATOM    224  H   UNL     1     -15.508   3.185  21.018  0.00  0.00    +0.052 HD
ATOM    225  H   UNL     1     -13.840   3.028  21.657  0.00  0.00    +0.052 HD
ENDBRANCH 221 222
ENDBRANCH  37 221
BRANCH  16 226
ATOM    226  O   UNL     1      -3.314  16.454  20.952  0.00  0.00    -0.379 OA
BRANCH 226 227
ATOM    227  C   UNL     1      -3.014  15.139  20.501  0.00  0.00    +0.037 C 
ATOM    228  H   UNL     1      -2.386  14.599  21.217  0.00  0.00    +0.052 HD
ATOM    229  H   UNL     1      -2.514  15.190  19.528  0.00  0.00    +0.052 HD
ATOM    230  H   UNL     1      -3.954  14.590  20.383  0.00  0.00    +0.052 HD
ENDBRANCH 226 227
ENDBRANCH  16 226
TORSDOF 40
ENDMDL
MODEL 4
REMARK VINA RESULT:      -4.0      2.379     10.414
REMARK  Name = Swinholide A_conf1
REMARK  40 active torsions:
REMARK  status: ('A' for Active; 'I' for Inactive)
REMARK    1  A    between atoms: C_1  and  C_2
REMARK    2  A    between atoms: C_4  and  C_10
REMARK    3  A    between atoms: C_6  and  O_8
REMARK    4  A    between atoms: O_8  and  C_9
REMARK    5  A    between atoms: C_10  and  C_11
REMARK    6  A    between atoms: C_11  and  C_12
REMARK    7  A    between atoms: C_12  and  C_13
REMARK    8  A    between atoms: C_12  and  C_98
REMARK    9  A    between atoms: C_13  and  O_14
REMARK   10  A    between atoms: C_13  and  C_15
REMARK   11  A    between atoms: C_15  and  C_16
REMARK   12  A    between atoms: C_15  and  C_97
REMARK   13  A    between atoms: C_22  and  C_96
REMARK   14  A    between atoms: C_25  and  O_95
REMARK   15  A    between atoms: C_31  and  O_90
REMARK   16  A    between atoms: C_32  and  C_89
REMARK   17  A    between atoms: C_33  and  O_88
REMARK   18  A    between atoms: C_35  and  O_87
REMARK   19  A    between atoms: C_36  and  C_86
REMARK   20  A    between atoms: C_37  and  C_69
REMARK   21  A    between atoms: C_43  and  C_68
REMARK   22  A    between atoms: C_46  and  O_67
REMARK   23  A    between atoms: C_52  and  O_62
REMARK   24  A    between atoms: C_53  and  C_61
REMARK   25  A    between atoms: C_54  and  O_60
REMARK   26  A    between atoms: C_56  and  O_59
REMARK   27  A    between atoms: C_57  and  C_58
REMARK   28  A    between atoms: O_62  and  C_63
REMARK   29  A    between atoms: C_69  and  C_70
REMARK   30  A    between atoms: C_69  and  C_85
REMARK   31  A    between atoms: C_70  and  O_71
REMARK   32  A    between atoms: C_70  and  C_72
REMARK   33  A    between atoms: C_72  and  C_73
REMARK   34  A    between atoms: C_72  and  C_84
REMARK   35  A    between atoms: C_73  and  C_74
REMARK   36  A    between atoms: C_74  and  C_75
REMARK   37  A    between atoms: C_77  and  C_83
REMARK   38  A    between atoms: C_79  and  O_81
REMARK   39  A    between atoms: O_81  and  C_82
REMARK   40  A    between atoms: O_90  and  C_91
REMARK                            x       y       z     vdW  Elec       q    Type
REMARK                         _______ _______ _______ _____ _____    ______ ____
ROOT
ATOM      1  C   UNL     1      -5.224  15.412  18.706  0.00  0.00    +0.113 C 
ATOM      2  O   UNL     1      -5.886  14.244  18.148  0.00  0.00    -0.458 OA
ATOM      3  C   UNL     1      -5.160  13.092  18.144  0.00  0.00    +0.332 C 
ATOM      4  O   UNL     1      -4.000  12.967  18.523  0.00  0.00    -0.246 OA
ATOM      5  C   UNL     1      -5.910  11.942  17.617  0.00  0.00    +0.023 C 
ATOM      6  C   UNL     1      -7.247  11.843  17.612  0.00  0.00    -0.052 C 
ATOM      7  C   UNL     1      -7.990  10.650  17.216  0.00  0.00    -0.054 C 
ATOM      8  C   UNL     1      -7.610   9.419  17.619  0.00  0.00    -0.079 C 
ATOM      9  C   UNL     1      -8.412   8.150  17.465  0.00  0.00    -0.008 C 
ATOM     10  C   UNL     1      -8.200   7.119  18.590  0.00  0.00    +0.061 C 
ATOM     11  C   UNL     1      -8.217   7.613  20.044  0.00  0.00    +0.003 C 
ATOM     12  C   UNL     1      -9.548   8.109  20.639  0.00  0.00    +0.080 C 
ATOM     13  O   UNL     1      -9.327   8.076  22.071  0.00  0.00    -0.369 OA
ATOM     14  C   UNL     1     -10.115   8.972  22.870  0.00  0.00    +0.065 C 
ATOM     15  C   UNL     1     -11.599   8.548  22.881  0.00  0.00    +0.000 C 
ATOM     16  C   UNL     1     -12.473   9.372  23.850  0.00  0.00    +0.066 C 
ATOM     17  C   UNL     1     -13.963   8.924  23.739  0.00  0.00    +0.009 C 
ATOM     18  C   UNL     1     -14.916  10.090  23.371  0.00  0.00    +0.063 C 
ATOM     19  C   UNL     1     -14.670  10.655  21.954  0.00  0.00    -0.000 C 
ATOM     20  C   UNL     1     -15.774  11.649  21.542  0.00  0.00    +0.064 C 
ATOM     21  C   UNL     1     -15.717  12.127  20.057  0.00  0.00    +0.020 C 
ATOM     22  C   UNL     1     -14.369  12.811  19.664  0.00  0.00    +0.113 C 
ATOM     23  O   UNL     1     -14.211  13.970  20.525  0.00  0.00    -0.458 OA
ATOM     24  C   UNL     1     -12.993  14.131  21.106  0.00  0.00    +0.332 C 
ATOM     25  O   UNL     1     -11.995  13.465  20.885  0.00  0.00    -0.246 OA
ATOM     26  C   UNL     1     -13.050  15.282  22.036  0.00  0.00    +0.023 C 
ATOM     27  C   UNL     1     -11.961  15.602  22.750  0.00  0.00    -0.052 C 
ATOM     28  C   UNL     1     -11.843  16.717  23.681  0.00  0.00    -0.054 C 
ATOM     29  C   UNL     1     -12.168  17.974  23.316  0.00  0.00    -0.079 C 
ATOM     30  C   UNL     1     -12.058  19.224  24.146  0.00  0.00    -0.008 C 
ATOM     31  C   UNL     1     -10.877  20.151  23.774  0.00  0.00    +0.061 C 
ATOM     32  C   UNL     1     -11.161  21.019  22.530  0.00  0.00    +0.003 C 
ATOM     33  C   UNL     1     -10.113  22.133  22.307  0.00  0.00    +0.080 C 
ATOM     34  O   UNL     1      -8.928  21.626  21.670  0.00  0.00    -0.369 OA
ATOM     35  C   UNL     1      -8.831  21.802  20.239  0.00  0.00    +0.065 C 
ATOM     36  C   UNL     1      -7.441  21.266  19.851  0.00  0.00    +0.000 C 
ATOM     37  C   UNL     1      -7.032  21.228  18.360  0.00  0.00    +0.066 C 
ATOM     38  C   UNL     1      -7.950  20.287  17.519  0.00  0.00    +0.009 C 
ATOM     39  C   UNL     1      -7.171  19.306  16.598  0.00  0.00    +0.063 C 
ATOM     40  C   UNL     1      -6.023  18.560  17.297  0.00  0.00    -0.000 C 
ATOM     41  C   UNL     1      -5.826  17.131  16.756  0.00  0.00    +0.064 C 
ATOM     42  C   UNL     1      -4.731  16.376  17.568  0.00  0.00    +0.020 C 
ATOM     43  C   UNL     1      -9.012  23.276  19.848  0.00  0.00    -0.008 C 
ATOM     44  C   UNL     1     -10.235  23.854  20.479  0.00  0.00    -0.083 C 
ATOM     45  C   UNL     1     -10.724  23.320  21.600  0.00  0.00    -0.059 C 
ATOM     46  C   UNL     1      -9.840  10.416  22.414  0.00  0.00    -0.008 C 
ATOM     47  C   UNL     1     -10.060  10.551  20.943  0.00  0.00    -0.083 C 
ATOM     48  C   UNL     1      -9.952   9.479  20.147  0.00  0.00    -0.059 C 
ATOM     49  H   UNL     1      -4.298  15.082  19.200  0.00  0.00    +0.074 HD
ATOM     50  H   UNL     1      -5.279  11.116  17.304  0.00  0.00    +0.069 HD
ATOM     51  H   UNL     1      -7.869  12.665  17.960  0.00  0.00    +0.062 HD
ATOM     52  H   UNL     1      -6.681   9.309  18.175  0.00  0.00    +0.058 HD
ATOM     53  H   UNL     1      -9.484   8.354  17.370  0.00  0.00    +0.033 HD
ATOM     54  H   UNL     1      -8.123   7.677  16.517  0.00  0.00    +0.033 HD
ATOM     55  H   UNL     1      -7.215   6.666  18.420  0.00  0.00    +0.060 HD
ATOM     56  H   UNL     1      -7.441   8.373  20.200  0.00  0.00    +0.032 HD
ATOM     57  H   UNL     1      -7.893   6.763  20.663  0.00  0.00    +0.032 HD
ATOM     58  H   UNL     1     -10.350   7.395  20.423  0.00  0.00    +0.064 HD
ATOM     59  H   UNL     1      -9.725   8.869  23.890  0.00  0.00    +0.060 HD
ATOM     60  H   UNL     1     -11.636   7.488  23.171  0.00  0.00    +0.032 HD
ATOM     61  H   UNL     1     -12.021   8.599  21.870  0.00  0.00    +0.032 HD
ATOM     62  H   UNL     1     -12.377  10.429  23.583  0.00  0.00    +0.060 HD
ATOM     63  H   UNL     1     -14.054   8.195  22.920  0.00  0.00    +0.035 HD
ATOM     64  H   UNL     1     -15.949   9.722  23.418  0.00  0.00    +0.060 HD
ATOM     65  H   UNL     1     -13.707  11.179  21.947  0.00  0.00    +0.032 HD
ATOM     66  H   UNL     1     -14.621   9.827  21.238  0.00  0.00    +0.032 HD
ATOM     67  H   UNL     1     -16.751  11.173  21.700  0.00  0.00    +0.060 HD
ATOM     68  H   UNL     1     -16.509  12.882  19.966  0.00  0.00    +0.036 HD
ATOM     69  H   UNL     1     -13.578  12.078  19.855  0.00  0.00    +0.074 HD
ATOM     70  H   UNL     1     -13.981  15.828  22.109  0.00  0.00    +0.069 HD
ATOM     71  H   UNL     1     -11.062  14.991  22.651  0.00  0.00    +0.062 HD
ATOM     72  H   UNL     1     -12.570  18.143  22.319  0.00  0.00    +0.058 HD
ATOM     73  H   UNL     1     -13.002  19.781  24.059  0.00  0.00    +0.033 HD
ATOM     74  H   UNL     1     -12.002  18.976  25.212  0.00  0.00    +0.033 HD
ATOM     75  H   UNL     1      -9.958  19.574  23.620  0.00  0.00    +0.060 HD
ATOM     76  H   UNL     1     -12.146  21.484  22.672  0.00  0.00    +0.032 HD
ATOM     77  H   UNL     1     -11.224  20.376  21.645  0.00  0.00    +0.032 HD
ATOM     78  H   UNL     1      -9.775  22.515  23.276  0.00  0.00    +0.064 HD
ATOM     79  H   UNL     1      -9.611  21.187  19.779  0.00  0.00    +0.060 HD
ATOM     80  H   UNL     1      -7.352  20.245  20.253  0.00  0.00    +0.032 HD
ATOM     81  H   UNL     1      -6.692  21.840  20.411  0.00  0.00    +0.032 HD
ATOM     82  H   UNL     1      -6.015  20.823  18.351  0.00  0.00    +0.060 HD
ATOM     83  H   UNL     1      -8.488  19.640  18.220  0.00  0.00    +0.035 HD
ATOM     84  H   UNL     1      -7.903  18.576  16.228  0.00  0.00    +0.060 HD
ATOM     85  H   UNL     1      -5.089  19.118  17.139  0.00  0.00    +0.032 HD
ATOM     86  H   UNL     1      -6.198  18.530  18.368  0.00  0.00    +0.032 HD
ATOM     87  H   UNL     1      -6.764  16.570  16.782  0.00  0.00    +0.060 HD
ATOM     88  H   UNL     1      -4.098  17.132  18.054  0.00  0.00    +0.036 HD
ATOM     89  H   UNL     1      -9.099  23.377  18.762  0.00  0.00    +0.033 HD
ATOM     90  H   UNL     1      -8.154  23.875  20.174  0.00  0.00    +0.033 HD
ATOM     91  H   UNL     1     -10.687  24.736  20.034  0.00  0.00    +0.057 HD
ATOM     92  H   UNL     1     -11.595  23.776  22.069  0.00  0.00    +0.059 HD
ATOM     93  H   UNL     1      -8.794  10.675  22.617  0.00  0.00    +0.033 HD
ATOM     94  H   UNL     1     -10.459  11.132  22.957  0.00  0.00    +0.033 HD
ATOM     95  H   UNL     1     -10.324  11.523  20.536  0.00  0.00    +0.057 HD
ATOM     96  H   UNL     1     -10.177   9.592  19.093  0.00  0.00    +0.059 HD
ENDROOT
BRANCH  28  97
ATOM     97  C   UNL     1     -11.237  16.331  25.006  0.00  0.00    -0.040 C 
ATOM     98  H   UNL     1     -10.959  17.222  25.583  0.00  0.00    +0.028 HD
ATOM     99  H   UNL     1     -10.334  15.732  24.846  0.00  0.00    +0.028 HD
ATOM    100  H   UNL     1     -11.914  15.753  25.640  0.00  0.00    +0.028 HD
ENDBRANCH  28  97
BRANCH  21 101
ATOM    101  C   UNL     1     -16.070  10.963  19.125  0.00  0.00    -0.057 C 
ATOM    102  H   UNL     1     -16.056  10.004  19.652  0.00  0.00    +0.023 HD
ATOM    103  H   UNL     1     -15.367  10.898  18.288  0.00  0.00    +0.023 HD
ATOM    104  H   UNL     1     -17.066  11.096  18.687  0.00  0.00    +0.023 HD
ENDBRANCH  21 101
BRANCH  42 105
ATOM    105  C   UNL     1      -3.777  15.598  16.630  0.00  0.00    -0.057 C 
ATOM    106  H   UNL     1      -4.120  15.646  15.591  0.00  0.00    +0.023 HD
ATOM    107  H   UNL     1      -2.755  15.992  16.677  0.00  0.00    +0.023 HD
ATOM    108  H   UNL     1      -3.745  14.535  16.895  0.00  0.00    +0.023 HD
ENDBRANCH  42 105
BRANCH  17 109
ATOM    109  C   UNL     1     -14.474   8.209  24.999  0.00  0.00    -0.058 C 
ATOM    110  H   UNL     1     -14.422   7.120  24.905  0.00  0.00    +0.023 HD
ATOM    111  H   UNL     1     -13.875   8.493  25.871  0.00  0.00    +0.023 HD
ATOM    112  H   UNL     1     -15.511   8.489  25.213  0.00  0.00    +0.023 HD
ENDBRANCH  17 109
BRANCH  38 113
ATOM    113  C   UNL     1      -9.003  21.045  16.694  0.00  0.00    -0.058 C 
ATOM    114  H   UNL     1     -10.021  20.691  16.895  0.00  0.00    +0.023 HD
ATOM    115  H   UNL     1      -8.818  20.943  15.621  0.00  0.00    +0.023 HD
ATOM    116  H   UNL     1      -8.983  22.115  16.930  0.00  0.00    +0.023 HD
ENDBRANCH  38 113
BRANCH   7 117
ATOM    117  C   UNL     1      -9.241  10.938  16.435  0.00  0.00    -0.040 C 
ATOM    118  H   UNL     1      -8.996  11.272  15.420  0.00  0.00    +0.028 HD
ATOM    119  H   UNL     1      -9.823  11.719  16.928  0.00  0.00    +0.028 HD
ATOM    120  H   UNL     1      -9.878  10.057  16.323  0.00  0.00    +0.028 HD
ENDBRANCH   7 117
BRANCH   1 121
ATOM    121  C   UNL     1      -6.084  15.960  19.904  0.00  0.00    +0.020 C 
ATOM    122  H   UNL     1      -6.248  15.074  20.537  0.00  0.00    +0.036 HD
BRANCH 121 123
ATOM    123  C   UNL     1      -5.228  16.951  20.716  0.00  0.00    -0.057 C 
ATOM    124  H   UNL     1      -5.586  17.975  20.591  0.00  0.00    +0.023 HD
ATOM    125  H   UNL     1      -4.176  16.924  20.427  0.00  0.00    +0.023 HD
ATOM    126  H   UNL     1      -5.285  16.759  21.792  0.00  0.00    +0.023 HD
ENDBRANCH 121 123
BRANCH 121 127
ATOM    127  C   UNL     1      -7.522  16.486  19.573  0.00  0.00    +0.064 C 
ATOM    128  H   UNL     1      -7.434  17.488  19.164  0.00  0.00    +0.060 HD
BRANCH 127 129
ATOM    129  C   UNL     1      -8.595  16.542  20.713  0.00  0.00    -0.017 C 
ATOM    130  H   UNL     1      -8.068  16.722  21.660  0.00  0.00    +0.032 HD
BRANCH 129 131
ATOM    131  C   UNL     1      -9.654  17.636  20.595  0.00  0.00    -0.060 C 
ATOM    132  H   UNL     1     -10.540  17.269  20.070  0.00  0.00    +0.023 HD
ATOM    133  H   UNL     1      -9.936  18.037  21.572  0.00  0.00    +0.023 HD
ATOM    134  H   UNL     1      -9.279  18.477  19.996  0.00  0.00    +0.023 HD
ENDBRANCH 129 131
BRANCH 129 135
ATOM    135  C   UNL     1      -9.338  15.180  20.846  0.00  0.00    -0.046 C 
ATOM    136  H   UNL     1      -9.526  14.764  19.850  0.00  0.00    +0.027 HD
ATOM    137  H   UNL     1     -10.326  15.357  21.278  0.00  0.00    +0.027 HD
BRANCH 135 138
ATOM    138  C   UNL     1      -8.623  14.151  21.722  0.00  0.00    -0.026 C 
ATOM    139  H   UNL     1      -7.618  13.978  21.328  0.00  0.00    +0.029 HD
ATOM    140  H   UNL     1      -9.138  13.189  21.659  0.00  0.00    +0.029 HD
BRANCH 138 143
ATOM    141  C   UNL     1      -7.180  15.872  24.704  0.00  0.00    +0.059 C 
ATOM    142  O   UNL     1      -7.287  15.257  23.411  0.00  0.00    -0.373 OA
ATOM    143  C   UNL     1      -8.528  14.577  23.197  0.00  0.00    +0.061 C 
ATOM    144  C   UNL     1      -8.618  13.378  24.141  0.00  0.00    -0.000 C 
ATOM    145  C   UNL     1      -7.935  13.630  25.491  0.00  0.00    +0.063 C 
ATOM    146  C   UNL     1      -7.938  15.121  25.798  0.00  0.00    -0.000 C 
ATOM    147  H   UNL     1      -6.111  15.847  24.950  0.00  0.00    +0.059 HD
ATOM    148  H   UNL     1      -9.337  15.282  23.416  0.00  0.00    +0.060 HD
ATOM    149  H   UNL     1      -9.669  13.108  24.278  0.00  0.00    +0.032 HD
ATOM    150  H   UNL     1      -8.140  12.497  23.696  0.00  0.00    +0.032 HD
ATOM    151  H   UNL     1      -6.902  13.262  25.435  0.00  0.00    +0.060 HD
ATOM    152  H   UNL     1      -8.979  15.466  25.874  0.00  0.00    +0.032 HD
ATOM    153  H   UNL     1      -7.491  15.341  26.774  0.00  0.00    +0.032 HD
BRANCH 141 154
ATOM    154  C   UNL     1      -7.607  17.334  24.626  0.00  0.00    -0.039 C 
ATOM    155  H   UNL     1      -8.696  17.432  24.657  0.00  0.00    +0.025 HD
ATOM    156  H   UNL     1      -7.183  17.910  25.455  0.00  0.00    +0.025 HD
ATOM    157  H   UNL     1      -7.275  17.783  23.686  0.00  0.00    +0.025 HD
ENDBRANCH 141 154
BRANCH 145 158
ATOM    158  O   UNL     1      -8.650  12.879  26.477  0.00  0.00    -0.380 OA
BRANCH 158 159
ATOM    159  C   UNL     1      -9.699  13.608  27.100  0.00  0.00    +0.037 C 
ATOM    160  H   UNL     1     -10.488  12.902  27.375  0.00  0.00    +0.052 HD
ATOM    161  H   UNL     1     -10.126  14.339  26.407  0.00  0.00    +0.052 HD
ATOM    162  H   UNL     1      -9.350  14.110  28.008  0.00  0.00    +0.052 HD
ENDBRANCH 158 159
ENDBRANCH 145 158
ENDBRANCH 138 143
ENDBRANCH 135 138
ENDBRANCH 129 135
ENDBRANCH 127 129
BRANCH 127 163
ATOM    163  O   UNL     1      -8.128  15.708  18.533  0.00  0.00    -0.391 OA
ATOM    164  H   UNL     1      -7.713  15.932  17.683  0.00  0.00    +0.210 HD
ENDBRANCH 127 163
ENDBRANCH 121 127
ENDBRANCH   1 121
BRANCH  41 165
ATOM    165  O   UNL     1      -5.444  17.232  15.380  0.00  0.00    -0.391 OA
ATOM    166  H   UNL     1      -5.512  18.167  15.098  0.00  0.00    +0.210 HD
ENDBRANCH  41 165
BRANCH  39 167
ATOM    167  O   UNL     1      -6.633  19.946  15.442  0.00  0.00    -0.391 OA
ATOM    168  H   UNL     1      -6.170  19.271  14.910  0.00  0.00    +0.210 HD
ENDBRANCH  39 167
BRANCH  31 169
ATOM    169  O   UNL     1     -10.660  21.018  24.897  0.00  0.00    -0.391 OA
ATOM    170  H   UNL     1     -10.583  20.454  25.686  0.00  0.00    +0.210 HD
ENDBRANCH  31 169
BRANCH  22 171
ATOM    171  C   UNL     1     -14.273  13.252  18.160  0.00  0.00    +0.020 C 
ATOM    172  H   UNL     1     -15.125  12.796  17.645  0.00  0.00    +0.036 HD
BRANCH 171 173
ATOM    173  C   UNL     1     -14.369  14.771  18.002  0.00  0.00    -0.057 C 
ATOM    174  H   UNL     1     -14.306  15.061  16.952  0.00  0.00    +0.023 HD
ATOM    175  H   UNL     1     -13.568  15.286  18.541  0.00  0.00    +0.023 HD
ATOM    176  H   UNL     1     -15.309  15.161  18.403  0.00  0.00    +0.023 HD
ENDBRANCH 171 173
BRANCH 171 177
ATOM    177  C   UNL     1     -12.992  12.686  17.492  0.00  0.00    +0.064 C 
ATOM    178  H   UNL     1     -12.355  13.521  17.185  0.00  0.00    +0.060 HD
BRANCH 177 179
ATOM    179  O   UNL     1     -12.281  11.938  18.481  0.00  0.00    -0.391 OA
ATOM    180  H   UNL     1     -11.513  12.492  18.747  0.00  0.00    +0.210 HD
ENDBRANCH 177 179
BRANCH 177 181
ATOM    181  C   UNL     1     -13.183  11.791  16.234  0.00  0.00    -0.017 C 
ATOM    182  H   UNL     1     -12.221  11.745  15.705  0.00  0.00    +0.032 HD
BRANCH 181 183
ATOM    183  C   UNL     1     -13.519  10.356  16.680  0.00  0.00    -0.060 C 
ATOM    184  H   UNL     1     -13.385   9.640  15.862  0.00  0.00    +0.023 HD
ATOM    185  H   UNL     1     -12.892  10.036  17.517  0.00  0.00    +0.023 HD
ATOM    186  H   UNL     1     -14.554  10.284  17.016  0.00  0.00    +0.023 HD
ENDBRANCH 181 183
BRANCH 181 187
ATOM    187  C   UNL     1     -14.259  12.305  15.251  0.00  0.00    -0.046 C 
ATOM    188  H   UNL     1     -14.551  13.328  15.513  0.00  0.00    +0.027 HD
ATOM    189  H   UNL     1     -15.162  11.687  15.340  0.00  0.00    +0.027 HD
BRANCH 187 190
ATOM    190  C   UNL     1     -13.769  12.316  13.793  0.00  0.00    -0.026 C 
ATOM    191  H   UNL     1     -14.543  11.896  13.147  0.00  0.00    +0.029 HD
ATOM    192  H   UNL     1     -12.896  11.658  13.704  0.00  0.00    +0.029 HD
BRANCH 190 193
ATOM    193  C   UNL     1     -13.391  13.723  13.297  0.00  0.00    +0.061 C 
ATOM    194  O   UNL     1     -12.858  13.713  11.969  0.00  0.00    -0.373 OA
ATOM    195  C   UNL     1     -11.563  13.120  11.844  0.00  0.00    +0.059 C 
ATOM    196  C   UNL     1     -10.543  13.839  12.725  0.00  0.00    -0.000 C 
ATOM    197  C   UNL     1     -11.013  13.881  14.179  0.00  0.00    +0.063 C 
ATOM    198  C   UNL     1     -12.433  14.446  14.245  0.00  0.00    -0.000 C 
ATOM    199  H   UNL     1     -14.314  14.312  13.248  0.00  0.00    +0.060 HD
ATOM    200  H   UNL     1     -11.621  12.060  12.116  0.00  0.00    +0.059 HD
ATOM    201  H   UNL     1     -10.394  14.868  12.373  0.00  0.00    +0.032 HD
ATOM    202  H   UNL     1      -9.568  13.344  12.648  0.00  0.00    +0.032 HD
ATOM    203  H   UNL     1     -11.007  12.872  14.609  0.00  0.00    +0.060 HD
ATOM    204  H   UNL     1     -12.392  15.509  13.970  0.00  0.00    +0.032 HD
ATOM    205  H   UNL     1     -12.801  14.422  15.278  0.00  0.00    +0.032 HD
BRANCH 195 206
ATOM    206  C   UNL     1     -11.165  13.203  10.374  0.00  0.00    -0.039 C 
ATOM    207  H   UNL     1     -12.057  13.230   9.740  0.00  0.00    +0.025 HD
ATOM    208  H   UNL     1     -10.552  12.344  10.082  0.00  0.00    +0.025 HD
ATOM    209  H   UNL     1     -10.605  14.123  10.172  0.00  0.00    +0.025 HD
ENDBRANCH 195 206
BRANCH 197 210
ATOM    210  O   UNL     1     -10.180  14.732  14.978  0.00  0.00    -0.380 OA
BRANCH 210 211
ATOM    211  C   UNL     1     -10.839  15.276  16.115  0.00  0.00    +0.037 C 
ATOM    212  H   UNL     1     -11.911  15.081  16.010  0.00  0.00    +0.052 HD
ATOM    213  H   UNL     1     -10.694  16.358  16.169  0.00  0.00    +0.052 HD
ATOM    214  H   UNL     1     -10.486  14.798  17.033  0.00  0.00    +0.052 HD
ENDBRANCH 210 211
ENDBRANCH 197 210
ENDBRANCH 190 193
ENDBRANCH 187 190
ENDBRANCH 181 187
ENDBRANCH 177 181
ENDBRANCH 171 177
ENDBRANCH  22 171
BRANCH  20 215
ATOM    215  O   UNL     1     -15.735  12.759  22.450  0.00  0.00    -0.391 OA
ATOM    216  H   UNL     1     -15.114  12.530  23.166  0.00  0.00    +0.210 HD
ENDBRANCH  20 215
BRANCH  18 217
ATOM    217  O   UNL     1     -14.803  11.133  24.342  0.00  0.00    -0.391 OA
ATOM    218  H   UNL     1     -15.304  11.897  23.988  0.00  0.00    +0.210 HD
ENDBRANCH  18 217
BRANCH  10 219
ATOM    219  O   UNL     1      -9.158   6.069  18.425  0.00  0.00    -0.391 OA
ATOM    220  H   UNL     1      -8.703   5.228  18.614  0.00  0.00    +0.210 HD
ENDBRANCH  10 219
BRANCH  37 221
ATOM    221  O   UNL     1      -6.961  22.516  17.748  0.00  0.00    -0.379 OA
BRANCH 221 222
ATOM    222  C   UNL     1      -5.692  22.834  17.192  0.00  0.00    +0.037 C 
ATOM    223  H   UNL     1      -5.239  23.615  17.810  0.00  0.00    +0.052 HD
ATOM    224  H   UNL     1      -5.029  21.966  17.203  0.00  0.00    +0.052 HD
ATOM    225  H   UNL     1      -5.799  23.215  16.172  0.00  0.00    +0.052 HD
ENDBRANCH 221 222
ENDBRANCH  37 221
BRANCH  16 226
ATOM    226  O   UNL     1     -11.943   9.152  25.166  0.00  0.00    -0.379 OA
BRANCH 226 227
ATOM    227  C   UNL     1     -11.630  10.363  25.844  0.00  0.00    +0.037 C 
ATOM    228  H   UNL     1     -12.521  10.979  26.005  0.00  0.00    +0.052 HD
ATOM    229  H   UNL     1     -10.885  10.924  25.268  0.00  0.00    +0.052 HD
ATOM    230  H   UNL     1     -11.201  10.114  26.820  0.00  0.00    +0.052 HD
ENDBRANCH 226 227
ENDBRANCH  16 226
TORSDOF 40
ENDMDL
MODEL 5
REMARK VINA RESULT:      -4.0      7.087     14.234
REMARK  Name = Swinholide A_conf1
REMARK  40 active torsions:
REMARK  status: ('A' for Active; 'I' for Inactive)
REMARK    1  A    between atoms: C_1  and  C_2
REMARK    2  A    between atoms: C_4  and  C_10
REMARK    3  A    between atoms: C_6  and  O_8
REMARK    4  A    between atoms: O_8  and  C_9
REMARK    5  A    between atoms: C_10  and  C_11
REMARK    6  A    between atoms: C_11  and  C_12
REMARK    7  A    between atoms: C_12  and  C_13
REMARK    8  A    between atoms: C_12  and  C_98
REMARK    9  A    between atoms: C_13  and  O_14
REMARK   10  A    between atoms: C_13  and  C_15
REMARK   11  A    between atoms: C_15  and  C_16
REMARK   12  A    between atoms: C_15  and  C_97
REMARK   13  A    between atoms: C_22  and  C_96
REMARK   14  A    between atoms: C_25  and  O_95
REMARK   15  A    between atoms: C_31  and  O_90
REMARK   16  A    between atoms: C_32  and  C_89
REMARK   17  A    between atoms: C_33  and  O_88
REMARK   18  A    between atoms: C_35  and  O_87
REMARK   19  A    between atoms: C_36  and  C_86
REMARK   20  A    between atoms: C_37  and  C_69
REMARK   21  A    between atoms: C_43  and  C_68
REMARK   22  A    between atoms: C_46  and  O_67
REMARK   23  A    between atoms: C_52  and  O_62
REMARK   24  A    between atoms: C_53  and  C_61
REMARK   25  A    between atoms: C_54  and  O_60
REMARK   26  A    between atoms: C_56  and  O_59
REMARK   27  A    between atoms: C_57  and  C_58
REMARK   28  A    between atoms: O_62  and  C_63
REMARK   29  A    between atoms: C_69  and  C_70
REMARK   30  A    between atoms: C_69  and  C_85
REMARK   31  A    between atoms: C_70  and  O_71
REMARK   32  A    between atoms: C_70  and  C_72
REMARK   33  A    between atoms: C_72  and  C_73
REMARK   34  A    between atoms: C_72  and  C_84
REMARK   35  A    between atoms: C_73  and  C_74
REMARK   36  A    between atoms: C_74  and  C_75
REMARK   37  A    between atoms: C_77  and  C_83
REMARK   38  A    between atoms: C_79  and  O_81
REMARK   39  A    between atoms: O_81  and  C_82
REMARK   40  A    between atoms: O_90  and  C_91
REMARK                            x       y       z     vdW  Elec       q    Type
REMARK                         _______ _______ _______ _____ _____    ______ ____
ROOT
ATOM      1  C   UNL     1     -10.044   7.621  16.160  0.00  0.00    +0.113 C 
ATOM      2  O   UNL     1     -10.264   7.274  14.766  0.00  0.00    -0.458 OA
ATOM      3  C   UNL     1      -9.474   7.914  13.860  0.00  0.00    +0.332 C 
ATOM      4  O   UNL     1      -8.638   8.774  14.111  0.00  0.00    -0.246 OA
ATOM      5  C   UNL     1      -9.714   7.475  12.477  0.00  0.00    +0.023 C 
ATOM      6  C   UNL     1     -10.227   6.285  12.134  0.00  0.00    -0.052 C 
ATOM      7  C   UNL     1     -10.340   5.793  10.765  0.00  0.00    -0.054 C 
ATOM      8  C   UNL     1      -9.333   5.939   9.879  0.00  0.00    -0.079 C 
ATOM      9  C   UNL     1      -9.242   5.284   8.523  0.00  0.00    -0.008 C 
ATOM     10  C   UNL     1      -7.809   4.954   8.065  0.00  0.00    +0.061 C 
ATOM     11  C   UNL     1      -6.859   4.284   9.068  0.00  0.00    +0.003 C 
ATOM     12  C   UNL     1      -7.143   2.832   9.496  0.00  0.00    +0.080 C 
ATOM     13  O   UNL     1      -5.886   2.379  10.059  0.00  0.00    -0.369 OA
ATOM     14  C   UNL     1      -5.954   1.322  11.029  0.00  0.00    +0.065 C 
ATOM     15  C   UNL     1      -6.376  -0.009  10.371  0.00  0.00    +0.000 C 
ATOM     16  C   UNL     1      -6.310  -1.221  11.324  0.00  0.00    +0.066 C 
ATOM     17  C   UNL     1      -6.822  -2.503  10.597  0.00  0.00    +0.009 C 
ATOM     18  C   UNL     1      -8.011  -3.176  11.330  0.00  0.00    +0.063 C 
ATOM     19  C   UNL     1      -9.290  -2.309  11.340  0.00  0.00    -0.000 C 
ATOM     20  C   UNL     1     -10.504  -3.099  11.871  0.00  0.00    +0.064 C 
ATOM     21  C   UNL     1     -11.879  -2.371  11.742  0.00  0.00    +0.020 C 
ATOM     22  C   UNL     1     -11.931  -0.986  12.461  0.00  0.00    +0.113 C 
ATOM     23  O   UNL     1     -11.671  -1.226  13.870  0.00  0.00    -0.458 OA
ATOM     24  C   UNL     1     -10.771  -0.402  14.468  0.00  0.00    +0.332 C 
ATOM     25  O   UNL     1     -10.251   0.582  13.969  0.00  0.00    -0.246 OA
ATOM     26  C   UNL     1     -10.541  -0.866  15.855  0.00  0.00    +0.023 C 
ATOM     27  C   UNL     1      -9.655  -0.216  16.624  0.00  0.00    -0.052 C 
ATOM     28  C   UNL     1      -9.336  -0.525  18.013  0.00  0.00    -0.054 C 
ATOM     29  C   UNL     1     -10.302  -0.639  18.947  0.00  0.00    -0.079 C 
ATOM     30  C   UNL     1     -10.126  -0.907  20.416  0.00  0.00    -0.008 C 
ATOM     31  C   UNL     1     -10.335   0.322  21.333  0.00  0.00    +0.061 C 
ATOM     32  C   UNL     1     -11.824   0.639  21.584  0.00  0.00    +0.003 C 
ATOM     33  C   UNL     1     -12.049   1.684  22.701  0.00  0.00    +0.080 C 
ATOM     34  O   UNL     1     -11.854   3.025  22.221  0.00  0.00    -0.369 OA
ATOM     35  C   UNL     1     -13.040   3.761  21.846  0.00  0.00    +0.065 C 
ATOM     36  C   UNL     1     -12.548   5.172  21.473  0.00  0.00    +0.000 C 
ATOM     37  C   UNL     1     -13.561   6.212  20.941  0.00  0.00    +0.066 C 
ATOM     38  C   UNL     1     -14.213   5.768  19.595  0.00  0.00    +0.009 C 
ATOM     39  C   UNL     1     -14.211   6.871  18.500  0.00  0.00    +0.063 C 
ATOM     40  C   UNL     1     -12.856   7.572  18.312  0.00  0.00    -0.000 C 
ATOM     41  C   UNL     1     -12.596   7.982  16.849  0.00  0.00    +0.064 C 
ATOM     42  C   UNL     1     -11.168   8.583  16.685  0.00  0.00    +0.020 C 
ATOM     43  C   UNL     1     -14.060   3.789  22.993  0.00  0.00    -0.008 C 
ATOM     44  C   UNL     1     -14.306   2.417  23.528  0.00  0.00    -0.083 C 
ATOM     45  C   UNL     1     -13.378   1.469  23.387  0.00  0.00    -0.059 C 
ATOM     46  C   UNL     1      -6.826   1.785  12.209  0.00  0.00    -0.008 C 
ATOM     47  C   UNL     1      -8.157   2.257  11.723  0.00  0.00    -0.083 C 
ATOM     48  C   UNL     1      -8.292   2.706  10.468  0.00  0.00    -0.059 C 
ATOM     49  H   UNL     1      -9.123   8.219  16.227  0.00  0.00    +0.074 HD
ATOM     50  H   UNL     1      -9.351   8.173  11.729  0.00  0.00    +0.069 HD
ATOM     51  H   UNL     1     -10.556   5.579  12.895  0.00  0.00    +0.062 HD
ATOM     52  H   UNL     1      -8.455   6.514  10.169  0.00  0.00    +0.058 HD
ATOM     53  H   UNL     1      -9.849   4.373   8.469  0.00  0.00    +0.033 HD
ATOM     54  H   UNL     1      -9.682   5.968   7.784  0.00  0.00    +0.033 HD
ATOM     55  H   UNL     1      -7.345   5.906   7.775  0.00  0.00    +0.060 HD
ATOM     56  H   UNL     1      -6.740   4.911   9.961  0.00  0.00    +0.032 HD
ATOM     57  H   UNL     1      -5.863   4.285   8.600  0.00  0.00    +0.032 HD
ATOM     58  H   UNL     1      -7.341   2.209   8.616  0.00  0.00    +0.064 HD
ATOM     59  H   UNL     1      -4.929   1.206  11.403  0.00  0.00    +0.060 HD
ATOM     60  H   UNL     1      -5.703  -0.182   9.518  0.00  0.00    +0.032 HD
ATOM     61  H   UNL     1      -7.384   0.073   9.948  0.00  0.00    +0.032 HD
ATOM     62  H   UNL     1      -6.939  -1.006  12.194  0.00  0.00    +0.060 HD
ATOM     63  H   UNL     1      -7.205  -2.218   9.606  0.00  0.00    +0.035 HD
ATOM     64  H   UNL     1      -8.242  -4.120  10.821  0.00  0.00    +0.060 HD
ATOM     65  H   UNL     1      -9.124  -1.443  11.991  0.00  0.00    +0.032 HD
ATOM     66  H   UNL     1      -9.491  -1.948  10.325  0.00  0.00    +0.032 HD
ATOM     67  H   UNL     1     -10.575  -4.045  11.319  0.00  0.00    +0.060 HD
ATOM     68  H   UNL     1     -12.602  -3.029  12.240  0.00  0.00    +0.036 HD
ATOM     69  H   UNL     1     -11.137  -0.373  12.021  0.00  0.00    +0.074 HD
ATOM     70  H   UNL     1     -11.100  -1.724  16.202  0.00  0.00    +0.069 HD
ATOM     71  H   UNL     1      -9.101   0.625  16.204  0.00  0.00    +0.062 HD
ATOM     72  H   UNL     1     -11.342  -0.544  18.640  0.00  0.00    +0.058 HD
ATOM     73  H   UNL     1     -10.824  -1.704  20.709  0.00  0.00    +0.033 HD
ATOM     74  H   UNL     1      -9.139  -1.342  20.614  0.00  0.00    +0.033 HD
ATOM     75  H   UNL     1      -9.832   1.206  20.925  0.00  0.00    +0.060 HD
ATOM     76  H   UNL     1     -12.316  -0.299  21.874  0.00  0.00    +0.032 HD
ATOM     77  H   UNL     1     -12.286   0.980  20.649  0.00  0.00    +0.032 HD
ATOM     78  H   UNL     1     -11.294   1.549  23.483  0.00  0.00    +0.064 HD
ATOM     79  H   UNL     1     -13.468   3.270  20.967  0.00  0.00    +0.060 HD
ATOM     80  H   UNL     1     -11.751   5.061  20.722  0.00  0.00    +0.032 HD
ATOM     81  H   UNL     1     -12.035   5.590  22.349  0.00  0.00    +0.032 HD
ATOM     82  H   UNL     1     -12.976   7.119  20.763  0.00  0.00    +0.060 HD
ATOM     83  H   UNL     1     -13.593   4.965  19.179  0.00  0.00    +0.035 HD
ATOM     84  H   UNL     1     -14.497   6.381  17.561  0.00  0.00    +0.060 HD
ATOM     85  H   UNL     1     -12.837   8.481  18.930  0.00  0.00    +0.032 HD
ATOM     86  H   UNL     1     -12.054   6.930  18.664  0.00  0.00    +0.032 HD
ATOM     87  H   UNL     1     -12.722   7.129  16.175  0.00  0.00    +0.060 HD
ATOM     88  H   UNL     1     -10.840   8.933  17.674  0.00  0.00    +0.036 HD
ATOM     89  H   UNL     1     -15.013   4.205  22.649  0.00  0.00    +0.033 HD
ATOM     90  H   UNL     1     -13.702   4.410  23.821  0.00  0.00    +0.033 HD
ATOM     91  H   UNL     1     -15.228   2.223  24.068  0.00  0.00    +0.057 HD
ATOM     92  H   UNL     1     -13.556   0.484  23.815  0.00  0.00    +0.059 HD
ATOM     93  H   UNL     1      -6.342   2.628  12.718  0.00  0.00    +0.033 HD
ATOM     94  H   UNL     1      -6.952   0.993  12.949  0.00  0.00    +0.033 HD
ATOM     95  H   UNL     1      -9.009   2.214  12.394  0.00  0.00    +0.057 HD
ATOM     96  H   UNL     1      -9.281   2.984  10.121  0.00  0.00    +0.059 HD
ENDROOT
BRANCH  28  97
ATOM     97  C   UNL     1      -7.855  -0.588  18.290  0.00  0.00    -0.040 C 
ATOM     98  H   UNL     1      -7.390   0.395  18.155  0.00  0.00    +0.028 HD
ATOM     99  H   UNL     1      -7.375  -1.291  17.600  0.00  0.00    +0.028 HD
ATOM    100  H   UNL     1      -7.618  -0.905  19.308  0.00  0.00    +0.028 HD
ENDBRANCH  28  97
BRANCH  21 101
ATOM    101  C   UNL     1     -12.275  -2.272  10.264  0.00  0.00    -0.057 C 
ATOM    102  H   UNL     1     -13.226  -2.777  10.066  0.00  0.00    +0.023 HD
ATOM    103  H   UNL     1     -11.513  -2.722   9.619  0.00  0.00    +0.023 HD
ATOM    104  H   UNL     1     -12.373  -1.227   9.951  0.00  0.00    +0.023 HD
ENDBRANCH  21 101
BRANCH  42 105
ATOM    105  C   UNL     1     -11.195   9.852  15.801  0.00  0.00    -0.057 C 
ATOM    106  H   UNL     1     -11.739   9.671  14.867  0.00  0.00    +0.023 HD
ATOM    107  H   UNL     1     -11.666  10.696  16.318  0.00  0.00    +0.023 HD
ATOM    108  H   UNL     1     -10.181  10.153  15.513  0.00  0.00    +0.023 HD
ENDBRANCH  42 105
BRANCH  17 109
ATOM    109  C   UNL     1      -5.714  -3.535  10.340  0.00  0.00    -0.058 C 
ATOM    110  H   UNL     1      -5.474  -4.114  11.237  0.00  0.00    +0.023 HD
ATOM    111  H   UNL     1      -6.023  -4.244   9.564  0.00  0.00    +0.023 HD
ATOM    112  H   UNL     1      -4.800  -3.046   9.987  0.00  0.00    +0.023 HD
ENDBRANCH  17 109
BRANCH  38 113
ATOM    113  C   UNL     1     -15.636   5.209  19.763  0.00  0.00    -0.058 C 
ATOM    114  H   UNL     1     -15.635   4.147  20.034  0.00  0.00    +0.023 HD
ATOM    115  H   UNL     1     -16.219   5.321  18.845  0.00  0.00    +0.023 HD
ATOM    116  H   UNL     1     -16.169   5.743  20.559  0.00  0.00    +0.023 HD
ENDBRANCH  38 113
BRANCH   7 117
ATOM    117  C   UNL     1     -11.608   5.034  10.488  0.00  0.00    -0.040 C 
ATOM    118  H   UNL     1     -11.614   4.651   9.461  0.00  0.00    +0.028 HD
ATOM    119  H   UNL     1     -12.474   5.685  10.623  0.00  0.00    +0.028 HD
ATOM    120  H   UNL     1     -11.729   4.167  11.142  0.00  0.00    +0.028 HD
ENDBRANCH   7 117
BRANCH   1 121
ATOM    121  C   UNL     1      -9.670   6.315  16.957  0.00  0.00    +0.020 C 
ATOM    122  H   UNL     1     -10.307   6.363  17.854  0.00  0.00    +0.036 HD
BRANCH 121 123
ATOM    123  C   UNL     1     -10.121   5.090  16.139  0.00  0.00    -0.057 C 
ATOM    124  H   UNL     1      -9.277   4.633  15.616  0.00  0.00    +0.023 HD
ATOM    125  H   UNL     1     -10.881   5.342  15.398  0.00  0.00    +0.023 HD
ATOM    126  H   UNL     1     -10.524   4.296  16.776  0.00  0.00    +0.023 HD
ENDBRANCH 121 123
BRANCH 121 127
ATOM    127  C   UNL     1      -8.209   6.207  17.511  0.00  0.00    +0.064 C 
ATOM    128  H   UNL     1      -8.208   5.502  18.337  0.00  0.00    +0.060 HD
BRANCH 127 129
ATOM    129  C   UNL     1      -7.484   7.503  18.008  0.00  0.00    -0.017 C 
ATOM    130  H   UNL     1      -8.192   8.338  17.920  0.00  0.00    +0.032 HD
BRANCH 129 131
ATOM    131  C   UNL     1      -7.000   7.499  19.457  0.00  0.00    -0.060 C 
ATOM    132  H   UNL     1      -7.440   6.667  20.014  0.00  0.00    +0.023 HD
ATOM    133  H   UNL     1      -5.910   7.461  19.522  0.00  0.00    +0.023 HD
ATOM    134  H   UNL     1      -7.326   8.410  19.977  0.00  0.00    +0.023 HD
ENDBRANCH 129 131
BRANCH 129 135
ATOM    135  C   UNL     1      -6.259   7.837  17.104  0.00  0.00    -0.046 C 
ATOM    136  H   UNL     1      -6.223   7.139  16.261  0.00  0.00    +0.027 HD
ATOM    137  H   UNL     1      -5.343   7.657  17.671  0.00  0.00    +0.027 HD
BRANCH 135 138
ATOM    138  C   UNL     1      -6.220   9.280  16.598  0.00  0.00    -0.026 C 
ATOM    139  H   UNL     1      -7.058   9.446  15.916  0.00  0.00    +0.029 HD
ATOM    140  H   UNL     1      -5.316   9.439  16.006  0.00  0.00    +0.029 HD
BRANCH 138 143
ATOM    141  C   UNL     1      -7.640  12.080  18.617  0.00  0.00    +0.059 C 
ATOM    142  O   UNL     1      -7.379  11.196  17.516  0.00  0.00    -0.373 OA
ATOM    143  C   UNL     1      -6.271  10.318  17.732  0.00  0.00    +0.061 C 
ATOM    144  C   UNL     1      -4.982  11.136  17.810  0.00  0.00    -0.000 C 
ATOM    145  C   UNL     1      -5.191  12.517  18.445  0.00  0.00    +0.063 C 
ATOM    146  C   UNL     1      -6.382  12.472  19.392  0.00  0.00    -0.000 C 
ATOM    147  H   UNL     1      -8.061  12.988  18.168  0.00  0.00    +0.059 HD
ATOM    148  H   UNL     1      -6.437   9.798  18.682  0.00  0.00    +0.060 HD
ATOM    149  H   UNL     1      -4.227  10.564  18.356  0.00  0.00    +0.032 HD
ATOM    150  H   UNL     1      -4.565  11.301  16.809  0.00  0.00    +0.032 HD
ATOM    151  H   UNL     1      -5.377  13.246  17.645  0.00  0.00    +0.060 HD
ATOM    152  H   UNL     1      -6.168  11.756  20.198  0.00  0.00    +0.032 HD
ATOM    153  H   UNL     1      -6.543  13.432  19.896  0.00  0.00    +0.032 HD
BRANCH 141 154
ATOM    154  C   UNL     1      -8.700  11.478  19.534  0.00  0.00    -0.039 C 
ATOM    155  H   UNL     1      -8.294  10.649  20.121  0.00  0.00    +0.025 HD
ATOM    156  H   UNL     1      -9.095  12.231  20.224  0.00  0.00    +0.025 HD
ATOM    157  H   UNL     1      -9.530  11.073  18.949  0.00  0.00    +0.025 HD
ENDBRANCH 141 154
BRANCH 145 158
ATOM    158  O   UNL     1      -3.980  12.862  19.124  0.00  0.00    -0.380 OA
BRANCH 158 159
ATOM    159  C   UNL     1      -4.184  13.650  20.290  0.00  0.00    +0.037 C 
ATOM    160  H   UNL     1      -5.192  13.451  20.663  0.00  0.00    +0.052 HD
ATOM    161  H   UNL     1      -4.116  14.716  20.051  0.00  0.00    +0.052 HD
ATOM    162  H   UNL     1      -3.465  13.393  21.074  0.00  0.00    +0.052 HD
ENDBRANCH 158 159
ENDBRANCH 145 158
ENDBRANCH 138 143
ENDBRANCH 135 138
ENDBRANCH 129 135
ENDBRANCH 127 129
BRANCH 127 163
ATOM    163  O   UNL     1      -7.327   5.642  16.533  0.00  0.00    -0.391 OA
ATOM    164  H   UNL     1      -6.769   6.346  16.160  0.00  0.00    +0.210 HD
ENDBRANCH 127 163
ENDBRANCH 121 127
ENDBRANCH   1 121
BRANCH  41 165
ATOM    165  O   UNL     1     -13.588   8.946  16.482  0.00  0.00    -0.391 OA
ATOM    166  H   UNL     1     -14.172   8.560  15.797  0.00  0.00    +0.210 HD
ENDBRANCH  41 165
BRANCH  39 167
ATOM    167  O   UNL     1     -15.192   7.880  18.734  0.00  0.00    -0.391 OA
ATOM    168  H   UNL     1     -14.787   8.575  19.288  0.00  0.00    +0.210 HD
ENDBRANCH  39 167
BRANCH  31 169
ATOM    169  O   UNL     1      -9.715   0.013  22.589  0.00  0.00    -0.391 OA
ATOM    170  H   UNL     1      -8.849  -0.385  22.393  0.00  0.00    +0.210 HD
ENDBRANCH  31 169
BRANCH  22 171
ATOM    171  C   UNL     1     -13.289  -0.215  12.298  0.00  0.00    +0.020 C 
ATOM    172  H   UNL     1     -13.920  -0.827  11.645  0.00  0.00    +0.036 HD
BRANCH 171 173
ATOM    173  C   UNL     1     -14.010  -0.036  13.636  0.00  0.00    -0.057 C 
ATOM    174  H   UNL     1     -14.888   0.602  13.527  0.00  0.00    +0.023 HD
ATOM    175  H   UNL     1     -13.358   0.417  14.390  0.00  0.00    +0.023 HD
ATOM    176  H   UNL     1     -14.339  -0.993  14.050  0.00  0.00    +0.023 HD
ENDBRANCH 171 173
BRANCH 171 177
ATOM    177  C   UNL     1     -13.079   1.141  11.573  0.00  0.00    +0.064 C 
ATOM    178  H   UNL     1     -13.903   1.813  11.836  0.00  0.00    +0.060 HD
BRANCH 177 179
ATOM    179  O   UNL     1     -11.872   1.718  12.074  0.00  0.00    -0.391 OA
ATOM    180  H   UNL     1     -11.943   1.700  13.055  0.00  0.00    +0.210 HD
ENDBRANCH 177 179
BRANCH 177 181
ATOM    181  C   UNL     1     -13.010   1.114  10.020  0.00  0.00    -0.017 C 
ATOM    182  H   UNL     1     -13.144   0.073   9.696  0.00  0.00    +0.032 HD
BRANCH 181 183
ATOM    183  C   UNL     1     -14.191   1.918   9.446  0.00  0.00    -0.060 C 
ATOM    184  H   UNL     1     -14.826   2.320  10.242  0.00  0.00    +0.023 HD
ATOM    185  H   UNL     1     -13.848   2.754   8.830  0.00  0.00    +0.023 HD
ATOM    186  H   UNL     1     -14.817   1.293   8.808  0.00  0.00    +0.023 HD
ENDBRANCH 181 183
BRANCH 181 187
ATOM    187  C   UNL     1     -11.679   1.642   9.438  0.00  0.00    -0.046 C 
ATOM    188  H   UNL     1     -11.197   2.317  10.153  0.00  0.00    +0.027 HD
ATOM    189  H   UNL     1     -11.881   2.230   8.534  0.00  0.00    +0.027 HD
BRANCH 187 190
ATOM    190  C   UNL     1     -10.685   0.511   9.119  0.00  0.00    -0.026 C 
ATOM    191  H   UNL     1     -10.950  -0.378   9.697  0.00  0.00    +0.029 HD
ATOM    192  H   UNL     1      -9.683   0.811   9.448  0.00  0.00    +0.029 HD
BRANCH 190 193
ATOM    193  C   UNL     1     -10.638   0.157   7.622  0.00  0.00    +0.061 C 
ATOM    194  O   UNL     1     -10.448  -1.242   7.393  0.00  0.00    -0.373 OA
ATOM    195  C   UNL     1      -9.153  -1.740   7.741  0.00  0.00    +0.059 C 
ATOM    196  C   UNL     1      -8.059  -1.012   6.962  0.00  0.00    -0.000 C 
ATOM    197  C   UNL     1      -8.162   0.500   7.162  0.00  0.00    +0.063 C 
ATOM    198  C   UNL     1      -9.587   0.964   6.857  0.00  0.00    -0.000 C 
ATOM    199  H   UNL     1     -11.618   0.403   7.196  0.00  0.00    +0.060 HD
ATOM    200  H   UNL     1      -8.997  -1.621   8.819  0.00  0.00    +0.059 HD
ATOM    201  H   UNL     1      -8.145  -1.232   5.890  0.00  0.00    +0.032 HD
ATOM    202  H   UNL     1      -7.074  -1.377   7.273  0.00  0.00    +0.032 HD
ATOM    203  H   UNL     1      -7.912   0.763   8.197  0.00  0.00    +0.060 HD
ATOM    204  H   UNL     1      -9.763   0.847   5.779  0.00  0.00    +0.032 HD
ATOM    205  H   UNL     1      -9.687   2.038   7.058  0.00  0.00    +0.032 HD
BRANCH 195 206
ATOM    206  C   UNL     1      -9.140  -3.232   7.428  0.00  0.00    -0.039 C 
ATOM    207  H   UNL     1      -8.533  -3.429   6.539  0.00  0.00    +0.025 HD
ATOM    208  H   UNL     1     -10.153  -3.607   7.251  0.00  0.00    +0.025 HD
ATOM    209  H   UNL     1      -8.691  -3.801   8.250  0.00  0.00    +0.025 HD
ENDBRANCH 195 206
BRANCH 197 210
ATOM    210  O   UNL     1      -7.286   1.210   6.277  0.00  0.00    -0.380 OA
BRANCH 210 211
ATOM    211  C   UNL     1      -7.020   0.522   5.060  0.00  0.00    +0.037 C 
ATOM    212  H   UNL     1      -7.447  -0.482   5.140  0.00  0.00    +0.052 HD
ATOM    213  H   UNL     1      -5.944   0.421   4.895  0.00  0.00    +0.052 HD
ATOM    214  H   UNL     1      -7.489   1.034   4.215  0.00  0.00    +0.052 HD
ENDBRANCH 210 211
ENDBRANCH 197 210
ENDBRANCH 190 193
ENDBRANCH 187 190
ENDBRANCH 181 187
ENDBRANCH 177 181
ENDBRANCH 171 177
ENDBRANCH  22 171
BRANCH  20 215
ATOM    215  O   UNL     1     -10.234  -3.467  13.232  0.00  0.00    -0.391 OA
ATOM    216  H   UNL     1      -9.286  -3.689  13.292  0.00  0.00    +0.210 HD
ENDBRANCH  20 215
BRANCH  18 217
ATOM    217  O   UNL     1      -7.631  -3.506  12.667  0.00  0.00    -0.391 OA
ATOM    218  H   UNL     1      -7.348  -2.670  13.090  0.00  0.00    +0.210 HD
ENDBRANCH  18 217
BRANCH  10 219
ATOM    219  O   UNL     1      -7.887   4.167   6.873  0.00  0.00    -0.391 OA
ATOM    220  H   UNL     1      -7.097   3.596   6.849  0.00  0.00    +0.210 HD
ENDBRANCH  10 219
BRANCH  37 221
ATOM    221  O   UNL     1     -14.577   6.563  21.882  0.00  0.00    -0.379 OA
BRANCH 221 222
ATOM    222  C   UNL     1     -14.568   7.930  22.274  0.00  0.00    +0.037 C 
ATOM    223  H   UNL     1     -14.815   8.533  21.397  0.00  0.00    +0.052 HD
ATOM    224  H   UNL     1     -15.319   8.124  23.042  0.00  0.00    +0.052 HD
ATOM    225  H   UNL     1     -13.577   8.225  22.631  0.00  0.00    +0.052 HD
ENDBRANCH 221 222
ENDBRANCH  37 221
BRANCH  16 226
ATOM    226  O   UNL     1      -4.939  -1.347  11.733  0.00  0.00    -0.379 OA
BRANCH 226 227
ATOM    227  C   UNL     1      -4.796  -1.515  13.138  0.00  0.00    +0.037 C 
ATOM    228  H   UNL     1      -3.785  -1.836  13.406  0.00  0.00    +0.052 HD
ATOM    229  H   UNL     1      -5.530  -2.246  13.497  0.00  0.00    +0.052 HD
ATOM    230  H   UNL     1      -4.994  -0.554  13.624  0.00  0.00    +0.052 HD
ENDBRANCH 226 227
ENDBRANCH  16 226
TORSDOF 40
ENDMDL
MODEL 6
REMARK VINA RESULT:      -3.9      2.293      5.664
REMARK  Name = Swinholide A_conf1
REMARK  40 active torsions:
REMARK  status: ('A' for Active; 'I' for Inactive)
REMARK    1  A    between atoms: C_1  and  C_2
REMARK    2  A    between atoms: C_4  and  C_10
REMARK    3  A    between atoms: C_6  and  O_8
REMARK    4  A    between atoms: O_8  and  C_9
REMARK    5  A    between atoms: C_10  and  C_11
REMARK    6  A    between atoms: C_11  and  C_12
REMARK    7  A    between atoms: C_12  and  C_13
REMARK    8  A    between atoms: C_12  and  C_98
REMARK    9  A    between atoms: C_13  and  O_14
REMARK   10  A    between atoms: C_13  and  C_15
REMARK   11  A    between atoms: C_15  and  C_16
REMARK   12  A    between atoms: C_15  and  C_97
REMARK   13  A    between atoms: C_22  and  C_96
REMARK   14  A    between atoms: C_25  and  O_95
REMARK   15  A    between atoms: C_31  and  O_90
REMARK   16  A    between atoms: C_32  and  C_89
REMARK   17  A    between atoms: C_33  and  O_88
REMARK   18  A    between atoms: C_35  and  O_87
REMARK   19  A    between atoms: C_36  and  C_86
REMARK   20  A    between atoms: C_37  and  C_69
REMARK   21  A    between atoms: C_43  and  C_68
REMARK   22  A    between atoms: C_46  and  O_67
REMARK   23  A    between atoms: C_52  and  O_62
REMARK   24  A    between atoms: C_53  and  C_61
REMARK   25  A    between atoms: C_54  and  O_60
REMARK   26  A    between atoms: C_56  and  O_59
REMARK   27  A    between atoms: C_57  and  C_58
REMARK   28  A    between atoms: O_62  and  C_63
REMARK   29  A    between atoms: C_69  and  C_70
REMARK   30  A    between atoms: C_69  and  C_85
REMARK   31  A    between atoms: C_70  and  O_71
REMARK   32  A    between atoms: C_70  and  C_72
REMARK   33  A    between atoms: C_72  and  C_73
REMARK   34  A    between atoms: C_72  and  C_84
REMARK   35  A    between atoms: C_73  and  C_74
REMARK   36  A    between atoms: C_74  and  C_75
REMARK   37  A    between atoms: C_77  and  C_83
REMARK   38  A    between atoms: C_79  and  O_81
REMARK   39  A    between atoms: O_81  and  C_82
REMARK   40  A    between atoms: O_90  and  C_91
REMARK                            x       y       z     vdW  Elec       q    Type
REMARK                         _______ _______ _______ _____ _____    ______ ____
ROOT
ATOM      1  C   UNL     1     -12.791   5.923  22.348  0.00  0.00    +0.113 C 
ATOM      2  O   UNL     1     -11.831   6.004  21.259  0.00  0.00    -0.458 OA
ATOM      3  C   UNL     1     -12.045   5.161  20.211  0.00  0.00    +0.332 C 
ATOM      4  O   UNL     1     -12.936   4.322  20.129  0.00  0.00    -0.246 OA
ATOM      5  C   UNL     1     -11.070   5.336  19.124  0.00  0.00    +0.023 C 
ATOM      6  C   UNL     1     -10.381   6.463  18.894  0.00  0.00    -0.052 C 
ATOM      7  C   UNL     1      -9.516   6.686  17.739  0.00  0.00    -0.054 C 
ATOM      8  C   UNL     1      -9.893   6.319  16.497  0.00  0.00    -0.079 C 
ATOM      9  C   UNL     1      -9.197   6.693  15.212  0.00  0.00    -0.008 C 
ATOM     10  C   UNL     1     -10.132   6.852  13.999  0.00  0.00    +0.061 C 
ATOM     11  C   UNL     1     -11.430   7.652  14.179  0.00  0.00    +0.003 C 
ATOM     12  C   UNL     1     -11.334   9.173  14.406  0.00  0.00    +0.080 C 
ATOM     13  O   UNL     1     -12.665   9.659  14.101  0.00  0.00    -0.369 OA
ATOM     14  C   UNL     1     -13.067  10.886  14.731  0.00  0.00    +0.065 C 
ATOM     15  C   UNL     1     -12.275  12.085  14.166  0.00  0.00    +0.000 C 
ATOM     16  C   UNL     1     -12.771  13.453  14.680  0.00  0.00    +0.066 C 
ATOM     17  C   UNL     1     -11.869  14.595  14.116  0.00  0.00    +0.009 C 
ATOM     18  C   UNL     1     -11.225  15.459  15.232  0.00  0.00    +0.063 C 
ATOM     19  C   UNL     1     -10.210  14.679  16.097  0.00  0.00    -0.000 C 
ATOM     20  C   UNL     1      -9.430  15.619  17.038  0.00  0.00    +0.064 C 
ATOM     21  C   UNL     1      -8.251  14.954  17.814  0.00  0.00    +0.020 C 
ATOM     22  C   UNL     1      -8.680  13.739  18.696  0.00  0.00    +0.113 C 
ATOM     23  O   UNL     1      -9.644  14.233  19.664  0.00  0.00    -0.458 OA
ATOM     24  C   UNL     1     -10.774  13.494  19.824  0.00  0.00    +0.332 C 
ATOM     25  O   UNL     1     -11.001  12.406  19.322  0.00  0.00    -0.246 OA
ATOM     26  C   UNL     1     -11.687  14.205  20.748  0.00  0.00    +0.023 C 
ATOM     27  C   UNL     1     -12.886  13.670  21.023  0.00  0.00    -0.052 C 
ATOM     28  C   UNL     1     -13.885  14.224  21.928  0.00  0.00    -0.054 C 
ATOM     29  C   UNL     1     -13.571  14.567  23.195  0.00  0.00    -0.079 C 
ATOM     30  C   UNL     1     -14.496  15.105  24.252  0.00  0.00    -0.008 C 
ATOM     31  C   UNL     1     -14.890  14.089  25.351  0.00  0.00    +0.061 C 
ATOM     32  C   UNL     1     -13.795  13.905  26.422  0.00  0.00    +0.003 C 
ATOM     33  C   UNL     1     -14.274  13.110  27.658  0.00  0.00    +0.080 C 
ATOM     34  O   UNL     1     -14.261  11.693  27.415  0.00  0.00    -0.369 OA
ATOM     35  C   UNL     1     -13.108  10.961  27.890  0.00  0.00    +0.065 C 
ATOM     36  C   UNL     1     -13.407   9.482  27.587  0.00  0.00    +0.000 C 
ATOM     37  C   UNL     1     -12.332   8.413  27.898  0.00  0.00    +0.066 C 
ATOM     38  C   UNL     1     -11.032   8.622  27.063  0.00  0.00    +0.009 C 
ATOM     39  C   UNL     1     -10.509   7.329  26.376  0.00  0.00    +0.063 C 
ATOM     40  C   UNL     1     -11.589   6.534  25.622  0.00  0.00    -0.000 C 
ATOM     41  C   UNL     1     -11.042   5.837  24.361  0.00  0.00    +0.064 C 
ATOM     42  C   UNL     1     -12.189   5.141  23.570  0.00  0.00    +0.020 C 
ATOM     43  C   UNL     1     -12.872  11.210  29.387  0.00  0.00    -0.008 C 
ATOM     44  C   UNL     1     -12.871  12.670  29.696  0.00  0.00    -0.083 C 
ATOM     45  C   UNL     1     -13.515  13.523  28.897  0.00  0.00    -0.059 C 
ATOM     46  C   UNL     1     -13.000  10.706  16.257  0.00  0.00    -0.008 C 
ATOM     47  C   UNL     1     -11.649  10.220  16.669  0.00  0.00    -0.083 C 
ATOM     48  C   UNL     1     -10.886   9.545  15.800  0.00  0.00    -0.059 C 
ATOM     49  H   UNL     1     -13.637   5.301  22.018  0.00  0.00    +0.074 HD
ATOM     50  H   UNL     1     -11.014   4.488  18.448  0.00  0.00    +0.069 HD
ATOM     51  H   UNL     1     -10.472   7.318  19.560  0.00  0.00    +0.062 HD
ATOM     52  H   UNL     1     -10.822   5.765  16.369  0.00  0.00    +0.058 HD
ATOM     53  H   UNL     1      -8.602   7.607  15.322  0.00  0.00    +0.033 HD
ATOM     54  H   UNL     1      -8.470   5.903  14.975  0.00  0.00    +0.033 HD
ATOM     55  H   UNL     1     -10.424   5.839  13.692  0.00  0.00    +0.060 HD
ATOM     56  H   UNL     1     -12.051   7.205  14.966  0.00  0.00    +0.032 HD
ATOM     57  H   UNL     1     -12.013   7.508  13.257  0.00  0.00    +0.032 HD
ATOM     58  H   UNL     1     -10.655   9.623  13.674  0.00  0.00    +0.064 HD
ATOM     59  H   UNL     1     -14.122  11.018  14.460  0.00  0.00    +0.060 HD
ATOM     60  H   UNL     1     -12.369  12.054  13.071  0.00  0.00    +0.032 HD
ATOM     61  H   UNL     1     -11.205  11.976  14.381  0.00  0.00    +0.032 HD
ATOM     62  H   UNL     1     -12.726  13.444  15.774  0.00  0.00    +0.060 HD
ATOM     63  H   UNL     1     -11.030  14.144  13.566  0.00  0.00    +0.035 HD
ATOM     64  H   UNL     1     -10.699  16.298  14.759  0.00  0.00    +0.060 HD
ATOM     65  H   UNL     1     -10.755  13.948  16.705  0.00  0.00    +0.032 HD
ATOM     66  H   UNL     1      -9.516  14.139  15.443  0.00  0.00    +0.032 HD
ATOM     67  H   UNL     1      -9.014  16.443  16.444  0.00  0.00    +0.060 HD
ATOM     68  H   UNL     1      -7.871  15.733  18.488  0.00  0.00    +0.036 HD
ATOM     69  H   UNL     1      -9.147  13.011  18.023  0.00  0.00    +0.074 HD
ATOM     70  H   UNL     1     -11.352  15.142  21.170  0.00  0.00    +0.069 HD
ATOM     71  H   UNL     1     -13.175  12.735  20.539  0.00  0.00    +0.062 HD
ATOM     72  H   UNL     1     -12.538  14.470  23.524  0.00  0.00    +0.058 HD
ATOM     73  H   UNL     1     -14.019  15.979  24.717  0.00  0.00    +0.033 HD
ATOM     74  H   UNL     1     -15.403  15.518  23.797  0.00  0.00    +0.033 HD
ATOM     75  H   UNL     1     -15.146  13.118  24.913  0.00  0.00    +0.060 HD
ATOM     76  H   UNL     1     -13.481  14.907  26.746  0.00  0.00    +0.032 HD
ATOM     77  H   UNL     1     -12.924  13.416  25.971  0.00  0.00    +0.032 HD
ATOM     78  H   UNL     1     -15.322  13.354  27.865  0.00  0.00    +0.064 HD
ATOM     79  H   UNL     1     -12.244  11.295  27.307  0.00  0.00    +0.060 HD
ATOM     80  H   UNL     1     -13.663   9.403  26.520  0.00  0.00    +0.032 HD
ATOM     81  H   UNL     1     -14.335   9.214  28.107  0.00  0.00    +0.032 HD
ATOM     82  H   UNL     1     -12.783   7.459  27.609  0.00  0.00    +0.060 HD
ATOM     83  H   UNL     1     -11.278   9.295  26.234  0.00  0.00    +0.035 HD
ATOM     84  H   UNL     1      -9.732   7.643  25.667  0.00  0.00    +0.060 HD
ATOM     85  H   UNL     1     -11.994   5.763  26.291  0.00  0.00    +0.032 HD
ATOM     86  H   UNL     1     -12.412   7.190  25.355  0.00  0.00    +0.032 HD
ATOM     87  H   UNL     1     -10.520   6.548  23.715  0.00  0.00    +0.060 HD
ATOM     88  H   UNL     1     -13.020   4.972  24.270  0.00  0.00    +0.036 HD
ATOM     89  H   UNL     1     -11.912  10.786  29.700  0.00  0.00    +0.033 HD
ATOM     90  H   UNL     1     -13.659  10.742  29.990  0.00  0.00    +0.033 HD
ATOM     91  H   UNL     1     -12.376  13.013  30.600  0.00  0.00    +0.057 HD
ATOM     92  H   UNL     1     -13.536  14.580  29.157  0.00  0.00    +0.059 HD
ATOM     93  H   UNL     1     -13.733   9.953  16.574  0.00  0.00    +0.033 HD
ATOM     94  H   UNL     1     -13.245  11.632  16.781  0.00  0.00    +0.033 HD
ATOM     95  H   UNL     1     -11.294  10.437  17.672  0.00  0.00    +0.057 HD
ATOM     96  H   UNL     1      -9.886   9.258  16.103  0.00  0.00    +0.059 HD
ENDROOT
BRANCH  28  97
ATOM     97  C   UNL     1     -15.273  14.262  21.343  0.00  0.00    -0.040 C 
ATOM     98  H   UNL     1     -15.361  15.061  20.597  0.00  0.00    +0.028 HD
ATOM     99  H   UNL     1     -16.009  14.449  22.133  0.00  0.00    +0.028 HD
ATOM    100  H   UNL     1     -15.555  13.335  20.836  0.00  0.00    +0.028 HD
ENDBRANCH  28  97
BRANCH  21 101
ATOM    101  C   UNL     1      -7.127  14.592  16.837  0.00  0.00    -0.057 C 
ATOM    102  H   UNL     1      -7.085  13.514  16.650  0.00  0.00    +0.023 HD
ATOM    103  H   UNL     1      -6.151  14.906  17.221  0.00  0.00    +0.023 HD
ATOM    104  H   UNL     1      -7.262  15.099  15.875  0.00  0.00    +0.023 HD
ENDBRANCH  21 101
BRANCH  42 105
ATOM    105  C   UNL     1     -11.767   3.728  23.101  0.00  0.00    -0.057 C 
ATOM    106  H   UNL     1     -10.685   3.671  22.945  0.00  0.00    +0.023 HD
ATOM    107  H   UNL     1     -12.053   2.959  23.829  0.00  0.00    +0.023 HD
ATOM    108  H   UNL     1     -12.231   3.476  22.141  0.00  0.00    +0.023 HD
ENDBRANCH  42 105
BRANCH  17 109
ATOM    109  C   UNL     1     -12.597  15.498  13.110  0.00  0.00    -0.058 C 
ATOM    110  H   UNL     1     -12.263  15.325  12.083  0.00  0.00    +0.023 HD
ATOM    111  H   UNL     1     -13.677  15.313  13.140  0.00  0.00    +0.023 HD
ATOM    112  H   UNL     1     -12.443  16.555  13.351  0.00  0.00    +0.023 HD
ENDBRANCH  17 109
BRANCH  38 113
ATOM    113  C   UNL     1      -9.893   9.277  27.864  0.00  0.00    -0.058 C 
ATOM    114  H   UNL     1      -9.651  10.281  27.495  0.00  0.00    +0.023 HD
ATOM    115  H   UNL     1      -8.981   8.675  27.825  0.00  0.00    +0.023 HD
ATOM    116  H   UNL     1     -10.174   9.382  28.919  0.00  0.00    +0.023 HD
ENDBRANCH  38 113
BRANCH   7 117
ATOM    117  C   UNL     1      -8.256   7.442  18.054  0.00  0.00    -0.040 C 
ATOM    118  H   UNL     1      -7.733   6.987  18.902  0.00  0.00    +0.028 HD
ATOM    119  H   UNL     1      -8.491   8.479  18.304  0.00  0.00    +0.028 HD
ATOM    120  H   UNL     1      -7.550   7.445  17.221  0.00  0.00    +0.028 HD
ENDBRANCH   7 117
BRANCH   1 121
ATOM    121  C   UNL     1     -13.454   7.336  22.549  0.00  0.00    +0.020 C 
ATOM    122  H   UNL     1     -14.275   7.349  21.815  0.00  0.00    +0.036 HD
BRANCH 121 123
ATOM    123  C   UNL     1     -14.091   7.390  23.950  0.00  0.00    -0.057 C 
ATOM    124  H   UNL     1     -14.780   8.233  24.038  0.00  0.00    +0.023 HD
ATOM    125  H   UNL     1     -13.345   7.482  24.742  0.00  0.00    +0.023 HD
ATOM    126  H   UNL     1     -14.697   6.504  24.162  0.00  0.00    +0.023 HD
ENDBRANCH 121 123
BRANCH 121 127
ATOM    127  C   UNL     1     -12.586   8.592  22.196  0.00  0.00    +0.064 C 
ATOM    128  H   UNL     1     -12.062   8.395  21.266  0.00  0.00    +0.060 HD
BRANCH 127 129
ATOM    129  C   UNL     1     -11.523   9.099  23.228  0.00  0.00    -0.017 C 
ATOM    130  H   UNL     1     -11.709   8.586  24.181  0.00  0.00    +0.032 HD
BRANCH 129 131
ATOM    131  C   UNL     1     -10.059   8.841  22.879  0.00  0.00    -0.060 C 
ATOM    132  H   UNL     1      -9.679   9.604  22.194  0.00  0.00    +0.023 HD
ATOM    133  H   UNL     1      -9.430   8.791  23.772  0.00  0.00    +0.023 HD
ATOM    134  H   UNL     1      -9.949   7.885  22.350  0.00  0.00    +0.023 HD
ENDBRANCH 129 131
BRANCH 129 135
ATOM    135  C   UNL     1     -11.683  10.627  23.487  0.00  0.00    -0.046 C 
ATOM    136  H   UNL     1     -11.827  10.807  24.558  0.00  0.00    +0.027 HD
ATOM    137  H   UNL     1     -12.603  10.972  23.009  0.00  0.00    +0.027 HD
BRANCH 135 138
ATOM    138  C   UNL     1     -10.532  11.483  22.958  0.00  0.00    -0.026 C 
ATOM    139  H   UNL     1     -10.865  12.027  22.069  0.00  0.00    +0.029 HD
ATOM    140  H   UNL     1      -9.714  10.839  22.625  0.00  0.00    +0.029 HD
BRANCH 138 143
ATOM    141  C   UNL     1      -7.980  13.586  24.691  0.00  0.00    +0.059 C 
ATOM    142  O   UNL     1      -8.571  12.540  23.903  0.00  0.00    -0.373 OA
ATOM    143  C   UNL     1      -9.996  12.482  23.998  0.00  0.00    +0.061 C 
ATOM    144  C   UNL     1     -10.395  12.087  25.420  0.00  0.00    -0.000 C 
ATOM    145  C   UNL     1      -9.430  12.631  26.481  0.00  0.00    +0.063 C 
ATOM    146  C   UNL     1      -8.762  13.899  25.967  0.00  0.00    -0.000 C 
ATOM    147  H   UNL     1      -6.991  13.209  24.979  0.00  0.00    +0.059 HD
ATOM    148  H   UNL     1     -10.388  13.479  23.767  0.00  0.00    +0.060 HD
ATOM    149  H   UNL     1     -11.418  12.423  25.612  0.00  0.00    +0.032 HD
ATOM    150  H   UNL     1     -10.414  10.996  25.530  0.00  0.00    +0.032 HD
ATOM    151  H   UNL     1      -8.670  11.866  26.689  0.00  0.00    +0.060 HD
ATOM    152  H   UNL     1      -9.534  14.660  25.788  0.00  0.00    +0.032 HD
ATOM    153  H   UNL     1      -8.090  14.341  26.712  0.00  0.00    +0.032 HD
BRANCH 141 154
ATOM    154  C   UNL     1      -7.775  14.833  23.837  0.00  0.00    -0.039 C 
ATOM    155  H   UNL     1      -7.644  14.576  22.783  0.00  0.00    +0.025 HD
ATOM    156  H   UNL     1      -8.629  15.513  23.926  0.00  0.00    +0.025 HD
ATOM    157  H   UNL     1      -6.872  15.368  24.147  0.00  0.00    +0.025 HD
ENDBRANCH 141 154
BRANCH 145 158
ATOM    158  O   UNL     1     -10.192  12.872  27.668  0.00  0.00    -0.380 OA
BRANCH 158 159
ATOM    159  C   UNL     1     -10.071  14.199  28.165  0.00  0.00    +0.037 C 
ATOM    160  H   UNL     1     -10.820  14.819  27.666  0.00  0.00    +0.052 HD
ATOM    161  H   UNL     1      -9.084  14.609  27.932  0.00  0.00    +0.052 HD
ATOM    162  H   UNL     1     -10.250  14.237  29.244  0.00  0.00    +0.052 HD
ENDBRANCH 158 159
ENDBRANCH 145 158
ENDBRANCH 138 143
ENDBRANCH 135 138
ENDBRANCH 129 135
ENDBRANCH 127 129
BRANCH 127 163
ATOM    163  O   UNL     1     -13.413   9.731  21.927  0.00  0.00    -0.391 OA
ATOM    164  H   UNL     1     -14.243   9.650  22.427  0.00  0.00    +0.210 HD
ENDBRANCH 127 163
ENDBRANCH 121 127
ENDBRANCH   1 121
BRANCH  41 165
ATOM    165  O   UNL     1     -10.070   4.873  24.781  0.00  0.00    -0.391 OA
ATOM    166  H   UNL     1      -9.988   4.182  24.093  0.00  0.00    +0.210 HD
ENDBRANCH  41 165
BRANCH  39 167
ATOM    167  O   UNL     1      -9.874   6.438  27.290  0.00  0.00    -0.391 OA
ATOM    168  H   UNL     1     -10.281   6.564  28.169  0.00  0.00    +0.210 HD
ENDBRANCH  39 167
BRANCH  31 169
ATOM    169  O   UNL     1     -16.070  14.602  25.985  0.00  0.00    -0.391 OA
ATOM    170  H   UNL     1     -16.174  15.526  25.698  0.00  0.00    +0.210 HD
ENDBRANCH  31 169
BRANCH  22 171
ATOM    171  C   UNL     1      -7.499  13.023  19.444  0.00  0.00    +0.020 C 
ATOM    172  H   UNL     1      -6.576  13.503  19.103  0.00  0.00    +0.036 HD
BRANCH 171 173
ATOM    173  C   UNL     1      -7.598  13.191  20.962  0.00  0.00    -0.057 C 
ATOM    174  H   UNL     1      -7.519  14.241  21.247  0.00  0.00    +0.023 HD
ATOM    175  H   UNL     1      -6.808  12.642  21.483  0.00  0.00    +0.023 HD
ATOM    176  H   UNL     1      -8.546  12.809  21.351  0.00  0.00    +0.023 HD
ENDBRANCH 171 173
BRANCH 171 177
ATOM    177  C   UNL     1      -7.403  11.529  19.037  0.00  0.00    +0.064 C 
ATOM    178  H   UNL     1      -7.805  10.915  19.849  0.00  0.00    +0.060 HD
BRANCH 177 179
ATOM    179  O   UNL     1      -8.237  11.337  17.893  0.00  0.00    -0.391 OA
ATOM    180  H   UNL     1      -8.147  12.149  17.346  0.00  0.00    +0.210 HD
ENDBRANCH 177 179
BRANCH 177 181
ATOM    181  C   UNL     1      -5.987  10.969  18.720  0.00  0.00    -0.017 C 
ATOM    182  H   UNL     1      -5.899   9.985  19.199  0.00  0.00    +0.032 HD
BRANCH 181 183
ATOM    183  C   UNL     1      -5.861  10.743  17.202  0.00  0.00    -0.060 C 
ATOM    184  H   UNL     1      -5.511  11.646  16.690  0.00  0.00    +0.023 HD
ATOM    185  H   UNL     1      -5.165   9.931  16.971  0.00  0.00    +0.023 HD
ATOM    186  H   UNL     1      -6.822  10.466  16.766  0.00  0.00    +0.023 HD
ENDBRANCH 181 183
BRANCH 181 187
ATOM    187  C   UNL     1      -4.828  11.862  19.219  0.00  0.00    -0.046 C 
ATOM    188  H   UNL     1      -3.952  11.247  19.450  0.00  0.00    +0.027 HD
ATOM    189  H   UNL     1      -5.122  12.356  20.154  0.00  0.00    +0.027 HD
BRANCH 187 190
ATOM    190  C   UNL     1      -4.403  12.913  18.179  0.00  0.00    -0.026 C 
ATOM    191  H   UNL     1      -5.279  13.486  17.864  0.00  0.00    +0.029 HD
ATOM    192  H   UNL     1      -4.027  12.401  17.285  0.00  0.00    +0.029 HD
BRANCH 190 193
ATOM    193  C   UNL     1      -3.319  13.873  18.702  0.00  0.00    +0.061 C 
ATOM    194  O   UNL     1      -3.379  14.047  20.120  0.00  0.00    -0.373 OA
ATOM    195  C   UNL     1      -4.515  14.778  20.591  0.00  0.00    +0.059 C 
ATOM    196  C   UNL     1      -4.564  16.173  19.971  0.00  0.00    -0.000 C 
ATOM    197  C   UNL     1      -4.529  16.092  18.445  0.00  0.00    +0.063 C 
ATOM    198  C   UNL     1      -3.346  15.232  18.001  0.00  0.00    -0.000 C 
ATOM    199  H   UNL     1      -2.347  13.412  18.494  0.00  0.00    +0.060 HD
ATOM    200  H   UNL     1      -5.428  14.222  20.352  0.00  0.00    +0.059 HD
ATOM    201  H   UNL     1      -3.708  16.771  20.311  0.00  0.00    +0.032 HD
ATOM    202  H   UNL     1      -5.462  16.701  20.311  0.00  0.00    +0.032 HD
ATOM    203  H   UNL     1      -5.459  15.648  18.068  0.00  0.00    +0.060 HD
ATOM    204  H   UNL     1      -2.419  15.774  18.238  0.00  0.00    +0.032 HD
ATOM    205  H   UNL     1      -3.350  15.117  16.910  0.00  0.00    +0.032 HD
BRANCH 195 206
ATOM    206  C   UNL     1      -4.403  14.863  22.110  0.00  0.00    -0.039 C 
ATOM    207  H   UNL     1      -4.394  15.909  22.432  0.00  0.00    +0.025 HD
ATOM    208  H   UNL     1      -3.489  14.378  22.466  0.00  0.00    +0.025 HD
ATOM    209  H   UNL     1      -5.266  14.391  22.593  0.00  0.00    +0.025 HD
ENDBRANCH 195 206
BRANCH 197 210
ATOM    210  O   UNL     1      -4.359  17.387  17.853  0.00  0.00    -0.380 OA
BRANCH 210 211
ATOM    211  C   UNL     1      -5.573  17.973  17.397  0.00  0.00    +0.037 C 
ATOM    212  H   UNL     1      -5.401  18.365  16.390  0.00  0.00    +0.052 HD
ATOM    213  H   UNL     1      -5.870  18.806  18.040  0.00  0.00    +0.052 HD
ATOM    214  H   UNL     1      -6.370  17.226  17.349  0.00  0.00    +0.052 HD
ENDBRANCH 210 211
ENDBRANCH 197 210
ENDBRANCH 190 193
ENDBRANCH 187 190
ENDBRANCH 181 187
ENDBRANCH 177 181
ENDBRANCH 171 177
ENDBRANCH  22 171
BRANCH  20 215
ATOM    215  O   UNL     1     -10.369  16.229  17.936  0.00  0.00    -0.391 OA
ATOM    216  H   UNL     1     -11.146  15.642  17.990  0.00  0.00    +0.210 HD
ENDBRANCH  20 215
BRANCH  18 217
ATOM    217  O   UNL     1     -12.246  16.022  16.059  0.00  0.00    -0.391 OA
ATOM    218  H   UNL     1     -11.793  16.615  16.693  0.00  0.00    +0.210 HD
ENDBRANCH  18 217
BRANCH  10 219
ATOM    219  O   UNL     1      -9.375   7.397  12.914  0.00  0.00    -0.391 OA
ATOM    220  H   UNL     1      -8.530   7.715  13.282  0.00  0.00    +0.210 HD
ENDBRANCH  10 219
BRANCH  37 221
ATOM    221  O   UNL     1     -12.010   8.305  29.285  0.00  0.00    -0.379 OA
BRANCH 221 222
ATOM    222  C   UNL     1     -12.289   7.033  29.856  0.00  0.00    +0.037 C 
ATOM    223  H   UNL     1     -12.153   6.277  29.078  0.00  0.00    +0.052 HD
ATOM    224  H   UNL     1     -11.599   6.807  30.671  0.00  0.00    +0.052 HD
ATOM    225  H   UNL     1     -13.323   6.985  30.211  0.00  0.00    +0.052 HD
ENDBRANCH 221 222
ENDBRANCH  37 221
BRANCH  16 226
ATOM    226  O   UNL     1     -14.135  13.583  14.250  0.00  0.00    -0.379 OA
BRANCH 226 227
ATOM    227  C   UNL     1     -15.021  13.904  15.315  0.00  0.00    +0.037 C 
ATOM    228  H   UNL     1     -15.178  14.984  15.399  0.00  0.00    +0.052 HD
ATOM    229  H   UNL     1     -14.622  13.508  16.256  0.00  0.00    +0.052 HD
ATOM    230  H   UNL     1     -15.987  13.429  15.117  0.00  0.00    +0.052 HD
ENDBRANCH 226 227
ENDBRANCH  16 226
TORSDOF 40
ENDMDL
MODEL 7
REMARK VINA RESULT:      -3.9      1.670      3.287
REMARK  Name = Swinholide A_conf1
REMARK  40 active torsions:
REMARK  status: ('A' for Active; 'I' for Inactive)
REMARK    1  A    between atoms: C_1  and  C_2
REMARK    2  A    between atoms: C_4  and  C_10
REMARK    3  A    between atoms: C_6  and  O_8
REMARK    4  A    between atoms: O_8  and  C_9
REMARK    5  A    between atoms: C_10  and  C_11
REMARK    6  A    between atoms: C_11  and  C_12
REMARK    7  A    between atoms: C_12  and  C_13
REMARK    8  A    between atoms: C_12  and  C_98
REMARK    9  A    between atoms: C_13  and  O_14
REMARK   10  A    between atoms: C_13  and  C_15
REMARK   11  A    between atoms: C_15  and  C_16
REMARK   12  A    between atoms: C_15  and  C_97
REMARK   13  A    between atoms: C_22  and  C_96
REMARK   14  A    between atoms: C_25  and  O_95
REMARK   15  A    between atoms: C_31  and  O_90
REMARK   16  A    between atoms: C_32  and  C_89
REMARK   17  A    between atoms: C_33  and  O_88
REMARK   18  A    between atoms: C_35  and  O_87
REMARK   19  A    between atoms: C_36  and  C_86
REMARK   20  A    between atoms: C_37  and  C_69
REMARK   21  A    between atoms: C_43  and  C_68
REMARK   22  A    between atoms: C_46  and  O_67
REMARK   23  A    between atoms: C_52  and  O_62
REMARK   24  A    between atoms: C_53  and  C_61
REMARK   25  A    between atoms: C_54  and  O_60
REMARK   26  A    between atoms: C_56  and  O_59
REMARK   27  A    between atoms: C_57  and  C_58
REMARK   28  A    between atoms: O_62  and  C_63
REMARK   29  A    between atoms: C_69  and  C_70
REMARK   30  A    between atoms: C_69  and  C_85
REMARK   31  A    between atoms: C_70  and  O_71
REMARK   32  A    between atoms: C_70  and  C_72
REMARK   33  A    between atoms: C_72  and  C_73
REMARK   34  A    between atoms: C_72  and  C_84
REMARK   35  A    between atoms: C_73  and  C_74
REMARK   36  A    between atoms: C_74  and  C_75
REMARK   37  A    between atoms: C_77  and  C_83
REMARK   38  A    between atoms: C_79  and  O_81
REMARK   39  A    between atoms: O_81  and  C_82
REMARK   40  A    between atoms: O_90  and  C_91
REMARK                            x       y       z     vdW  Elec       q    Type
REMARK                         _______ _______ _______ _____ _____    ______ ____
ROOT
ATOM      1  C   UNL     1     -14.127   8.226  19.956  0.00  0.00    +0.113 C 
ATOM      2  O   UNL     1     -13.181   8.736  18.977  0.00  0.00    -0.458 OA
ATOM      3  C   UNL     1     -13.623   8.785  17.690  0.00  0.00    +0.332 C 
ATOM      4  O   UNL     1     -14.715   8.400  17.285  0.00  0.00    -0.246 OA
ATOM      5  C   UNL     1     -12.636   9.361  16.764  0.00  0.00    +0.023 C 
ATOM      6  C   UNL     1     -11.655  10.201  17.125  0.00  0.00    -0.052 C 
ATOM      7  C   UNL     1     -10.760  10.880  16.193  0.00  0.00    -0.054 C 
ATOM      8  C   UNL     1     -11.223  11.446  15.059  0.00  0.00    -0.079 C 
ATOM      9  C   UNL     1     -10.446  12.358  14.142  0.00  0.00    -0.008 C 
ATOM     10  C   UNL     1     -11.295  13.431  13.435  0.00  0.00    +0.061 C 
ATOM     11  C   UNL     1     -12.312  14.222  14.270  0.00  0.00    +0.003 C 
ATOM     12  C   UNL     1     -11.789  15.215  15.325  0.00  0.00    +0.080 C 
ATOM     13  O   UNL     1     -12.926  16.071  15.597  0.00  0.00    -0.369 OA
ATOM     14  C   UNL     1     -12.964  16.708  16.884  0.00  0.00    +0.065 C 
ATOM     15  C   UNL     1     -11.864  17.784  17.004  0.00  0.00    +0.000 C 
ATOM     16  C   UNL     1     -11.951  18.619  18.299  0.00  0.00    +0.066 C 
ATOM     17  C   UNL     1     -10.761  19.626  18.367  0.00  0.00    +0.009 C 
ATOM     18  C   UNL     1      -9.901  19.454  19.646  0.00  0.00    +0.063 C 
ATOM     19  C   UNL     1      -9.151  18.105  19.699  0.00  0.00    -0.000 C 
ATOM     20  C   UNL     1      -8.138  18.066  20.862  0.00  0.00    +0.064 C 
ATOM     21  C   UNL     1      -7.198  16.820  20.883  0.00  0.00    +0.020 C 
ATOM     22  C   UNL     1      -7.957  15.457  20.943  0.00  0.00    +0.113 C 
ATOM     23  O   UNL     1      -8.743  15.458  22.164  0.00  0.00    -0.458 OA
ATOM     24  C   UNL     1     -10.037  15.055  22.051  0.00  0.00    +0.332 C 
ATOM     25  O   UNL     1     -10.562  14.588  21.055  0.00  0.00    -0.246 OA
ATOM     26  C   UNL     1     -10.713  15.236  23.356  0.00  0.00    +0.023 C 
ATOM     27  C   UNL     1     -12.015  14.934  23.466  0.00  0.00    -0.052 C 
ATOM     28  C   UNL     1     -12.817  15.027  24.680  0.00  0.00    -0.054 C 
ATOM     29  C   UNL     1     -12.421  14.442  25.829  0.00  0.00    -0.079 C 
ATOM     30  C   UNL     1     -13.158  14.413  27.140  0.00  0.00    -0.008 C 
ATOM     31  C   UNL     1     -13.827  13.061  27.482  0.00  0.00    +0.061 C 
ATOM     32  C   UNL     1     -12.832  12.019  28.035  0.00  0.00    +0.003 C 
ATOM     33  C   UNL     1     -13.520  10.769  28.629  0.00  0.00    +0.080 C 
ATOM     34  O   UNL     1     -13.909   9.839  27.603  0.00  0.00    -0.369 OA
ATOM     35  C   UNL     1     -13.013   8.733  27.352  0.00  0.00    +0.065 C 
ATOM     36  C   UNL     1     -13.719   7.863  26.296  0.00  0.00    +0.000 C 
ATOM     37  C   UNL     1     -12.993   6.619  25.731  0.00  0.00    +0.066 C 
ATOM     38  C   UNL     1     -11.684   6.995  24.969  0.00  0.00    +0.009 C 
ATOM     39  C   UNL     1     -11.549   6.316  23.577  0.00  0.00    +0.063 C 
ATOM     40  C   UNL     1     -12.808   6.417  22.699  0.00  0.00    -0.000 C 
ATOM     41  C   UNL     1     -12.479   6.535  21.199  0.00  0.00    +0.064 C 
ATOM     42  C   UNL     1     -13.775   6.750  20.361  0.00  0.00    +0.020 C 
ATOM     43  C   UNL     1     -12.719   7.954  28.642  0.00  0.00    -0.008 C 
ATOM     44  C   UNL     1     -12.304   8.872  29.743  0.00  0.00    -0.083 C 
ATOM     45  C   UNL     1     -12.678  10.153  29.722  0.00  0.00    -0.059 C 
ATOM     46  C   UNL     1     -12.955  15.623  17.975  0.00  0.00    -0.008 C 
ATOM     47  C   UNL     1     -11.799  14.698  17.784  0.00  0.00    -0.083 C 
ATOM     48  C   UNL     1     -11.257  14.544  16.569  0.00  0.00    -0.059 C 
ATOM     49  H   UNL     1     -15.114   8.147  19.476  0.00  0.00    +0.074 HD
ATOM     50  H   UNL     1     -12.822   9.119  15.723  0.00  0.00    +0.069 HD
ATOM     51  H   UNL     1     -11.501  10.463  18.169  0.00  0.00    +0.062 HD
ATOM     52  H   UNL     1     -12.270  11.314  14.792  0.00  0.00    +0.058 HD
ATOM     53  H   UNL     1      -9.616  12.849  14.662  0.00  0.00    +0.033 HD
ATOM     54  H   UNL     1      -9.973  11.739  13.366  0.00  0.00    +0.033 HD
ATOM     55  H   UNL     1     -11.861  12.916  12.648  0.00  0.00    +0.060 HD
ATOM     56  H   UNL     1     -13.036  13.542  14.737  0.00  0.00    +0.032 HD
ATOM     57  H   UNL     1     -12.910  14.808  13.556  0.00  0.00    +0.032 HD
ATOM     58  H   UNL     1     -11.008  15.850  14.892  0.00  0.00    +0.064 HD
ATOM     59  H   UNL     1     -13.938  17.212  16.928  0.00  0.00    +0.060 HD
ATOM     60  H   UNL     1     -11.960  18.450  16.135  0.00  0.00    +0.032 HD
ATOM     61  H   UNL     1     -10.869  17.327  16.926  0.00  0.00    +0.032 HD
ATOM     62  H   UNL     1     -11.913  17.934  19.151  0.00  0.00    +0.060 HD
ATOM     63  H   UNL     1     -10.084  19.430  17.523  0.00  0.00    +0.035 HD
ATOM     64  H   UNL     1      -9.157  20.260  19.673  0.00  0.00    +0.060 HD
ATOM     65  H   UNL     1      -9.882  17.301  19.846  0.00  0.00    +0.032 HD
ATOM     66  H   UNL     1      -8.637  17.937  18.746  0.00  0.00    +0.032 HD
ATOM     67  H   UNL     1      -7.504  18.960  20.803  0.00  0.00    +0.060 HD
ATOM     68  H   UNL     1      -6.615  16.914  21.808  0.00  0.00    +0.036 HD
ATOM     69  H   UNL     1      -8.610  15.421  20.063  0.00  0.00    +0.074 HD
ATOM     70  H   UNL     1     -10.127  15.614  24.183  0.00  0.00    +0.069 HD
ATOM     71  H   UNL     1     -12.557  14.586  22.585  0.00  0.00    +0.062 HD
ATOM     72  H   UNL     1     -11.460  13.934  25.855  0.00  0.00    +0.058 HD
ATOM     73  H   UNL     1     -12.454  14.685  27.939  0.00  0.00    +0.033 HD
ATOM     74  H   UNL     1     -13.910  15.210  27.178  0.00  0.00    +0.033 HD
ATOM     75  H   UNL     1     -14.348  12.649  26.610  0.00  0.00    +0.060 HD
ATOM     76  H   UNL     1     -12.248  12.509  28.824  0.00  0.00    +0.032 HD
ATOM     77  H   UNL     1     -12.135  11.726  27.241  0.00  0.00    +0.032 HD
ATOM     78  H   UNL     1     -14.456  11.064  29.115  0.00  0.00    +0.064 HD
ATOM     79  H   UNL     1     -12.088   9.148  26.938  0.00  0.00    +0.060 HD
ATOM     80  H   UNL     1     -13.985   8.514  25.449  0.00  0.00    +0.032 HD
ATOM     81  H   UNL     1     -14.686   7.553  26.710  0.00  0.00    +0.032 HD
ATOM     82  H   UNL     1     -13.696   6.175  25.020  0.00  0.00    +0.060 HD
ATOM     83  H   UNL     1     -11.727   8.067  24.750  0.00  0.00    +0.035 HD
ATOM     84  H   UNL     1     -10.713   6.811  23.066  0.00  0.00    +0.060 HD
ATOM     85  H   UNL     1     -13.417   5.515  22.847  0.00  0.00    +0.032 HD
ATOM     86  H   UNL     1     -13.411   7.264  23.014  0.00  0.00    +0.032 HD
ATOM     87  H   UNL     1     -11.775   7.351  21.015  0.00  0.00    +0.060 HD
ATOM     88  H   UNL     1     -14.621   6.382  20.959  0.00  0.00    +0.036 HD
ATOM     89  H   UNL     1     -11.920   7.224  28.476  0.00  0.00    +0.033 HD
ATOM     90  H   UNL     1     -13.608   7.409  28.980  0.00  0.00    +0.033 HD
ATOM     91  H   UNL     1     -11.735   8.468  30.575  0.00  0.00    +0.057 HD
ATOM     92  H   UNL     1     -12.399  10.801  30.550  0.00  0.00    +0.059 HD
ATOM     93  H   UNL     1     -13.872  15.025  17.910  0.00  0.00    +0.033 HD
ATOM     94  H   UNL     1     -12.928  16.061  18.975  0.00  0.00    +0.033 HD
ATOM     95  H   UNL     1     -11.399  14.169  18.644  0.00  0.00    +0.057 HD
ATOM     96  H   UNL     1     -10.380  13.914  16.469  0.00  0.00    +0.059 HD
ENDROOT
BRANCH  28  97
ATOM     97  C   UNL     1     -14.136  15.727  24.477  0.00  0.00    -0.040 C 
ATOM     98  H   UNL     1     -14.589  15.995  25.439  0.00  0.00    +0.028 HD
ATOM     99  H   UNL     1     -14.831  15.071  23.942  0.00  0.00    +0.028 HD
ATOM    100  H   UNL     1     -14.050  16.657  23.908  0.00  0.00    +0.028 HD
ENDBRANCH  28  97
BRANCH  21 101
ATOM    101  C   UNL     1      -6.221  16.889  19.704  0.00  0.00    -0.057 C 
ATOM    102  H   UNL     1      -6.610  16.365  18.825  0.00  0.00    +0.023 HD
ATOM    103  H   UNL     1      -5.256  16.442  19.963  0.00  0.00    +0.023 HD
ATOM    104  H   UNL     1      -6.019  17.927  19.419  0.00  0.00    +0.023 HD
ENDBRANCH  21 101
BRANCH  42 105
ATOM    105  C   UNL     1     -13.771   5.869  19.089  0.00  0.00    -0.057 C 
ATOM    106  H   UNL     1     -12.770   5.472  18.888  0.00  0.00    +0.023 HD
ATOM    107  H   UNL     1     -14.466   5.026  19.179  0.00  0.00    +0.023 HD
ATOM    108  H   UNL     1     -14.055   6.451  18.205  0.00  0.00    +0.023 HD
ENDBRANCH  42 105
BRANCH  17 109
ATOM    109  C   UNL     1     -11.201  21.091  18.225  0.00  0.00    -0.058 C 
ATOM    110  H   UNL     1     -10.515  21.668  17.598  0.00  0.00    +0.023 HD
ATOM    111  H   UNL     1     -12.195  21.150  17.767  0.00  0.00    +0.023 HD
ATOM    112  H   UNL     1     -11.266  21.575  19.205  0.00  0.00    +0.023 HD
ENDBRANCH  17 109
BRANCH  38 113
ATOM    113  C   UNL     1     -10.409   6.745  25.791  0.00  0.00    -0.058 C 
ATOM    114  H   UNL     1     -10.607   6.721  26.869  0.00  0.00    +0.023 HD
ATOM    115  H   UNL     1      -9.657   7.517  25.605  0.00  0.00    +0.023 HD
ATOM    116  H   UNL     1      -9.961   5.779  25.526  0.00  0.00    +0.023 HD
ENDBRANCH  38 113
BRANCH   7 117
ATOM    117  C   UNL     1      -9.338  10.977  16.669  0.00  0.00    -0.040 C 
ATOM    118  H   UNL     1      -8.646  10.620  15.897  0.00  0.00    +0.028 HD
ATOM    119  H   UNL     1      -9.199  10.373  17.568  0.00  0.00    +0.028 HD
ATOM    120  H   UNL     1      -9.041  12.003  16.899  0.00  0.00    +0.028 HD
ENDBRANCH   7 117
BRANCH   1 121
ATOM    121  C   UNL     1     -14.362   9.325  21.058  0.00  0.00    +0.020 C 
ATOM    122  H   UNL     1     -14.750  10.186  20.492  0.00  0.00    +0.036 HD
BRANCH 121 123
ATOM    123  C   UNL     1     -15.484   8.851  22.000  0.00  0.00    -0.057 C 
ATOM    124  H   UNL     1     -15.174   8.913  23.045  0.00  0.00    +0.023 HD
ATOM    125  H   UNL     1     -15.788   7.822  21.799  0.00  0.00    +0.023 HD
ATOM    126  H   UNL     1     -16.375   9.483  21.930  0.00  0.00    +0.023 HD
ENDBRANCH 121 123
BRANCH 121 127
ATOM    127  C   UNL     1     -13.098   9.876  21.802  0.00  0.00    +0.064 C 
ATOM    128  H   UNL     1     -12.810   9.157  22.565  0.00  0.00    +0.060 HD
BRANCH 127 129
ATOM    129  C   UNL     1     -13.169  11.280  22.491  0.00  0.00    -0.017 C 
ATOM    130  H   UNL     1     -12.592  11.984  21.877  0.00  0.00    +0.032 HD
BRANCH 129 131
ATOM    131  C   UNL     1     -14.561  11.888  22.651  0.00  0.00    -0.060 C 
ATOM    132  H   UNL     1     -14.605  12.541  23.528  0.00  0.00    +0.023 HD
ATOM    133  H   UNL     1     -14.871  12.437  21.759  0.00  0.00    +0.023 HD
ATOM    134  H   UNL     1     -15.309  11.104  22.827  0.00  0.00    +0.023 HD
ENDBRANCH 129 131
BRANCH 129 135
ATOM    135  C   UNL     1     -12.507  11.243  23.900  0.00  0.00    -0.046 C 
ATOM    136  H   UNL     1     -12.826  10.341  24.434  0.00  0.00    +0.027 HD
ATOM    137  H   UNL     1     -12.887  12.080  24.491  0.00  0.00    +0.027 HD
BRANCH 135 138
ATOM    138  C   UNL     1     -10.981  11.336  23.886  0.00  0.00    -0.026 C 
ATOM    139  H   UNL     1     -10.671  12.076  23.143  0.00  0.00    +0.029 HD
ATOM    140  H   UNL     1     -10.555  10.385  23.556  0.00  0.00    +0.029 HD
BRANCH 138 143
ATOM    141  C   UNL     1      -8.571  12.913  26.261  0.00  0.00    +0.059 C 
ATOM    142  O   UNL     1      -9.122  12.347  25.062  0.00  0.00    -0.373 OA
ATOM    143  C   UNL     1     -10.387  11.707  25.256  0.00  0.00    +0.061 C 
ATOM    144  C   UNL     1     -10.202  10.477  26.146  0.00  0.00    -0.000 C 
ATOM    145  C   UNL     1      -9.102  10.664  27.197  0.00  0.00    +0.063 C 
ATOM    146  C   UNL     1      -8.949  12.143  27.526  0.00  0.00    -0.000 C 
ATOM    147  H   UNL     1      -7.482  12.853  26.137  0.00  0.00    +0.059 HD
ATOM    148  H   UNL     1     -11.052  12.424  25.749  0.00  0.00    +0.060 HD
ATOM    149  H   UNL     1     -11.157  10.230  26.617  0.00  0.00    +0.032 HD
ATOM    150  H   UNL     1      -9.930   9.601  25.545  0.00  0.00    +0.032 HD
ATOM    151  H   UNL     1      -8.159  10.272  26.792  0.00  0.00    +0.060 HD
ATOM    152  H   UNL     1      -9.893  12.511  27.952  0.00  0.00    +0.032 HD
ATOM    153  H   UNL     1      -8.197  12.316  28.303  0.00  0.00    +0.032 HD
BRANCH 141 154
ATOM    154  C   UNL     1      -8.947  14.388  26.367  0.00  0.00    -0.039 C 
ATOM    155  H   UNL     1      -9.744  14.543  27.099  0.00  0.00    +0.025 HD
ATOM    156  H   UNL     1      -8.083  14.992  26.661  0.00  0.00    +0.025 HD
ATOM    157  H   UNL     1      -9.321  14.759  25.409  0.00  0.00    +0.025 HD
ENDBRANCH 141 154
BRANCH 145 158
ATOM    158  O   UNL     1      -9.475   9.896  28.346  0.00  0.00    -0.380 OA
BRANCH 158 159
ATOM    159  C   UNL     1      -8.945  10.401  29.566  0.00  0.00    +0.037 C 
ATOM    160  H   UNL     1      -9.740  10.377  30.317  0.00  0.00    +0.052 HD
ATOM    161  H   UNL     1      -8.624  11.439  29.447  0.00  0.00    +0.052 HD
ATOM    162  H   UNL     1      -8.113   9.786  29.922  0.00  0.00    +0.052 HD
ENDBRANCH 158 159
ENDBRANCH 145 158
ENDBRANCH 138 143
ENDBRANCH 135 138
ENDBRANCH 129 135
ENDBRANCH 127 129
BRANCH 127 163
ATOM    163  O   UNL     1     -11.972   9.954  20.917  0.00  0.00    -0.391 OA
ATOM    164  H   UNL     1     -11.749  10.889  20.767  0.00  0.00    +0.210 HD
ENDBRANCH 127 163
ENDBRANCH 121 127
ENDBRANCH   1 121
BRANCH  41 165
ATOM    165  O   UNL     1     -11.822   5.328  20.799  0.00  0.00    -0.391 OA
ATOM    166  H   UNL     1     -11.512   4.853  21.597  0.00  0.00    +0.210 HD
ENDBRANCH  41 165
BRANCH  39 167
ATOM    167  O   UNL     1     -11.196   4.937  23.669  0.00  0.00    -0.391 OA
ATOM    168  H   UNL     1     -11.997   4.406  23.498  0.00  0.00    +0.210 HD
ENDBRANCH  39 167
BRANCH  31 169
ATOM    169  O   UNL     1     -14.815  13.329  28.488  0.00  0.00    -0.391 OA
ATOM    170  H   UNL     1     -15.447  13.964  28.110  0.00  0.00    +0.210 HD
ENDBRANCH  31 169
BRANCH  22 171
ATOM    171  C   UNL     1      -7.030  14.190  20.912  0.00  0.00    +0.020 C 
ATOM    172  H   UNL     1      -6.054  14.525  20.545  0.00  0.00    +0.036 HD
BRANCH 171 173
ATOM    173  C   UNL     1      -6.840  13.586  22.306  0.00  0.00    -0.057 C 
ATOM    174  H   UNL     1      -7.438  14.117  23.048  0.00  0.00    +0.023 HD
ATOM    175  H   UNL     1      -5.794  13.626  22.625  0.00  0.00    +0.023 HD
ATOM    176  H   UNL     1      -7.130  12.532  22.333  0.00  0.00    +0.023 HD
ENDBRANCH 171 173
BRANCH 171 177
ATOM    177  C   UNL     1      -7.552  13.138  19.897  0.00  0.00    +0.064 C 
ATOM    178  H   UNL     1      -8.010  12.312  20.450  0.00  0.00    +0.060 HD
BRANCH 177 179
ATOM    179  O   UNL     1      -8.576  13.759  19.118  0.00  0.00    -0.391 OA
ATOM    180  H   UNL     1      -8.493  14.727  19.273  0.00  0.00    +0.210 HD
ENDBRANCH 177 179
BRANCH 177 181
ATOM    181  C   UNL     1      -6.510  12.502  18.934  0.00  0.00    -0.017 C 
ATOM    182  H   UNL     1      -6.965  12.446  17.936  0.00  0.00    +0.032 HD
BRANCH 181 183
ATOM    183  C   UNL     1      -5.291  13.435  18.819  0.00  0.00    -0.060 C 
ATOM    184  H   UNL     1      -5.119  13.746  17.783  0.00  0.00    +0.023 HD
ATOM    185  H   UNL     1      -5.413  14.336  19.427  0.00  0.00    +0.023 HD
ATOM    186  H   UNL     1      -4.384  12.940  19.170  0.00  0.00    +0.023 HD
ENDBRANCH 181 183
BRANCH 181 187
ATOM    187  C   UNL     1      -6.053  11.084  19.345  0.00  0.00    -0.046 C 
ATOM    188  H   UNL     1      -6.630  10.739  20.210  0.00  0.00    +0.027 HD
ATOM    189  H   UNL     1      -5.002  11.114  19.658  0.00  0.00    +0.027 HD
BRANCH 187 190
ATOM    190  C   UNL     1      -6.238  10.054  18.217  0.00  0.00    -0.026 C 
ATOM    191  H   UNL     1      -5.414  10.143  17.506  0.00  0.00    +0.029 HD
ATOM    192  H   UNL     1      -7.155  10.290  17.664  0.00  0.00    +0.029 HD
BRANCH 190 193
ATOM    193  C   UNL     1      -6.321   8.606  18.733  0.00  0.00    +0.061 C 
ATOM    194  O   UNL     1      -6.611   7.668  17.693  0.00  0.00    -0.373 OA
ATOM    195  C   UNL     1      -7.935   7.749  17.160  0.00  0.00    +0.059 C 
ATOM    196  C   UNL     1      -8.980   7.534  18.253  0.00  0.00    -0.000 C 
ATOM    197  C   UNL     1      -8.768   8.514  19.408  0.00  0.00    +0.063 C 
ATOM    198  C   UNL     1      -7.316   8.445  19.882  0.00  0.00    -0.000 C 
ATOM    199  H   UNL     1      -5.328   8.338  19.114  0.00  0.00    +0.060 HD
ATOM    200  H   UNL     1      -8.076   8.727  16.684  0.00  0.00    +0.059 HD
ATOM    201  H   UNL     1      -8.917   6.511  18.644  0.00  0.00    +0.032 HD
ATOM    202  H   UNL     1      -9.987   7.642  17.834  0.00  0.00    +0.032 HD
ATOM    203  H   UNL     1      -8.993   9.537  19.083  0.00  0.00    +0.060 HD
ATOM    204  H   UNL     1      -7.156   7.467  20.358  0.00  0.00    +0.032 HD
ATOM    205  H   UNL     1      -7.140   9.188  20.669  0.00  0.00    +0.032 HD
BRANCH 195 206
ATOM    206  C   UNL     1      -8.056   6.682  16.077  0.00  0.00    -0.039 C 
ATOM    207  H   UNL     1      -7.449   6.953  15.207  0.00  0.00    +0.025 HD
ATOM    208  H   UNL     1      -9.096   6.562  15.755  0.00  0.00    +0.025 HD
ATOM    209  H   UNL     1      -7.682   5.717  16.435  0.00  0.00    +0.025 HD
ENDBRANCH 195 206
BRANCH 197 210
ATOM    210  O   UNL     1      -9.598   8.190  20.532  0.00  0.00    -0.380 OA
BRANCH 210 211
ATOM    211  C   UNL     1      -8.946   8.336  21.787  0.00  0.00    +0.037 C 
ATOM    212  H   UNL     1      -9.715   8.479  22.553  0.00  0.00    +0.052 HD
ATOM    213  H   UNL     1      -8.295   9.215  21.791  0.00  0.00    +0.052 HD
ATOM    214  H   UNL     1      -8.373   7.437  22.034  0.00  0.00    +0.052 HD
ENDBRANCH 210 211
ENDBRANCH 197 210
ENDBRANCH 190 193
ENDBRANCH 187 190
ENDBRANCH 181 187
ENDBRANCH 177 181
ENDBRANCH 171 177
ENDBRANCH  22 171
BRANCH  20 215
ATOM    215  O   UNL     1      -8.867  18.192  22.091  0.00  0.00    -0.391 OA
ATOM    216  H   UNL     1      -8.216  18.282  22.810  0.00  0.00    +0.210 HD
ENDBRANCH  20 215
BRANCH  18 217
ATOM    217  O   UNL     1     -10.722  19.607  20.806  0.00  0.00    -0.391 OA
ATOM    218  H   UNL     1     -11.650  19.592  20.493  0.00  0.00    +0.210 HD
ENDBRANCH  18 217
BRANCH  10 219
ATOM    219  O   UNL     1     -10.411  14.336  12.766  0.00  0.00    -0.391 OA
ATOM    220  H   UNL     1     -10.173  15.034  13.403  0.00  0.00    +0.210 HD
ENDBRANCH  10 219
BRANCH  37 221
ATOM    221  O   UNL     1     -12.718   5.617  26.710  0.00  0.00    -0.379 OA
BRANCH 221 222
ATOM    222  C   UNL     1     -13.347   4.366  26.464  0.00  0.00    +0.037 C 
ATOM    223  H   UNL     1     -13.021   3.667  27.239  0.00  0.00    +0.052 HD
ATOM    224  H   UNL     1     -14.434   4.454  26.522  0.00  0.00    +0.052 HD
ATOM    225  H   UNL     1     -13.051   3.968  25.489  0.00  0.00    +0.052 HD
ENDBRANCH 221 222
ENDBRANCH  37 221
BRANCH  16 226
ATOM    226  O   UNL     1     -13.221  19.289  18.269  0.00  0.00    -0.379 OA
BRANCH 226 227
ATOM    227  C   UNL     1     -13.983  19.080  19.451  0.00  0.00    +0.037 C 
ATOM    228  H   UNL     1     -14.116  20.008  20.016  0.00  0.00    +0.052 HD
ATOM    229  H   UNL     1     -13.491  18.327  20.077  0.00  0.00    +0.052 HD
ATOM    230  H   UNL     1     -14.971  18.705  19.165  0.00  0.00    +0.052 HD
ENDBRANCH 226 227
ENDBRANCH  16 226
TORSDOF 40
ENDMDL
MODEL 8
REMARK VINA RESULT:      -3.9      2.554     10.171
REMARK  Name = Swinholide A_conf1
REMARK  40 active torsions:
REMARK  status: ('A' for Active; 'I' for Inactive)
REMARK    1  A    between atoms: C_1  and  C_2
REMARK    2  A    between atoms: C_4  and  C_10
REMARK    3  A    between atoms: C_6  and  O_8
REMARK    4  A    between atoms: O_8  and  C_9
REMARK    5  A    between atoms: C_10  and  C_11
REMARK    6  A    between atoms: C_11  and  C_12
REMARK    7  A    between atoms: C_12  and  C_13
REMARK    8  A    between atoms: C_12  and  C_98
REMARK    9  A    between atoms: C_13  and  O_14
REMARK   10  A    between atoms: C_13  and  C_15
REMARK   11  A    between atoms: C_15  and  C_16
REMARK   12  A    between atoms: C_15  and  C_97
REMARK   13  A    between atoms: C_22  and  C_96
REMARK   14  A    between atoms: C_25  and  O_95
REMARK   15  A    between atoms: C_31  and  O_90
REMARK   16  A    between atoms: C_32  and  C_89
REMARK   17  A    between atoms: C_33  and  O_88
REMARK   18  A    between atoms: C_35  and  O_87
REMARK   19  A    between atoms: C_36  and  C_86
REMARK   20  A    between atoms: C_37  and  C_69
REMARK   21  A    between atoms: C_43  and  C_68
REMARK   22  A    between atoms: C_46  and  O_67
REMARK   23  A    between atoms: C_52  and  O_62
REMARK   24  A    between atoms: C_53  and  C_61
REMARK   25  A    between atoms: C_54  and  O_60
REMARK   26  A    between atoms: C_56  and  O_59
REMARK   27  A    between atoms: C_57  and  C_58
REMARK   28  A    between atoms: O_62  and  C_63
REMARK   29  A    between atoms: C_69  and  C_70
REMARK   30  A    between atoms: C_69  and  C_85
REMARK   31  A    between atoms: C_70  and  O_71
REMARK   32  A    between atoms: C_70  and  C_72
REMARK   33  A    between atoms: C_72  and  C_73
REMARK   34  A    between atoms: C_72  and  C_84
REMARK   35  A    between atoms: C_73  and  C_74
REMARK   36  A    between atoms: C_74  and  C_75
REMARK   37  A    between atoms: C_77  and  C_83
REMARK   38  A    between atoms: C_79  and  O_81
REMARK   39  A    between atoms: O_81  and  C_82
REMARK   40  A    between atoms: O_90  and  C_91
REMARK                            x       y       z     vdW  Elec       q    Type
REMARK                         _______ _______ _______ _____ _____    ______ ____
ROOT
ATOM      1  C   UNL     1      -4.835  15.819  21.429  0.00  0.00    +0.113 C 
ATOM      2  O   UNL     1      -5.206  14.816  20.445  0.00  0.00    -0.458 OA
ATOM      3  C   UNL     1      -4.367  13.749  20.335  0.00  0.00    +0.332 C 
ATOM      4  O   UNL     1      -3.321  13.586  20.952  0.00  0.00    -0.246 OA
ATOM      5  C   UNL     1      -4.832  12.751  19.360  0.00  0.00    +0.023 C 
ATOM      6  C   UNL     1      -6.111  12.587  18.990  0.00  0.00    -0.052 C 
ATOM      7  C   UNL     1      -6.594  11.511  18.129  0.00  0.00    -0.054 C 
ATOM      8  C   UNL     1      -6.175  10.239  18.290  0.00  0.00    -0.079 C 
ATOM      9  C   UNL     1      -6.762   9.021  17.622  0.00  0.00    -0.008 C 
ATOM     10  C   UNL     1      -6.695   7.733  18.465  0.00  0.00    +0.061 C 
ATOM     11  C   UNL     1      -7.107   7.807  19.942  0.00  0.00    +0.003 C 
ATOM     12  C   UNL     1      -8.589   8.050  20.284  0.00  0.00    +0.080 C 
ATOM     13  O   UNL     1      -8.703   7.636  21.668  0.00  0.00    -0.369 OA
ATOM     14  C   UNL     1      -9.756   8.237  22.440  0.00  0.00    +0.065 C 
ATOM     15  C   UNL     1     -11.141   7.748  21.964  0.00  0.00    +0.000 C 
ATOM     16  C   UNL     1     -12.307   8.227  22.854  0.00  0.00    +0.066 C 
ATOM     17  C   UNL     1     -13.667   7.749  22.257  0.00  0.00    +0.009 C 
ATOM     18  C   UNL     1     -14.641   8.921  21.966  0.00  0.00    +0.063 C 
ATOM     19  C   UNL     1     -14.142   9.864  20.849  0.00  0.00    -0.000 C 
ATOM     20  C   UNL     1     -15.231  10.875  20.434  0.00  0.00    +0.064 C 
ATOM     21  C   UNL     1     -14.889  11.744  19.184  0.00  0.00    +0.020 C 
ATOM     22  C   UNL     1     -13.578  12.579  19.334  0.00  0.00    +0.113 C 
ATOM     23  O   UNL     1     -13.762  13.464  20.471  0.00  0.00    -0.458 OA
ATOM     24  C   UNL     1     -12.739  13.523  21.365  0.00  0.00    +0.332 C 
ATOM     25  O   UNL     1     -11.646  12.996  21.244  0.00  0.00    -0.246 OA
ATOM     26  C   UNL     1     -13.147  14.370  22.509  0.00  0.00    +0.023 C 
ATOM     27  C   UNL     1     -12.299  14.538  23.534  0.00  0.00    -0.052 C 
ATOM     28  C   UNL     1     -12.534  15.359  24.715  0.00  0.00    -0.054 C 
ATOM     29  C   UNL     1     -12.913  16.649  24.610  0.00  0.00    -0.079 C 
ATOM     30  C   UNL     1     -13.147  17.627  25.728  0.00  0.00    -0.008 C 
ATOM     31  C   UNL     1     -12.030  18.682  25.917  0.00  0.00    +0.061 C 
ATOM     32  C   UNL     1     -12.120  19.842  24.903  0.00  0.00    +0.003 C 
ATOM     33  C   UNL     1     -11.189  21.027  25.244  0.00  0.00    +0.080 C 
ATOM     34  O   UNL     1      -9.837  20.778  24.824  0.00  0.00    -0.369 OA
ATOM     35  C   UNL     1      -9.433  21.345  23.557  0.00  0.00    +0.065 C 
ATOM     36  C   UNL     1      -7.937  21.009  23.414  0.00  0.00    +0.000 C 
ATOM     37  C   UNL     1      -7.192  21.404  22.117  0.00  0.00    +0.066 C 
ATOM     38  C   UNL     1      -7.772  20.683  20.860  0.00  0.00    +0.009 C 
ATOM     39  C   UNL     1      -6.691  20.035  19.951  0.00  0.00    +0.063 C 
ATOM     40  C   UNL     1      -5.655  19.187  20.707  0.00  0.00    -0.000 C 
ATOM     41  C   UNL     1      -5.169  17.974  19.892  0.00  0.00    +0.064 C 
ATOM     42  C   UNL     1      -4.211  17.083  20.737  0.00  0.00    +0.020 C 
ATOM     43  C   UNL     1      -9.693  22.857  23.519  0.00  0.00    -0.008 C 
ATOM     44  C   UNL     1     -11.088  23.175  23.942  0.00  0.00    -0.083 C 
ATOM     45  C   UNL     1     -11.757  22.329  24.729  0.00  0.00    -0.059 C 
ATOM     46  C   UNL     1      -9.556   9.762  22.449  0.00  0.00    -0.008 C 
ATOM     47  C   UNL     1      -9.444  10.284  21.054  0.00  0.00    -0.083 C 
ATOM     48  C   UNL     1      -9.028   9.479  20.068  0.00  0.00    -0.059 C 
ATOM     49  H   UNL     1      -4.016  15.415  22.043  0.00  0.00    +0.074 HD
ATOM     50  H   UNL     1      -4.052  12.077  19.021  0.00  0.00    +0.069 HD
ATOM     51  H   UNL     1      -6.889  13.248  19.364  0.00  0.00    +0.062 HD
ATOM     52  H   UNL     1      -5.393  10.029  19.019  0.00  0.00    +0.058 HD
ATOM     53  H   UNL     1      -7.799   9.187  17.311  0.00  0.00    +0.033 HD
ATOM     54  H   UNL     1      -6.207   8.842  16.690  0.00  0.00    +0.033 HD
ATOM     55  H   UNL     1      -5.651   7.396  18.442  0.00  0.00    +0.060 HD
ATOM     56  H   UNL     1      -6.485   8.535  20.478  0.00  0.00    +0.032 HD
ATOM     57  H   UNL     1      -6.837   6.838  20.388  0.00  0.00    +0.032 HD
ATOM     58  H   UNL     1      -9.228   7.381  19.697  0.00  0.00    +0.064 HD
ATOM     59  H   UNL     1      -9.603   7.878  23.465  0.00  0.00    +0.060 HD
ATOM     60  H   UNL     1     -11.118   6.649  21.957  0.00  0.00    +0.032 HD
ATOM     61  H   UNL     1     -11.320   8.053  20.925  0.00  0.00    +0.032 HD
ATOM     62  H   UNL     1     -12.278   9.321  22.897  0.00  0.00    +0.060 HD
ATOM     63  H   UNL     1     -13.478   7.270  21.286  0.00  0.00    +0.035 HD
ATOM     64  H   UNL     1     -15.604   8.500  21.653  0.00  0.00    +0.060 HD
ATOM     65  H   UNL     1     -13.272  10.420  21.220  0.00  0.00    +0.032 HD
ATOM     66  H   UNL     1     -13.830   9.269  19.983  0.00  0.00    +0.032 HD
ATOM     67  H   UNL     1     -16.154  10.323  20.213  0.00  0.00    +0.060 HD
ATOM     68  H   UNL     1     -15.722  12.453  19.088  0.00  0.00    +0.036 HD
ATOM     69  H   UNL     1     -12.770  11.865  19.528  0.00  0.00    +0.074 HD
ATOM     70  H   UNL     1     -14.128  14.825  22.478  0.00  0.00    +0.069 HD
ATOM     71  H   UNL     1     -11.335  14.026  23.516  0.00  0.00    +0.062 HD
ATOM     72  H   UNL     1     -13.090  17.065  23.620  0.00  0.00    +0.058 HD
ATOM     73  H   UNL     1     -14.104  18.137  25.548  0.00  0.00    +0.033 HD
ATOM     74  H   UNL     1     -13.310  17.099  26.675  0.00  0.00    +0.033 HD
ATOM     75  H   UNL     1     -11.039  18.218  25.861  0.00  0.00    +0.060 HD
ATOM     76  H   UNL     1     -13.159  20.198  24.902  0.00  0.00    +0.032 HD
ATOM     77  H   UNL     1     -11.900  19.463  23.898  0.00  0.00    +0.032 HD
ATOM     78  H   UNL     1     -11.132  21.145  26.331  0.00  0.00    +0.064 HD
ATOM     79  H   UNL     1     -10.006  20.839  22.773  0.00  0.00    +0.060 HD
ATOM     80  H   UNL     1      -7.823  19.923  23.553  0.00  0.00    +0.032 HD
ATOM     81  H   UNL     1      -7.412  21.446  24.273  0.00  0.00    +0.032 HD
ATOM     82  H   UNL     1      -6.161  21.071  22.265  0.00  0.00    +0.060 HD
ATOM     83  H   UNL     1      -8.377  19.841  21.214  0.00  0.00    +0.035 HD
ATOM     84  H   UNL     1      -7.225  19.398  19.235  0.00  0.00    +0.060 HD
ATOM     85  H   UNL     1      -4.783  19.815  20.939  0.00  0.00    +0.032 HD
ATOM     86  H   UNL     1      -6.069  18.855  21.655  0.00  0.00    +0.032 HD
ATOM     87  H   UNL     1      -6.014  17.379  19.534  0.00  0.00    +0.060 HD
ATOM     88  H   UNL     1      -3.802  17.708  21.543  0.00  0.00    +0.036 HD
ATOM     89  H   UNL     1      -9.537  23.249  22.509  0.00  0.00    +0.033 HD
ATOM     90  H   UNL     1      -9.011  23.388  24.194  0.00  0.00    +0.033 HD
ATOM     91  H   UNL     1     -11.527  24.120  23.635  0.00  0.00    +0.057 HD
ATOM     92  H   UNL     1     -12.760  22.592  25.059  0.00  0.00    +0.059 HD
ATOM     93  H   UNL     1      -8.624  10.010  22.971  0.00  0.00    +0.033 HD
ATOM     94  H   UNL     1     -10.365  10.269  22.979  0.00  0.00    +0.033 HD
ATOM     95  H   UNL     1      -9.720  11.315  20.854  0.00  0.00    +0.057 HD
ATOM     96  H   UNL     1      -9.015   9.866  19.056  0.00  0.00    +0.059 HD
ENDROOT
BRANCH  28  97
ATOM     97  C   UNL     1     -12.210  14.657  26.009  0.00  0.00    -0.040 C 
ATOM     98  H   UNL     1     -12.024  15.381  26.811  0.00  0.00    +0.028 HD
ATOM     99  H   UNL     1     -11.310  14.043  25.888  0.00  0.00    +0.028 HD
ATOM    100  H   UNL     1     -13.013  14.005  26.362  0.00  0.00    +0.028 HD
ENDBRANCH  28  97
BRANCH  21 101
ATOM    101  C   UNL     1     -14.875  10.864  17.929  0.00  0.00    -0.057 C 
ATOM    102  H   UNL     1     -14.487   9.863  18.142  0.00  0.00    +0.023 HD
ATOM    103  H   UNL     1     -14.256  11.305  17.142  0.00  0.00    +0.023 HD
ATOM    104  H   UNL     1     -15.882  10.757  17.512  0.00  0.00    +0.023 HD
ENDBRANCH  21 101
BRANCH  42 105
ATOM    105  C   UNL     1      -2.980  16.644  19.908  0.00  0.00    -0.057 C 
ATOM    106  H   UNL     1      -3.240  16.521  18.851  0.00  0.00    +0.023 HD
ATOM    107  H   UNL     1      -2.163  17.371  19.982  0.00  0.00    +0.023 HD
ATOM    108  H   UNL     1      -2.602  15.672  20.248  0.00  0.00    +0.023 HD
ENDBRANCH  42 105
BRANCH  17 109
ATOM    109  C   UNL     1     -14.367   6.690  23.121  0.00  0.00    -0.058 C 
ATOM    110  H   UNL     1     -15.457   6.770  23.070  0.00  0.00    +0.023 HD
ATOM    111  H   UNL     1     -14.095   5.682  22.788  0.00  0.00    +0.023 HD
ATOM    112  H   UNL     1     -14.062   6.778  24.170  0.00  0.00    +0.023 HD
ENDBRANCH  17 109
BRANCH  38 113
ATOM    113  C   UNL     1      -8.689  21.582  20.013  0.00  0.00    -0.058 C 
ATOM    114  H   UNL     1      -9.454  22.082  20.617  0.00  0.00    +0.023 HD
ATOM    115  H   UNL     1      -9.197  21.010  19.233  0.00  0.00    +0.023 HD
ATOM    116  H   UNL     1      -8.107  22.369  19.517  0.00  0.00    +0.023 HD
ENDBRANCH  38 113
BRANCH   7 117
ATOM    117  C   UNL     1      -7.655  11.937  17.154  0.00  0.00    -0.040 C 
ATOM    118  H   UNL     1      -8.550  12.284  17.682  0.00  0.00    +0.028 HD
ATOM    119  H   UNL     1      -7.934  11.100  16.510  0.00  0.00    +0.028 HD
ATOM    120  H   UNL     1      -7.333  12.764  16.517  0.00  0.00    +0.028 HD
ENDBRANCH   7 117
BRANCH   1 121
ATOM    121  C   UNL     1      -6.008  15.972  22.468  0.00  0.00    +0.020 C 
ATOM    122  H   UNL     1      -6.079  14.976  22.933  0.00  0.00    +0.036 HD
BRANCH 121 123
ATOM    123  C   UNL     1      -5.573  16.961  23.565  0.00  0.00    -0.057 C 
ATOM    124  H   UNL     1      -5.370  16.443  24.505  0.00  0.00    +0.023 HD
ATOM    125  H   UNL     1      -6.328  17.725  23.758  0.00  0.00    +0.023 HD
ATOM    126  H   UNL     1      -4.638  17.471  23.314  0.00  0.00    +0.023 HD
ENDBRANCH 121 123
BRANCH 121 127
ATOM    127  C   UNL     1      -7.440  16.246  21.896  0.00  0.00    +0.064 C 
ATOM    128  H   UNL     1      -7.375  17.070  21.191  0.00  0.00    +0.060 HD
BRANCH 127 129
ATOM    129  C   UNL     1      -8.608  16.575  22.886  0.00  0.00    -0.017 C 
ATOM    130  H   UNL     1      -8.242  17.328  23.597  0.00  0.00    +0.032 HD
BRANCH 129 131
ATOM    131  C   UNL     1      -9.882  17.148  22.269  0.00  0.00    -0.060 C 
ATOM    132  H   UNL     1     -10.281  17.963  22.880  0.00  0.00    +0.023 HD
ATOM    133  H   UNL     1      -9.720  17.490  21.245  0.00  0.00    +0.023 HD
ATOM    134  H   UNL     1     -10.673  16.386  22.236  0.00  0.00    +0.023 HD
ENDBRANCH 129 131
BRANCH 129 135
ATOM    135  C   UNL     1      -9.009  15.316  23.712  0.00  0.00    -0.046 C 
ATOM    136  H   UNL     1      -8.820  14.413  23.121  0.00  0.00    +0.027 HD
ATOM    137  H   UNL     1     -10.089  15.333  23.878  0.00  0.00    +0.027 HD
BRANCH 135 138
ATOM    138  C   UNL     1      -8.326  15.208  25.075  0.00  0.00    -0.026 C 
ATOM    139  H   UNL     1      -7.260  15.017  24.931  0.00  0.00    +0.029 HD
ATOM    140  H   UNL     1      -8.715  14.342  25.616  0.00  0.00    +0.029 HD
BRANCH 138 143
ATOM    141  C   UNL     1      -7.261  18.091  27.194  0.00  0.00    +0.059 C 
ATOM    142  O   UNL     1      -7.252  16.820  26.526  0.00  0.00    -0.373 OA
ATOM    143  C   UNL     1      -8.508  16.467  25.941  0.00  0.00    +0.061 C 
ATOM    144  C   UNL     1      -9.540  16.249  27.048  0.00  0.00    -0.000 C 
ATOM    145  C   UNL     1      -9.321  17.170  28.255  0.00  0.00    +0.063 C 
ATOM    146  C   UNL     1      -8.615  18.443  27.810  0.00  0.00    -0.000 C 
ATOM    147  H   UNL     1      -6.530  17.998  28.006  0.00  0.00    +0.059 HD
ATOM    148  H   UNL     1      -8.823  17.296  25.299  0.00  0.00    +0.060 HD
ATOM    149  H   UNL     1     -10.543  16.379  26.633  0.00  0.00    +0.032 HD
ATOM    150  H   UNL     1      -9.502  15.217  27.417  0.00  0.00    +0.032 HD
ATOM    151  H   UNL     1      -8.704  16.639  28.993  0.00  0.00    +0.060 HD
ATOM    152  H   UNL     1      -9.257  18.972  27.091  0.00  0.00    +0.032 HD
ATOM    153  H   UNL     1      -8.473  19.146  28.638  0.00  0.00    +0.032 HD
BRANCH 141 154
ATOM    154  C   UNL     1      -6.773  19.184  26.248  0.00  0.00    -0.039 C 
ATOM    155  H   UNL     1      -6.602  18.792  25.242  0.00  0.00    +0.025 HD
ATOM    156  H   UNL     1      -7.501  20.000  26.184  0.00  0.00    +0.025 HD
ATOM    157  H   UNL     1      -5.820  19.595  26.594  0.00  0.00    +0.025 HD
ENDBRANCH 141 154
BRANCH 145 158
ATOM    158  O   UNL     1     -10.605  17.440  28.824  0.00  0.00    -0.380 OA
BRANCH 158 159
ATOM    159  C   UNL     1     -11.291  16.275  29.266  0.00  0.00    +0.037 C 
ATOM    160  H   UNL     1     -10.631  15.416  29.119  0.00  0.00    +0.052 HD
ATOM    161  H   UNL     1     -12.196  16.111  28.673  0.00  0.00    +0.052 HD
ATOM    162  H   UNL     1     -11.544  16.341  30.328  0.00  0.00    +0.052 HD
ENDBRANCH 158 159
ENDBRANCH 145 158
ENDBRANCH 138 143
ENDBRANCH 135 138
ENDBRANCH 129 135
ENDBRANCH 127 129
BRANCH 127 163
ATOM    163  O   UNL     1      -7.911  15.131  21.127  0.00  0.00    -0.391 OA
ATOM    164  H   UNL     1      -7.342  14.362  21.298  0.00  0.00    +0.210 HD
ENDBRANCH 127 163
ENDBRANCH 121 127
ENDBRANCH   1 121
BRANCH  41 165
ATOM    165  O   UNL     1      -4.494  18.469  18.730  0.00  0.00    -0.391 OA
ATOM    166  H   UNL     1      -4.287  19.417  18.860  0.00  0.00    +0.210 HD
ENDBRANCH  41 165
BRANCH  39 167
ATOM    167  O   UNL     1      -5.979  20.995  19.172  0.00  0.00    -0.391 OA
ATOM    168  H   UNL     1      -6.188  20.837  18.231  0.00  0.00    +0.210 HD
ENDBRANCH  39 167
BRANCH  31 169
ATOM    169  O   UNL     1     -12.184  19.217  27.240  0.00  0.00    -0.391 OA
ATOM    170  H   UNL     1     -12.229  18.462  27.852  0.00  0.00    +0.210 HD
ENDBRANCH  31 169
BRANCH  22 171
ATOM    171  C   UNL     1     -13.189  13.420  18.067  0.00  0.00    +0.020 C 
ATOM    172  H   UNL     1     -13.802  13.045  17.241  0.00  0.00    +0.036 HD
BRANCH 171 173
ATOM    173  C   UNL     1     -13.491  14.910  18.254  0.00  0.00    -0.057 C 
ATOM    174  H   UNL     1     -12.570  15.487  18.352  0.00  0.00    +0.023 HD
ATOM    175  H   UNL     1     -14.098  15.090  19.146  0.00  0.00    +0.023 HD
ATOM    176  H   UNL     1     -14.055  15.317  17.410  0.00  0.00    +0.023 HD
ENDBRANCH 171 173
BRANCH 171 177
ATOM    177  C   UNL     1     -11.708  13.181  17.668  0.00  0.00    +0.064 C 
ATOM    178  H   UNL     1     -11.125  14.072  17.923  0.00  0.00    +0.060 HD
BRANCH 177 179
ATOM    179  O   UNL     1     -11.216  12.099  18.461  0.00  0.00    -0.391 OA
ATOM    180  H   UNL     1     -11.991  11.527  18.661  0.00  0.00    +0.210 HD
ENDBRANCH 177 179
BRANCH 177 181
ATOM    181  C   UNL     1     -11.416  12.874  16.172  0.00  0.00    -0.017 C 
ATOM    182  H   UNL     1     -11.148  11.812  16.092  0.00  0.00    +0.032 HD
BRANCH 181 183
ATOM    183  C   UNL     1     -12.704  13.075  15.353  0.00  0.00    -0.060 C 
ATOM    184  H   UNL     1     -12.827  14.119  15.048  0.00  0.00    +0.023 HD
ATOM    185  H   UNL     1     -12.710  12.455  14.452  0.00  0.00    +0.023 HD
ATOM    186  H   UNL     1     -13.584  12.795  15.933  0.00  0.00    +0.023 HD
ENDBRANCH 181 183
BRANCH 181 187
ATOM    187  C   UNL     1     -10.269  13.716  15.567  0.00  0.00    -0.046 C 
ATOM    188  H   UNL     1     -10.392  13.796  14.482  0.00  0.00    +0.027 HD
ATOM    189  H   UNL     1      -9.312  13.209  15.739  0.00  0.00    +0.027 HD
BRANCH 187 190
ATOM    190  C   UNL     1     -10.220  15.143  16.140  0.00  0.00    -0.026 C 
ATOM    191  H   UNL     1     -11.238  15.518  16.269  0.00  0.00    +0.029 HD
ATOM    192  H   UNL     1      -9.733  15.805  15.414  0.00  0.00    +0.029 HD
BRANCH 190 193
ATOM    193  C   UNL     1      -9.466  15.227  17.480  0.00  0.00    +0.061 C 
ATOM    194  O   UNL     1      -9.973  16.258  18.332  0.00  0.00    -0.373 OA
ATOM    195  C   UNL     1      -9.709  17.592  17.888  0.00  0.00    +0.059 C 
ATOM    196  C   UNL     1      -8.208  17.834  17.746  0.00  0.00    -0.000 C 
ATOM    197  C   UNL     1      -7.572  16.790  16.827  0.00  0.00    +0.063 C 
ATOM    198  C   UNL     1      -7.956  15.387  17.299  0.00  0.00    -0.000 C 
ATOM    199  H   UNL     1      -9.638  14.284  18.011  0.00  0.00    +0.060 HD
ATOM    200  H   UNL     1     -10.216  17.763  16.932  0.00  0.00    +0.059 HD
ATOM    201  H   UNL     1      -7.719  17.783  18.727  0.00  0.00    +0.032 HD
ATOM    202  H   UNL     1      -8.027  18.846  17.365  0.00  0.00    +0.032 HD
ATOM    203  H   UNL     1      -7.920  16.931  15.796  0.00  0.00    +0.060 HD
ATOM    204  H   UNL     1      -7.460  15.201  18.262  0.00  0.00    +0.032 HD
ATOM    205  H   UNL     1      -7.556  14.634  16.609  0.00  0.00    +0.032 HD
BRANCH 195 206
ATOM    206  C   UNL     1     -10.317  18.541  18.915  0.00  0.00    -0.039 C 
ATOM    207  H   UNL     1      -9.549  19.214  19.312  0.00  0.00    +0.025 HD
ATOM    208  H   UNL     1     -10.764  17.989  19.747  0.00  0.00    +0.025 HD
ATOM    209  H   UNL     1     -11.085  19.174  18.457  0.00  0.00    +0.025 HD
ENDBRANCH 195 206
BRANCH 197 210
ATOM    210  O   UNL     1      -6.141  16.870  16.850  0.00  0.00    -0.380 OA
BRANCH 210 211
ATOM    211  C   UNL     1      -5.497  15.602  16.887  0.00  0.00    +0.037 C 
ATOM    212  H   UNL     1      -5.469  15.268  17.929  0.00  0.00    +0.052 HD
ATOM    213  H   UNL     1      -4.468  15.676  16.526  0.00  0.00    +0.052 HD
ATOM    214  H   UNL     1      -6.054  14.866  16.300  0.00  0.00    +0.052 HD
ENDBRANCH 210 211
ENDBRANCH 197 210
ENDBRANCH 190 193
ENDBRANCH 187 190
ENDBRANCH 181 187
ENDBRANCH 177 181
ENDBRANCH 171 177
ENDBRANCH  22 171
BRANCH  20 215
ATOM    215  O   UNL     1     -15.535  11.693  21.573  0.00  0.00    -0.391 OA
ATOM    216  H   UNL     1     -14.910  11.454  22.281  0.00  0.00    +0.210 HD
ENDBRANCH  20 215
BRANCH  18 217
ATOM    217  O   UNL     1     -14.880   9.661  23.165  0.00  0.00    -0.391 OA
ATOM    218  H   UNL     1     -15.502  10.379  22.928  0.00  0.00    +0.210 HD
ENDBRANCH  18 217
BRANCH  10 219
ATOM    219  O   UNL     1      -7.457   6.720  17.801  0.00  0.00    -0.391 OA
ATOM    220  H   UNL     1      -7.000   6.515  16.964  0.00  0.00    +0.210 HD
ENDBRANCH  10 219
BRANCH  37 221
ATOM    221  O   UNL     1      -7.136  22.812  21.890  0.00  0.00    -0.379 OA
BRANCH 221 222
ATOM    222  C   UNL     1      -5.821  23.353  21.876  0.00  0.00    +0.037 C 
ATOM    223  H   UNL     1      -5.667  23.889  22.817  0.00  0.00    +0.052 HD
ATOM    224  H   UNL     1      -5.071  22.562  21.809  0.00  0.00    +0.052 HD
ATOM    225  H   UNL     1      -5.700  24.060  21.049  0.00  0.00    +0.052 HD
ENDBRANCH 221 222
ENDBRANCH  37 221
BRANCH  16 226
ATOM    226  O   UNL     1     -12.074   7.683  24.162  0.00  0.00    -0.379 OA
BRANCH 226 227
ATOM    227  C   UNL     1     -12.102   8.672  25.184  0.00  0.00    +0.037 C 
ATOM    228  H   UNL     1     -13.090   8.743  25.651  0.00  0.00    +0.052 HD
ATOM    229  H   UNL     1     -11.815   9.642  24.764  0.00  0.00    +0.052 HD
ATOM    230  H   UNL     1     -11.375   8.395  25.955  0.00  0.00    +0.052 HD
ENDBRANCH 226 227
ENDBRANCH  16 226
TORSDOF 40
ENDMDL
MODEL 9
REMARK VINA RESULT:      -3.9      4.702     13.062
REMARK  Name = Swinholide A_conf1
REMARK  40 active torsions:
REMARK  status: ('A' for Active; 'I' for Inactive)
REMARK    1  A    between atoms: C_1  and  C_2
REMARK    2  A    between atoms: C_4  and  C_10
REMARK    3  A    between atoms: C_6  and  O_8
REMARK    4  A    between atoms: O_8  and  C_9
REMARK    5  A    between atoms: C_10  and  C_11
REMARK    6  A    between atoms: C_11  and  C_12
REMARK    7  A    between atoms: C_12  and  C_13
REMARK    8  A    between atoms: C_12  and  C_98
REMARK    9  A    between atoms: C_13  and  O_14
REMARK   10  A    between atoms: C_13  and  C_15
REMARK   11  A    between atoms: C_15  and  C_16
REMARK   12  A    between atoms: C_15  and  C_97
REMARK   13  A    between atoms: C_22  and  C_96
REMARK   14  A    between atoms: C_25  and  O_95
REMARK   15  A    between atoms: C_31  and  O_90
REMARK   16  A    between atoms: C_32  and  C_89
REMARK   17  A    between atoms: C_33  and  O_88
REMARK   18  A    between atoms: C_35  and  O_87
REMARK   19  A    between atoms: C_36  and  C_86
REMARK   20  A    between atoms: C_37  and  C_69
REMARK   21  A    between atoms: C_43  and  C_68
REMARK   22  A    between atoms: C_46  and  O_67
REMARK   23  A    between atoms: C_52  and  O_62
REMARK   24  A    between atoms: C_53  and  C_61
REMARK   25  A    between atoms: C_54  and  O_60
REMARK   26  A    between atoms: C_56  and  O_59
REMARK   27  A    between atoms: C_57  and  C_58
REMARK   28  A    between atoms: O_62  and  C_63
REMARK   29  A    between atoms: C_69  and  C_70
REMARK   30  A    between atoms: C_69  and  C_85
REMARK   31  A    between atoms: C_70  and  O_71
REMARK   32  A    between atoms: C_70  and  C_72
REMARK   33  A    between atoms: C_72  and  C_73
REMARK   34  A    between atoms: C_72  and  C_84
REMARK   35  A    between atoms: C_73  and  C_74
REMARK   36  A    between atoms: C_74  and  C_75
REMARK   37  A    between atoms: C_77  and  C_83
REMARK   38  A    between atoms: C_79  and  O_81
REMARK   39  A    between atoms: O_81  and  C_82
REMARK   40  A    between atoms: O_90  and  C_91
REMARK                            x       y       z     vdW  Elec       q    Type
REMARK                         _______ _______ _______ _____ _____    ______ ____
ROOT
ATOM      1  C   UNL     1     -13.138  12.161  10.481  0.00  0.00    +0.113 C 
ATOM      2  O   UNL     1     -12.470  12.824  11.589  0.00  0.00    -0.458 OA
ATOM      3  C   UNL     1     -13.027  13.993  12.009  0.00  0.00    +0.332 C 
ATOM      4  O   UNL     1     -14.001  14.549  11.512  0.00  0.00    -0.246 OA
ATOM      5  C   UNL     1     -12.332  14.579  13.165  0.00  0.00    +0.023 C 
ATOM      6  C   UNL     1     -11.595  13.883  14.043  0.00  0.00    -0.052 C 
ATOM      7  C   UNL     1     -11.018  14.436  15.264  0.00  0.00    -0.054 C 
ATOM      8  C   UNL     1     -11.725  15.257  16.068  0.00  0.00    -0.079 C 
ATOM      9  C   UNL     1     -11.324  15.705  17.451  0.00  0.00    -0.008 C 
ATOM     10  C   UNL     1     -12.502  15.942  18.415  0.00  0.00    +0.061 C 
ATOM     11  C   UNL     1     -13.616  14.887  18.476  0.00  0.00    +0.003 C 
ATOM     12  C   UNL     1     -13.294  13.507  19.079  0.00  0.00    +0.080 C 
ATOM     13  O   UNL     1     -14.595  12.944  19.383  0.00  0.00    -0.369 OA
ATOM     14  C   UNL     1     -14.688  11.511  19.421  0.00  0.00    +0.065 C 
ATOM     15  C   UNL     1     -13.926  10.936  20.633  0.00  0.00    +0.000 C 
ATOM     16  C   UNL     1     -14.121   9.417  20.826  0.00  0.00    +0.066 C 
ATOM     17  C   UNL     1     -13.259   8.914  22.025  0.00  0.00    +0.009 C 
ATOM     18  C   UNL     1     -12.268   7.791  21.624  0.00  0.00    +0.063 C 
ATOM     19  C   UNL     1     -11.170   8.266  20.648  0.00  0.00    -0.000 C 
ATOM     20  C   UNL     1     -10.081   7.190  20.454  0.00  0.00    +0.064 C 
ATOM     21  C   UNL     1      -8.833   7.648  19.637  0.00  0.00    +0.020 C 
ATOM     22  C   UNL     1      -9.171   8.166  18.203  0.00  0.00    +0.113 C 
ATOM     23  O   UNL     1      -9.807   7.071  17.492  0.00  0.00    -0.458 OA
ATOM     24  C   UNL     1     -10.942   7.372  16.806  0.00  0.00    +0.332 C 
ATOM     25  O   UNL     1     -11.407   8.487  16.637  0.00  0.00    -0.246 OA
ATOM     26  C   UNL     1     -11.515   6.125  16.251  0.00  0.00    +0.023 C 
ATOM     27  C   UNL     1     -12.664   6.183  15.562  0.00  0.00    -0.052 C 
ATOM     28  C   UNL     1     -13.342   5.058  14.929  0.00  0.00    -0.054 C 
ATOM     29  C   UNL     1     -12.692   4.232  14.084  0.00  0.00    -0.079 C 
ATOM     30  C   UNL     1     -13.264   3.065  13.326  0.00  0.00    -0.008 C 
ATOM     31  C   UNL     1     -13.494   3.318  11.816  0.00  0.00    +0.061 C 
ATOM     32  C   UNL     1     -12.200   3.206  10.984  0.00  0.00    +0.003 C 
ATOM     33  C   UNL     1     -12.451   3.187   9.459  0.00  0.00    +0.080 C 
ATOM     34  O   UNL     1     -12.660   4.511   8.939  0.00  0.00    -0.369 OA
ATOM     35  C   UNL     1     -11.518   5.163   8.338  0.00  0.00    +0.065 C 
ATOM     36  C   UNL     1     -12.049   6.499   7.788  0.00  0.00    +0.000 C 
ATOM     37  C   UNL     1     -11.061   7.498   7.141  0.00  0.00    +0.066 C 
ATOM     38  C   UNL     1      -9.987   8.007   8.152  0.00  0.00    +0.009 C 
ATOM     39  C   UNL     1      -9.800   9.550   8.148  0.00  0.00    +0.063 C 
ATOM     40  C   UNL     1     -11.114  10.347   8.213  0.00  0.00    -0.000 C 
ATOM     41  C   UNL     1     -10.974  11.662   9.003  0.00  0.00    +0.064 C 
ATOM     42  C   UNL     1     -12.351  12.377   9.140  0.00  0.00    +0.020 C 
ATOM     43  C   UNL     1     -10.898   4.290   7.237  0.00  0.00    -0.008 C 
ATOM     44  C   UNL     1     -10.654   2.900   7.725  0.00  0.00    -0.083 C 
ATOM     45  C   UNL     1     -11.372   2.413   8.740  0.00  0.00    -0.059 C 
ATOM     46  C   UNL     1     -14.273  10.951  18.049  0.00  0.00    -0.008 C 
ATOM     47  C   UNL     1     -12.927  11.467  17.658  0.00  0.00    -0.083 C 
ATOM     48  C   UNL     1     -12.481  12.626  18.161  0.00  0.00    -0.059 C 
ATOM     49  H   UNL     1     -14.104  12.660  10.312  0.00  0.00    +0.074 HD
ATOM     50  H   UNL     1     -12.540  15.635  13.309  0.00  0.00    +0.069 HD
ATOM     51  H   UNL     1     -11.423  12.818  13.905  0.00  0.00    +0.062 HD
ATOM     52  H   UNL     1     -12.714  15.583  15.750  0.00  0.00    +0.058 HD
ATOM     53  H   UNL     1     -10.619  15.008  17.918  0.00  0.00    +0.033 HD
ATOM     54  H   UNL     1     -10.772  16.651  17.357  0.00  0.00    +0.033 HD
ATOM     55  H   UNL     1     -12.974  16.885  18.110  0.00  0.00    +0.060 HD
ATOM     56  H   UNL     1     -14.074  14.755  17.488  0.00  0.00    +0.032 HD
ATOM     57  H   UNL     1     -14.419  15.320  19.092  0.00  0.00    +0.032 HD
ATOM     58  H   UNL     1     -12.766  13.624  20.032  0.00  0.00    +0.064 HD
ATOM     59  H   UNL     1     -15.755  11.294  19.556  0.00  0.00    +0.060 HD
ATOM     60  H   UNL     1     -14.286  11.464  21.528  0.00  0.00    +0.032 HD
ATOM     61  H   UNL     1     -12.855  11.164  20.559  0.00  0.00    +0.032 HD
ATOM     62  H   UNL     1     -13.813   8.913  19.904  0.00  0.00    +0.060 HD
ATOM     63  H   UNL     1     -12.636   9.746  22.386  0.00  0.00    +0.035 HD
ATOM     64  H   UNL     1     -11.780   7.419  22.534  0.00  0.00    +0.060 HD
ATOM     65  H   UNL     1     -11.630   8.477  19.676  0.00  0.00    +0.032 HD
ATOM     66  H   UNL     1     -10.721   9.191  21.029  0.00  0.00    +0.032 HD
ATOM     67  H   UNL     1      -9.730   6.865  21.443  0.00  0.00    +0.060 HD
ATOM     68  H   UNL     1      -8.214   6.748  19.525  0.00  0.00    +0.036 HD
ATOM     69  H   UNL     1      -9.868   9.002  18.327  0.00  0.00    +0.074 HD
ATOM     70  H   UNL     1     -10.982   5.200  16.426  0.00  0.00    +0.069 HD
ATOM     71  H   UNL     1     -13.168   7.144  15.447  0.00  0.00    +0.062 HD
ATOM     72  H   UNL     1     -11.629   4.387  13.913  0.00  0.00    +0.058 HD
ATOM     73  H   UNL     1     -12.592   2.206  13.454  0.00  0.00    +0.033 HD
ATOM     74  H   UNL     1     -14.202   2.730  13.784  0.00  0.00    +0.033 HD
ATOM     75  H   UNL     1     -13.958   4.297  11.649  0.00  0.00    +0.060 HD
ATOM     76  H   UNL     1     -11.704   2.270  11.272  0.00  0.00    +0.032 HD
ATOM     77  H   UNL     1     -11.526   4.031  11.246  0.00  0.00    +0.032 HD
ATOM     78  H   UNL     1     -13.382   2.649   9.250  0.00  0.00    +0.064 HD
ATOM     79  H   UNL     1     -10.789   5.348   9.133  0.00  0.00    +0.060 HD
ATOM     80  H   UNL     1     -12.565   7.018   8.611  0.00  0.00    +0.032 HD
ATOM     81  H   UNL     1     -12.848   6.273   7.071  0.00  0.00    +0.032 HD
ATOM     82  H   UNL     1     -11.675   8.348   6.827  0.00  0.00    +0.060 HD
ATOM     83  H   UNL     1     -10.349   7.775   9.160  0.00  0.00    +0.035 HD
ATOM     84  H   UNL     1      -9.187   9.794   9.026  0.00  0.00    +0.060 HD
ATOM     85  H   UNL     1     -11.430  10.593   7.190  0.00  0.00    +0.032 HD
ATOM     86  H   UNL     1     -11.897   9.734   8.650  0.00  0.00    +0.032 HD
ATOM     87  H   UNL     1     -10.547  11.480   9.993  0.00  0.00    +0.060 HD
ATOM     88  H   UNL     1     -13.000  12.003   8.335  0.00  0.00    +0.036 HD
ATOM     89  H   UNL     1      -9.946   4.714   6.901  0.00  0.00    +0.033 HD
ATOM     90  H   UNL     1     -11.563   4.226   6.368  0.00  0.00    +0.033 HD
ATOM     91  H   UNL     1      -9.919   2.287   7.213  0.00  0.00    +0.057 HD
ATOM     92  H   UNL     1     -11.208   1.386   9.060  0.00  0.00    +0.059 HD
ATOM     93  H   UNL     1     -14.988  11.278  17.284  0.00  0.00    +0.033 HD
ATOM     94  H   UNL     1     -14.275   9.859  18.045  0.00  0.00    +0.033 HD
ATOM     95  H   UNL     1     -12.316  10.883  16.976  0.00  0.00    +0.057 HD
ATOM     96  H   UNL     1     -11.477  12.946  17.909  0.00  0.00    +0.059 HD
ENDROOT
BRANCH  28  97
ATOM     97  C   UNL     1     -14.817   4.998  15.232  0.00  0.00    -0.040 C 
ATOM     98  H   UNL     1     -15.384   5.644  14.551  0.00  0.00    +0.028 HD
ATOM     99  H   UNL     1     -15.004   5.335  16.258  0.00  0.00    +0.028 HD
ATOM    100  H   UNL     1     -15.240   3.995  15.128  0.00  0.00    +0.028 HD
ENDBRANCH  28  97
BRANCH  21 101
ATOM    101  C   UNL     1      -8.029   8.671  20.448  0.00  0.00    -0.057 C 
ATOM    102  H   UNL     1      -7.147   8.217  20.911  0.00  0.00    +0.023 HD
ATOM    103  H   UNL     1      -8.638   9.112  21.244  0.00  0.00    +0.023 HD
ATOM    104  H   UNL     1      -7.693   9.499  19.815  0.00  0.00    +0.023 HD
ENDBRANCH  21 101
BRANCH  42 105
ATOM    105  C   UNL     1     -12.221  13.896   8.874  0.00  0.00    -0.057 C 
ATOM    106  H   UNL     1     -13.141  14.301   8.440  0.00  0.00    +0.023 HD
ATOM    107  H   UNL     1     -11.999  14.449   9.794  0.00  0.00    +0.023 HD
ATOM    108  H   UNL     1     -11.422  14.103   8.152  0.00  0.00    +0.023 HD
ENDBRANCH  42 105
BRANCH  17 109
ATOM    109  C   UNL     1     -14.101   8.465  23.228  0.00  0.00    -0.058 C 
ATOM    110  H   UNL     1     -14.185   9.247  23.988  0.00  0.00    +0.023 HD
ATOM    111  H   UNL     1     -15.118   8.206  22.909  0.00  0.00    +0.023 HD
ATOM    112  H   UNL     1     -13.671   7.572  23.694  0.00  0.00    +0.023 HD
ENDBRANCH  17 109
BRANCH  38 113
ATOM    113  C   UNL     1      -8.621   7.320   7.985  0.00  0.00    -0.058 C 
ATOM    114  H   UNL     1      -8.536   6.792   7.029  0.00  0.00    +0.023 HD
ATOM    115  H   UNL     1      -8.438   6.598   8.785  0.00  0.00    +0.023 HD
ATOM    116  H   UNL     1      -7.811   8.059   8.017  0.00  0.00    +0.023 HD
ENDBRANCH  38 113
BRANCH   7 117
ATOM    117  C   UNL     1      -9.641  13.922  15.579  0.00  0.00    -0.040 C 
ATOM    118  H   UNL     1      -9.237  13.354  14.732  0.00  0.00    +0.028 HD
ATOM    119  H   UNL     1      -9.673  13.268  16.453  0.00  0.00    +0.028 HD
ATOM    120  H   UNL     1      -8.929  14.725  15.780  0.00  0.00    +0.028 HD
ENDBRANCH   7 117
BRANCH   1 121
ATOM    121  C   UNL     1     -13.566  10.716  10.936  0.00  0.00    +0.020 C 
ATOM    122  H   UNL     1     -14.275  10.898  11.759  0.00  0.00    +0.036 HD
BRANCH 121 123
ATOM    123  C   UNL     1     -14.351  10.049   9.792  0.00  0.00    -0.057 C 
ATOM    124  H   UNL     1     -15.230   9.523  10.172  0.00  0.00    +0.023 HD
ATOM    125  H   UNL     1     -13.745   9.333   9.234  0.00  0.00    +0.023 HD
ATOM    126  H   UNL     1     -14.745  10.781   9.080  0.00  0.00    +0.023 HD
ENDBRANCH 121 123
BRANCH 121 127
ATOM    127  C   UNL     1     -12.456   9.804  11.562  0.00  0.00    +0.064 C 
ATOM    128  H   UNL     1     -11.858   9.391  10.755  0.00  0.00    +0.060 HD
BRANCH 127 129
ATOM    129  C   UNL     1     -12.880   8.610  12.482  0.00  0.00    -0.017 C 
ATOM    130  H   UNL     1     -12.625   8.878  13.517  0.00  0.00    +0.032 HD
BRANCH 129 131
ATOM    131  C   UNL     1     -14.364   8.247  12.485  0.00  0.00    -0.060 C 
ATOM    132  H   UNL     1     -14.526   7.265  12.939  0.00  0.00    +0.023 HD
ATOM    133  H   UNL     1     -14.967   9.001  12.996  0.00  0.00    +0.023 HD
ATOM    134  H   UNL     1     -14.745   8.167  11.458  0.00  0.00    +0.023 HD
ENDBRANCH 129 131
BRANCH 129 135
ATOM    135  C   UNL     1     -12.081   7.322  12.127  0.00  0.00    -0.046 C 
ATOM    136  H   UNL     1     -12.051   7.195  11.039  0.00  0.00    +0.027 HD
ATOM    137  H   UNL     1     -12.625   6.453  12.505  0.00  0.00    +0.027 HD
BRANCH 135 138
ATOM    138  C   UNL     1     -10.665   7.274  12.703  0.00  0.00    -0.026 C 
ATOM    139  H   UNL     1     -10.695   7.566  13.757  0.00  0.00    +0.029 HD
ATOM    140  H   UNL     1     -10.038   8.017  12.205  0.00  0.00    +0.029 HD
BRANCH 138 143
ATOM    141  C   UNL     1      -8.463   4.423  13.682  0.00  0.00    +0.059 C 
ATOM    142  O   UNL     1      -9.004   5.750  13.583  0.00  0.00    -0.373 OA
ATOM    143  C   UNL     1     -10.009   5.889  12.575  0.00  0.00    +0.061 C 
ATOM    144  C   UNL     1      -9.377   5.687  11.197  0.00  0.00    -0.000 C 
ATOM    145  C   UNL     1      -8.232   4.667  11.211  0.00  0.00    +0.063 C 
ATOM    146  C   UNL     1      -8.440   3.676  12.349  0.00  0.00    -0.000 C 
ATOM    147  H   UNL     1      -7.427   4.555  14.018  0.00  0.00    +0.059 HD
ATOM    148  H   UNL     1     -10.767   5.119  12.750  0.00  0.00    +0.060 HD
ATOM    149  H   UNL     1     -10.155   5.394  10.486  0.00  0.00    +0.032 HD
ATOM    150  H   UNL     1      -8.965   6.629  10.816  0.00  0.00    +0.032 HD
ATOM    151  H   UNL     1      -7.285   5.205  11.352  0.00  0.00    +0.060 HD
ATOM    152  H   UNL     1      -9.379   3.131  12.178  0.00  0.00    +0.032 HD
ATOM    153  H   UNL     1      -7.661   2.906  12.370  0.00  0.00    +0.032 HD
BRANCH 141 154
ATOM    154  C   UNL     1      -9.205   3.633  14.756  0.00  0.00    -0.039 C 
ATOM    155  H   UNL     1      -9.106   2.556  14.597  0.00  0.00    +0.025 HD
ATOM    156  H   UNL     1      -8.821   3.874  15.753  0.00  0.00    +0.025 HD
ATOM    157  H   UNL     1     -10.274   3.860  14.731  0.00  0.00    +0.025 HD
ENDBRANCH 141 154
BRANCH 145 158
ATOM    158  O   UNL     1      -8.221   4.021   9.934  0.00  0.00    -0.380 OA
BRANCH 158 159
ATOM    159  C   UNL     1      -6.915   3.833   9.402  0.00  0.00    +0.037 C 
ATOM    160  H   UNL     1      -6.283   4.652   9.754  0.00  0.00    +0.052 HD
ATOM    161  H   UNL     1      -6.936   3.868   8.308  0.00  0.00    +0.052 HD
ATOM    162  H   UNL     1      -6.480   2.888   9.740  0.00  0.00    +0.052 HD
ENDBRANCH 158 159
ENDBRANCH 145 158
ENDBRANCH 138 143
ENDBRANCH 135 138
ENDBRANCH 129 135
ENDBRANCH 127 129
BRANCH 127 163
ATOM    163  O   UNL     1     -11.541  10.574  12.352  0.00  0.00    -0.391 OA
ATOM    164  H   UNL     1     -10.959   9.971  12.845  0.00  0.00    +0.210 HD
ENDBRANCH 127 163
ENDBRANCH 121 127
ENDBRANCH   1 121
BRANCH  41 165
ATOM    165  O   UNL     1     -10.046  12.497   8.302  0.00  0.00    -0.391 OA
ATOM    166  H   UNL     1     -10.499  13.322   8.033  0.00  0.00    +0.210 HD
ENDBRANCH  41 165
BRANCH  39 167
ATOM    167  O   UNL     1      -9.068  10.013   7.015  0.00  0.00    -0.391 OA
ATOM    168  H   UNL     1      -9.286  10.955   6.877  0.00  0.00    +0.210 HD
ENDBRANCH  39 167
BRANCH  31 169
ATOM    169  O   UNL     1     -14.417   2.318  11.364  0.00  0.00    -0.391 OA
ATOM    170  H   UNL     1     -15.313   2.684  11.468  0.00  0.00    +0.210 HD
ENDBRANCH  31 169
BRANCH  22 171
ATOM    171  C   UNL     1      -7.934   8.679  17.384  0.00  0.00    +0.020 C 
ATOM    172  H   UNL     1      -7.089   8.713  18.080  0.00  0.00    +0.036 HD
BRANCH 171 173
ATOM    173  C   UNL     1      -7.576   7.734  16.235  0.00  0.00    -0.057 C 
ATOM    174  H   UNL     1      -8.314   6.936  16.139  0.00  0.00    +0.023 HD
ATOM    175  H   UNL     1      -6.596   7.269  16.383  0.00  0.00    +0.023 HD
ATOM    176  H   UNL     1      -7.525   8.261  15.278  0.00  0.00    +0.023 HD
ENDBRANCH 171 173
BRANCH 171 177
ATOM    177  C   UNL     1      -8.157  10.131  16.884  0.00  0.00    +0.064 C 
ATOM    178  H   UNL     1      -7.923  10.177  15.815  0.00  0.00    +0.060 HD
BRANCH 177 179
ATOM    179  O   UNL     1      -9.546  10.433  17.036  0.00  0.00    -0.391 OA
ATOM    180  H   UNL     1      -9.792  10.149  17.945  0.00  0.00    +0.210 HD
ENDBRANCH 177 179
BRANCH 177 181
ATOM    181  C   UNL     1      -7.326  11.254  17.567  0.00  0.00    -0.017 C 
ATOM    182  H   UNL     1      -7.189  12.063  16.836  0.00  0.00    +0.032 HD
BRANCH 181 183
ATOM    183  C   UNL     1      -8.135  11.841  18.738  0.00  0.00    -0.060 C 
ATOM    184  H   UNL     1      -8.129  11.171  19.605  0.00  0.00    +0.023 HD
ATOM    185  H   UNL     1      -7.740  12.810  19.057  0.00  0.00    +0.023 HD
ATOM    186  H   UNL     1      -9.175  12.003  18.453  0.00  0.00    +0.023 HD
ENDBRANCH 181 183
BRANCH 181 187
ATOM    187  C   UNL     1      -5.935  10.798  18.061  0.00  0.00    -0.046 C 
ATOM    188  H   UNL     1      -5.233  10.754  17.221  0.00  0.00    +0.027 HD
ATOM    189  H   UNL     1      -6.005   9.781  18.467  0.00  0.00    +0.027 HD
BRANCH 187 190
ATOM    190  C   UNL     1      -5.343  11.748  19.117  0.00  0.00    -0.026 C 
ATOM    191  H   UNL     1      -4.857  11.162  19.901  0.00  0.00    +0.029 HD
ATOM    192  H   UNL     1      -6.159  12.300  19.599  0.00  0.00    +0.029 HD
BRANCH 190 193
ATOM    193  C   UNL     1      -4.338  12.752  18.525  0.00  0.00    +0.061 C 
ATOM    194  O   UNL     1      -3.574  13.423  19.532  0.00  0.00    -0.373 OA
ATOM    195  C   UNL     1      -4.313  14.350  20.331  0.00  0.00    +0.059 C 
ATOM    196  C   UNL     1      -4.950  15.435  19.465  0.00  0.00    -0.000 C 
ATOM    197  C   UNL     1      -5.813  14.815  18.365  0.00  0.00    +0.063 C 
ATOM    198  C   UNL     1      -4.999  13.773  17.597  0.00  0.00    -0.000 C 
ATOM    199  H   UNL     1      -3.617  12.181  17.929  0.00  0.00    +0.060 HD
ATOM    200  H   UNL     1      -5.082  13.811  20.895  0.00  0.00    +0.059 HD
ATOM    201  H   UNL     1      -4.174  16.053  18.996  0.00  0.00    +0.032 HD
ATOM    202  H   UNL     1      -5.545  16.110  20.089  0.00  0.00    +0.032 HD
ATOM    203  H   UNL     1      -6.695  14.332  18.803  0.00  0.00    +0.060 HD
ATOM    204  H   UNL     1      -4.218  14.297  17.029  0.00  0.00    +0.032 HD
ATOM    205  H   UNL     1      -5.629  13.279  16.847  0.00  0.00    +0.032 HD
BRANCH 195 206
ATOM    206  C   UNL     1      -3.340  14.961  21.335  0.00  0.00    -0.039 C 
ATOM    207  H   UNL     1      -3.000  15.942  20.987  0.00  0.00    +0.025 HD
ATOM    208  H   UNL     1      -2.466  14.318  21.479  0.00  0.00    +0.025 HD
ATOM    209  H   UNL     1      -3.826  15.120  22.304  0.00  0.00    +0.025 HD
ENDBRANCH 195 206
BRANCH 197 210
ATOM    210  O   UNL     1      -6.245  15.800  17.417  0.00  0.00    -0.380 OA
BRANCH 210 211
ATOM    211  C   UNL     1      -7.555  16.297  17.663  0.00  0.00    +0.037 C 
ATOM    212  H   UNL     1      -7.849  16.911  16.806  0.00  0.00    +0.052 HD
ATOM    213  H   UNL     1      -7.573  16.928  18.555  0.00  0.00    +0.052 HD
ATOM    214  H   UNL     1      -8.269  15.475  17.764  0.00  0.00    +0.052 HD
ENDBRANCH 210 211
ENDBRANCH 197 210
ENDBRANCH 190 193
ENDBRANCH 187 190
ENDBRANCH 181 187
ENDBRANCH 177 181
ENDBRANCH 171 177
ENDBRANCH  22 171
BRANCH  20 215
ATOM    215  O   UNL     1     -10.697   6.036  19.866  0.00  0.00    -0.391 OA
ATOM    216  H   UNL     1     -11.655   6.095  20.037  0.00  0.00    +0.210 HD
ENDBRANCH  20 215
BRANCH  18 217
ATOM    217  O   UNL     1     -12.986   6.692  21.059  0.00  0.00    -0.391 OA
ATOM    218  H   UNL     1     -12.644   5.884  21.495  0.00  0.00    +0.210 HD
ENDBRANCH  18 217
BRANCH  10 219
ATOM    219  O   UNL     1     -11.974  16.163  19.726  0.00  0.00    -0.391 OA
ATOM    220  H   UNL     1     -11.079  15.778  19.747  0.00  0.00    +0.210 HD
ENDBRANCH  10 219
BRANCH  37 221
ATOM    221  O   UNL     1     -10.425   7.000   5.963  0.00  0.00    -0.379 OA
BRANCH 221 222
ATOM    222  C   UNL     1     -10.719   7.735   4.781  0.00  0.00    +0.037 C 
ATOM    223  H   UNL     1     -11.779   7.591   4.551  0.00  0.00    +0.052 HD
ATOM    224  H   UNL     1     -10.546   8.802   4.928  0.00  0.00    +0.052 HD
ATOM    225  H   UNL     1     -10.127   7.367   3.938  0.00  0.00    +0.052 HD
ENDBRANCH 221 222
ENDBRANCH  37 221
BRANCH  16 226
ATOM    226  O   UNL     1     -15.524   9.209  21.048  0.00  0.00    -0.379 OA
BRANCH 226 227
ATOM    227  C   UNL     1     -16.070   8.194  20.215  0.00  0.00    +0.037 C 
ATOM    228  H   UNL     1     -16.587   7.426  20.799  0.00  0.00    +0.052 HD
ATOM    229  H   UNL     1     -15.271   7.739  19.619  0.00  0.00    +0.052 HD
ATOM    230  H   UNL     1     -16.794   8.656  19.535  0.00  0.00    +0.052 HD
ENDBRANCH 226 227
ENDBRANCH  16 226
TORSDOF 40
ENDMDL
MODEL 10
REMARK VINA RESULT:      -3.9      2.539     10.709
REMARK  Name = Swinholide A_conf1
REMARK  40 active torsions:
REMARK  status: ('A' for Active; 'I' for Inactive)
REMARK    1  A    between atoms: C_1  and  C_2
REMARK    2  A    between atoms: C_4  and  C_10
REMARK    3  A    between atoms: C_6  and  O_8
REMARK    4  A    between atoms: O_8  and  C_9
REMARK    5  A    between atoms: C_10  and  C_11
REMARK    6  A    between atoms: C_11  and  C_12
REMARK    7  A    between atoms: C_12  and  C_13
REMARK    8  A    between atoms: C_12  and  C_98
REMARK    9  A    between atoms: C_13  and  O_14
REMARK   10  A    between atoms: C_13  and  C_15
REMARK   11  A    between atoms: C_15  and  C_16
REMARK   12  A    between atoms: C_15  and  C_97
REMARK   13  A    between atoms: C_22  and  C_96
REMARK   14  A    between atoms: C_25  and  O_95
REMARK   15  A    between atoms: C_31  and  O_90
REMARK   16  A    between atoms: C_32  and  C_89
REMARK   17  A    between atoms: C_33  and  O_88
REMARK   18  A    between atoms: C_35  and  O_87
REMARK   19  A    between atoms: C_36  and  C_86
REMARK   20  A    between atoms: C_37  and  C_69
REMARK   21  A    between atoms: C_43  and  C_68
REMARK   22  A    between atoms: C_46  and  O_67
REMARK   23  A    between atoms: C_52  and  O_62
REMARK   24  A    between atoms: C_53  and  C_61
REMARK   25  A    between atoms: C_54  and  O_60
REMARK   26  A    between atoms: C_56  and  O_59
REMARK   27  A    between atoms: C_57  and  C_58
REMARK   28  A    between atoms: O_62  and  C_63
REMARK   29  A    between atoms: C_69  and  C_70
REMARK   30  A    between atoms: C_69  and  C_85
REMARK   31  A    between atoms: C_70  and  O_71
REMARK   32  A    between atoms: C_70  and  C_72
REMARK   33  A    between atoms: C_72  and  C_73
REMARK   34  A    between atoms: C_72  and  C_84
REMARK   35  A    between atoms: C_73  and  C_74
REMARK   36  A    between atoms: C_74  and  C_75
REMARK   37  A    between atoms: C_77  and  C_83
REMARK   38  A    between atoms: C_79  and  O_81
REMARK   39  A    between atoms: O_81  and  C_82
REMARK   40  A    between atoms: O_90  and  C_91
REMARK                            x       y       z     vdW  Elec       q    Type
REMARK                         _______ _______ _______ _____ _____    ______ ____
ROOT
ATOM      1  C   UNL     1      -5.228  15.510  18.860  0.00  0.00    +0.113 C 
ATOM      2  O   UNL     1      -5.872  14.340  18.288  0.00  0.00    -0.458 OA
ATOM      3  C   UNL     1      -5.144  13.190  18.305  0.00  0.00    +0.332 C 
ATOM      4  O   UNL     1      -3.994  13.068  18.714  0.00  0.00    -0.246 OA
ATOM      5  C   UNL     1      -5.876  12.037  17.760  0.00  0.00    +0.023 C 
ATOM      6  C   UNL     1      -7.213  11.934  17.720  0.00  0.00    -0.052 C 
ATOM      7  C   UNL     1      -7.941  10.739  17.307  0.00  0.00    -0.054 C 
ATOM      8  C   UNL     1      -7.570   9.510  17.722  0.00  0.00    -0.079 C 
ATOM      9  C   UNL     1      -8.363   8.238  17.550  0.00  0.00    -0.008 C 
ATOM     10  C   UNL     1      -8.178   7.209  18.681  0.00  0.00    +0.061 C 
ATOM     11  C   UNL     1      -8.234   7.705  20.133  0.00  0.00    +0.003 C 
ATOM     12  C   UNL     1      -9.582   8.199  20.693  0.00  0.00    +0.080 C 
ATOM     13  O   UNL     1      -9.398   8.169  22.130  0.00  0.00    -0.369 OA
ATOM     14  C   UNL     1     -10.210   9.065  22.907  0.00  0.00    +0.065 C 
ATOM     15  C   UNL     1     -11.692   8.636  22.879  0.00  0.00    +0.000 C 
ATOM     16  C   UNL     1     -12.593   9.459  23.824  0.00  0.00    +0.066 C 
ATOM     17  C   UNL     1     -14.079   9.007  23.675  0.00  0.00    +0.009 C 
ATOM     18  C   UNL     1     -15.025  10.170  23.280  0.00  0.00    +0.063 C 
ATOM     19  C   UNL     1     -14.743  10.733  21.869  0.00  0.00    -0.000 C 
ATOM     20  C   UNL     1     -15.839  11.724  21.426  0.00  0.00    +0.064 C 
ATOM     21  C   UNL     1     -15.745  12.200  19.943  0.00  0.00    +0.020 C 
ATOM     22  C   UNL     1     -14.389  12.886  19.584  0.00  0.00    +0.113 C 
ATOM     23  O   UNL     1     -14.256  14.047  20.447  0.00  0.00    -0.458 OA
ATOM     24  C   UNL     1     -13.054  14.212  21.059  0.00  0.00    +0.332 C 
ATOM     25  O   UNL     1     -12.049  13.549  20.865  0.00  0.00    -0.246 OA
ATOM     26  C   UNL     1     -13.139  15.365  21.985  0.00  0.00    +0.023 C 
ATOM     27  C   UNL     1     -12.069  15.689  22.727  0.00  0.00    -0.052 C 
ATOM     28  C   UNL     1     -11.979  16.805  23.659  0.00  0.00    -0.054 C 
ATOM     29  C   UNL     1     -12.298  18.062  23.283  0.00  0.00    -0.079 C 
ATOM     30  C   UNL     1     -12.213  19.313  24.114  0.00  0.00    -0.008 C 
ATOM     31  C   UNL     1     -11.024  20.243  23.771  0.00  0.00    +0.061 C 
ATOM     32  C   UNL     1     -11.279  21.108  22.519  0.00  0.00    +0.003 C 
ATOM     33  C   UNL     1     -10.228  22.224  22.321  0.00  0.00    +0.080 C 
ATOM     34  O   UNL     1      -9.025  21.720  21.717  0.00  0.00    -0.369 OA
ATOM     35  C   UNL     1      -8.891  21.893  20.288  0.00  0.00    +0.065 C 
ATOM     36  C   UNL     1      -7.490  21.360  19.938  0.00  0.00    +0.000 C 
ATOM     37  C   UNL     1      -7.042  21.321  18.457  0.00  0.00    +0.066 C 
ATOM     38  C   UNL     1      -7.935  20.377  17.595  0.00  0.00    +0.009 C 
ATOM     39  C   UNL     1      -7.131  19.396  16.696  0.00  0.00    +0.063 C 
ATOM     40  C   UNL     1      -5.998  18.655  17.426  0.00  0.00    -0.000 C 
ATOM     41  C   UNL     1      -5.783  17.225  16.893  0.00  0.00    +0.064 C 
ATOM     42  C   UNL     1      -4.709  16.474  17.734  0.00  0.00    +0.020 C 
ATOM     43  C   UNL     1      -9.066  23.366  19.890  0.00  0.00    -0.008 C 
ATOM     44  C   UNL     1     -10.307  23.942  20.488  0.00  0.00    -0.083 C 
ATOM     45  C   UNL     1     -10.823  23.409  21.597  0.00  0.00    -0.059 C 
ATOM     46  C   UNL     1      -9.926  10.508  22.455  0.00  0.00    -0.008 C 
ATOM     47  C   UNL     1     -10.108  10.640  20.979  0.00  0.00    -0.083 C 
ATOM     48  C   UNL     1      -9.976   9.567  20.188  0.00  0.00    -0.059 C 
ATOM     49  H   UNL     1      -4.314  15.184  19.379  0.00  0.00    +0.074 HD
ATOM     50  H   UNL     1      -5.235  11.212  17.465  0.00  0.00    +0.069 HD
ATOM     51  H   UNL     1      -7.845  12.755  18.051  0.00  0.00    +0.062 HD
ATOM     52  H   UNL     1      -6.655   9.403  18.302  0.00  0.00    +0.058 HD
ATOM     53  H   UNL     1      -9.433   8.439  17.426  0.00  0.00    +0.033 HD
ATOM     54  H   UNL     1      -8.048   7.764  16.610  0.00  0.00    +0.033 HD
ATOM     55  H   UNL     1      -7.188   6.759  18.538  0.00  0.00    +0.060 HD
ATOM     56  H   UNL     1      -7.465   8.468  20.308  0.00  0.00    +0.032 HD
ATOM     57  H   UNL     1      -7.925   6.858  20.762  0.00  0.00    +0.032 HD
ATOM     58  H   UNL     1     -10.376   7.482  20.457  0.00  0.00    +0.064 HD
ATOM     59  H   UNL     1      -9.846   8.964  23.937  0.00  0.00    +0.060 HD
ATOM     60  H   UNL     1     -11.734   7.577  23.170  0.00  0.00    +0.032 HD
ATOM     61  H   UNL     1     -12.088   8.685  21.857  0.00  0.00    +0.032 HD
ATOM     62  H   UNL     1     -12.493  10.516  23.558  0.00  0.00    +0.060 HD
ATOM     63  H   UNL     1     -14.146   8.277  22.855  0.00  0.00    +0.035 HD
ATOM     64  H   UNL     1     -16.057   9.799  23.301  0.00  0.00    +0.060 HD
ATOM     65  H   UNL     1     -13.782  11.259  21.886  0.00  0.00    +0.032 HD
ATOM     66  H   UNL     1     -14.674   9.904  21.156  0.00  0.00    +0.032 HD
ATOM     67  H   UNL     1     -16.818  11.246  21.560  0.00  0.00    +0.060 HD
ATOM     68  H   UNL     1     -16.536  12.952  19.830  0.00  0.00    +0.036 HD
ATOM     69  H   UNL     1     -13.601  12.156  19.797  0.00  0.00    +0.074 HD
ATOM     70  H   UNL     1     -14.072  15.908  22.033  0.00  0.00    +0.069 HD
ATOM     71  H   UNL     1     -11.167  15.080  22.653  0.00  0.00    +0.062 HD
ATOM     72  H   UNL     1     -12.674  18.228  22.276  0.00  0.00    +0.058 HD
ATOM     73  H   UNL     1     -13.155  19.867  24.002  0.00  0.00    +0.033 HD
ATOM     74  H   UNL     1     -12.184  19.067  25.181  0.00  0.00    +0.033 HD
ATOM     75  H   UNL     1     -10.101  19.668  23.642  0.00  0.00    +0.060 HD
ATOM     76  H   UNL     1     -12.268  21.571  22.634  0.00  0.00    +0.032 HD
ATOM     77  H   UNL     1     -11.317  20.463  21.633  0.00  0.00    +0.032 HD
ATOM     78  H   UNL     1      -9.916  22.609  23.298  0.00  0.00    +0.064 HD
ATOM     79  H   UNL     1      -9.657  21.275  19.809  0.00  0.00    +0.060 HD
ATOM     80  H   UNL     1      -7.409  20.340  20.343  0.00  0.00    +0.032 HD
ATOM     81  H   UNL     1      -6.758  21.937  20.516  0.00  0.00    +0.032 HD
ATOM     82  H   UNL     1      -6.025  20.919  18.475  0.00  0.00    +0.060 HD
ATOM     83  H   UNL     1      -8.490  19.729  18.283  0.00  0.00    +0.035 HD
ATOM     84  H   UNL     1      -7.850  18.664  16.308  0.00  0.00    +0.060 HD
ATOM     85  H   UNL     1      -5.062  19.214  17.291  0.00  0.00    +0.032 HD
ATOM     86  H   UNL     1      -6.202  18.626  18.492  0.00  0.00    +0.032 HD
ATOM     87  H   UNL     1      -6.721  16.661  16.895  0.00  0.00    +0.060 HD
ATOM     88  H   UNL     1      -4.090  17.232  18.235  0.00  0.00    +0.036 HD
ATOM     89  H   UNL     1      -9.125  23.465  18.801  0.00  0.00    +0.033 HD
ATOM     90  H   UNL     1      -8.219  23.968  20.237  0.00  0.00    +0.033 HD
ATOM     91  H   UNL     1     -10.749  24.822  20.030  0.00  0.00    +0.057 HD
ATOM     92  H   UNL     1     -11.707  23.863  22.041  0.00  0.00    +0.059 HD
ATOM     93  H   UNL     1      -8.886  10.771  22.685  0.00  0.00    +0.033 HD
ATOM     94  H   UNL     1     -10.562  11.224  22.981  0.00  0.00    +0.033 HD
ATOM     95  H   UNL     1     -10.364  11.611  20.564  0.00  0.00    +0.057 HD
ATOM     96  H   UNL     1     -10.174   9.678  19.128  0.00  0.00    +0.059 HD
ENDROOT
BRANCH  28  97
ATOM     97  C   UNL     1     -11.407  16.424  25.000  0.00  0.00    -0.040 C 
ATOM     98  H   UNL     1     -10.408  15.986  24.889  0.00  0.00    +0.028 HD
ATOM     99  H   UNL     1     -12.052  15.684  25.487  0.00  0.00    +0.028 HD
ATOM    100  H   UNL     1     -11.298  17.272  25.681  0.00  0.00    +0.028 HD
ENDBRANCH  28  97
BRANCH  21 101
ATOM    101  C   UNL     1     -16.070  11.033  19.003  0.00  0.00    -0.057 C 
ATOM    102  H   UNL     1     -16.723  10.297  19.484  0.00  0.00    +0.023 HD
ATOM    103  H   UNL     1     -15.160  10.517  18.682  0.00  0.00    +0.023 HD
ATOM    104  H   UNL     1     -16.568  11.386  18.094  0.00  0.00    +0.023 HD
ENDBRANCH  21 101
BRANCH  42 105
ATOM    105  C   UNL     1      -3.728  15.697  16.823  0.00  0.00    -0.057 C 
ATOM    106  H   UNL     1      -2.689  15.965  17.042  0.00  0.00    +0.023 HD
ATOM    107  H   UNL     1      -3.839  14.613  16.943  0.00  0.00    +0.023 HD
ATOM    108  H   UNL     1      -3.893  15.942  15.768  0.00  0.00    +0.023 HD
ENDBRANCH  42 105
BRANCH  17 109
ATOM    109  C   UNL     1     -14.621   8.292  24.922  0.00  0.00    -0.058 C 
ATOM    110  H   UNL     1     -15.274   7.453  24.665  0.00  0.00    +0.023 HD
ATOM    111  H   UNL     1     -13.796   7.895  25.525  0.00  0.00    +0.023 HD
ATOM    112  H   UNL     1     -15.181   8.987  25.557  0.00  0.00    +0.023 HD
ENDBRANCH  17 109
BRANCH  38 113
ATOM    113  C   UNL     1      -8.969  21.130  16.740  0.00  0.00    -0.058 C 
ATOM    114  H   UNL     1      -8.892  20.878  15.677  0.00  0.00    +0.023 HD
ATOM    115  H   UNL     1      -8.853  22.213  16.838  0.00  0.00    +0.023 HD
ATOM    116  H   UNL     1      -9.988  20.878  17.057  0.00  0.00    +0.023 HD
ENDBRANCH  38 113
BRANCH   7 117
ATOM    117  C   UNL     1      -9.173  11.022  16.493  0.00  0.00    -0.040 C 
ATOM    118  H   UNL     1      -9.768  10.111  16.362  0.00  0.00    +0.028 HD
ATOM    119  H   UNL     1      -8.894  11.401  15.508  0.00  0.00    +0.028 HD
ATOM    120  H   UNL     1      -9.830  11.755  16.967  0.00  0.00    +0.028 HD
ENDBRANCH   7 117
BRANCH   1 121
ATOM    121  C   UNL     1      -6.120  16.059  20.035  0.00  0.00    +0.020 C 
ATOM    122  H   UNL     1      -6.335  17.098  19.740  0.00  0.00    +0.036 HD
BRANCH 121 123
ATOM    123  C   UNL     1      -7.459  15.298  20.038  0.00  0.00    -0.057 C 
ATOM    124  H   UNL     1      -7.307  14.232  20.225  0.00  0.00    +0.023 HD
ATOM    125  H   UNL     1      -7.997  15.400  19.094  0.00  0.00    +0.023 HD
ATOM    126  H   UNL     1      -8.123  15.635  20.840  0.00  0.00    +0.023 HD
ENDBRANCH 121 123
BRANCH 121 127
ATOM    127  C   UNL     1      -5.453  16.176  21.448  0.00  0.00    +0.064 C 
ATOM    128  H   UNL     1      -6.130  15.749  22.183  0.00  0.00    +0.060 HD
BRANCH 127 129
ATOM    129  C   UNL     1      -5.025  17.587  21.975  0.00  0.00    -0.017 C 
ATOM    130  H   UNL     1      -3.999  17.505  22.358  0.00  0.00    +0.032 HD
BRANCH 129 131
ATOM    131  C   UNL     1      -5.013  18.720  20.951  0.00  0.00    -0.060 C 
ATOM    132  H   UNL     1      -4.805  19.680  21.432  0.00  0.00    +0.023 HD
ATOM    133  H   UNL     1      -4.294  18.538  20.150  0.00  0.00    +0.023 HD
ATOM    134  H   UNL     1      -6.001  18.830  20.483  0.00  0.00    +0.023 HD
ENDBRANCH 129 131
BRANCH 129 135
ATOM    135  C   UNL     1      -5.928  18.035  23.163  0.00  0.00    -0.046 C 
ATOM    136  H   UNL     1      -5.827  19.115  23.315  0.00  0.00    +0.027 HD
ATOM    137  H   UNL     1      -5.556  17.576  24.082  0.00  0.00    +0.027 HD
BRANCH 135 138
ATOM    138  C   UNL     1      -7.403  17.658  23.015  0.00  0.00    -0.026 C 
ATOM    139  H   UNL     1      -7.550  17.143  22.062  0.00  0.00    +0.029 HD
ATOM    140  H   UNL     1      -8.012  18.563  22.964  0.00  0.00    +0.029 HD
BRANCH 138 143
ATOM    141  C   UNL     1      -7.689  16.421  26.526  0.00  0.00    +0.059 C 
ATOM    142  O   UNL     1      -7.166  17.051  25.346  0.00  0.00    -0.373 OA
ATOM    143  C   UNL     1      -7.914  16.768  24.161  0.00  0.00    +0.061 C 
ATOM    144  C   UNL     1      -7.789  15.282  23.824  0.00  0.00    -0.000 C 
ATOM    145  C   UNL     1      -7.684  14.396  25.071  0.00  0.00    +0.063 C 
ATOM    146  C   UNL     1      -8.367  15.079  26.247  0.00  0.00    -0.000 C 
ATOM    147  H   UNL     1      -6.819  16.237  27.168  0.00  0.00    +0.059 HD
ATOM    148  H   UNL     1      -8.963  17.015  24.361  0.00  0.00    +0.060 HD
ATOM    149  H   UNL     1      -8.637  14.983  23.201  0.00  0.00    +0.032 HD
ATOM    150  H   UNL     1      -6.895  15.095  23.218  0.00  0.00    +0.032 HD
ATOM    151  H   UNL     1      -6.621  14.235  25.298  0.00  0.00    +0.060 HD
ATOM    152  H   UNL     1      -9.432  15.210  26.012  0.00  0.00    +0.032 HD
ATOM    153  H   UNL     1      -8.346  14.461  27.151  0.00  0.00    +0.032 HD
BRANCH 141 154
ATOM    154  C   UNL     1      -8.620  17.379  27.263  0.00  0.00    -0.039 C 
ATOM    155  H   UNL     1      -9.177  16.865  28.051  0.00  0.00    +0.025 HD
ATOM    156  H   UNL     1      -8.056  18.201  27.715  0.00  0.00    +0.025 HD
ATOM    157  H   UNL     1      -9.360  17.801  26.577  0.00  0.00    +0.025 HD
ENDBRANCH 141 154
BRANCH 145 158
ATOM    158  O   UNL     1      -8.292  13.140  24.755  0.00  0.00    -0.380 OA
BRANCH 158 159
ATOM    159  C   UNL     1      -9.708  13.141  24.893  0.00  0.00    +0.037 C 
ATOM    160  H   UNL     1     -10.142  12.817  23.943  0.00  0.00    +0.052 HD
ATOM    161  H   UNL     1     -10.074  14.149  25.106  0.00  0.00    +0.052 HD
ATOM    162  H   UNL     1     -10.031  12.449  25.677  0.00  0.00    +0.052 HD
ENDBRANCH 158 159
ENDBRANCH 145 158
ENDBRANCH 138 143
ENDBRANCH 135 138
ENDBRANCH 129 135
ENDBRANCH 127 129
BRANCH 127 163
ATOM    163  O   UNL     1      -4.265  15.376  21.525  0.00  0.00    -0.391 OA
ATOM    164  H   UNL     1      -3.834  15.526  22.383  0.00  0.00    +0.210 HD
ENDBRANCH 127 163
ENDBRANCH 121 127
ENDBRANCH   1 121
BRANCH  41 165
ATOM    165  O   UNL     1      -5.367  17.325  15.527  0.00  0.00    -0.391 OA
ATOM    166  H   UNL     1      -5.960  16.780  14.971  0.00  0.00    +0.210 HD
ENDBRANCH  41 165
BRANCH  39 167
ATOM    167  O   UNL     1      -6.564  20.036  15.554  0.00  0.00    -0.391 OA
ATOM    168  H   UNL     1      -6.092  19.359  15.030  0.00  0.00    +0.210 HD
ENDBRANCH  39 167
BRANCH  31 169
ATOM    169  O   UNL     1     -10.839  21.112  24.898  0.00  0.00    -0.391 OA
ATOM    170  H   UNL     1     -10.282  20.638  25.539  0.00  0.00    +0.210 HD
ENDBRANCH  31 169
BRANCH  22 171
ATOM    171  C   UNL     1     -14.254  13.325  18.083  0.00  0.00    +0.020 C 
ATOM    172  H   UNL     1     -14.673  12.512  17.480  0.00  0.00    +0.036 HD
BRANCH 171 173
ATOM    173  C   UNL     1     -15.044  14.602  17.787  0.00  0.00    -0.057 C 
ATOM    174  H   UNL     1     -15.728  14.455  16.950  0.00  0.00    +0.023 HD
ATOM    175  H   UNL     1     -14.384  15.438  17.537  0.00  0.00    +0.023 HD
ATOM    176  H   UNL     1     -15.634  14.922  18.650  0.00  0.00    +0.023 HD
ENDBRANCH 171 173
BRANCH 171 177
ATOM    177  C   UNL     1     -12.764  13.464  17.671  0.00  0.00    +0.064 C 
ATOM    178  H   UNL     1     -12.336  14.331  18.184  0.00  0.00    +0.060 HD
BRANCH 177 179
ATOM    179  O   UNL     1     -12.076  12.301  18.136  0.00  0.00    -0.391 OA
ATOM    180  H   UNL     1     -11.513  12.594  18.887  0.00  0.00    +0.210 HD
ENDBRANCH 177 179
BRANCH 177 181
ATOM    181  C   UNL     1     -12.460  13.650  16.157  0.00  0.00    -0.017 C 
ATOM    182  H   UNL     1     -11.681  12.926  15.880  0.00  0.00    +0.032 HD
BRANCH 181 183
ATOM    183  C   UNL     1     -13.715  13.294  15.341  0.00  0.00    -0.060 C 
ATOM    184  H   UNL     1     -13.972  14.089  14.633  0.00  0.00    +0.023 HD
ATOM    185  H   UNL     1     -13.580  12.367  14.776  0.00  0.00    +0.023 HD
ATOM    186  H   UNL     1     -14.576  13.142  15.993  0.00  0.00    +0.023 HD
ENDBRANCH 181 183
BRANCH 181 187
ATOM    187  C   UNL     1     -11.969  15.067  15.782  0.00  0.00    -0.046 C 
ATOM    188  H   UNL     1     -12.825  15.724  15.593  0.00  0.00    +0.027 HD
ATOM    189  H   UNL     1     -11.395  15.020  14.848  0.00  0.00    +0.027 HD
BRANCH 187 190
ATOM    190  C   UNL     1     -11.119  15.710  16.891  0.00  0.00    -0.026 C 
ATOM    191  H   UNL     1     -10.066  15.468  16.728  0.00  0.00    +0.029 HD
ATOM    192  H   UNL     1     -11.396  15.268  17.856  0.00  0.00    +0.029 HD
BRANCH 190 193
ATOM    193  C   UNL     1     -11.292  17.238  16.971  0.00  0.00    +0.061 C 
ATOM    194  O   UNL     1     -10.412  17.841  17.923  0.00  0.00    -0.373 OA
ATOM    195  C   UNL     1     -10.713  17.550  19.291  0.00  0.00    +0.059 C 
ATOM    196  C   UNL     1     -12.127  18.002  19.648  0.00  0.00    -0.000 C 
ATOM    197  C   UNL     1     -13.152  17.386  18.695  0.00  0.00    +0.063 C 
ATOM    198  C   UNL     1     -12.737  17.655  17.248  0.00  0.00    -0.000 C 
ATOM    199  H   UNL     1     -11.010  17.649  15.994  0.00  0.00    +0.060 HD
ATOM    200  H   UNL     1     -10.599  16.475  19.467  0.00  0.00    +0.059 HD
ATOM    201  H   UNL     1     -12.205  19.095  19.590  0.00  0.00    +0.032 HD
ATOM    202  H   UNL     1     -12.354  17.733  20.686  0.00  0.00    +0.032 HD
ATOM    203  H   UNL     1     -13.216  16.303  18.856  0.00  0.00    +0.060 HD
ATOM    204  H   UNL     1     -12.840  18.732  17.056  0.00  0.00    +0.032 HD
ATOM    205  H   UNL     1     -13.433  17.164  16.557  0.00  0.00    +0.032 HD
BRANCH 195 206
ATOM    206  C   UNL     1      -9.680  18.275  20.147  0.00  0.00    -0.039 C 
ATOM    207  H   UNL     1     -10.176  18.965  20.839  0.00  0.00    +0.025 HD
ATOM    208  H   UNL     1      -8.981  18.844  19.526  0.00  0.00    +0.025 HD
ATOM    209  H   UNL     1      -9.113  17.567  20.761  0.00  0.00    +0.025 HD
ENDBRANCH 195 206
BRANCH 197 210
ATOM    210  O   UNL     1     -14.453  17.960  18.877  0.00  0.00    -0.380 OA
BRANCH 210 211
ATOM    211  C   UNL     1     -14.496  19.365  18.654  0.00  0.00    +0.037 C 
ATOM    212  H   UNL     1     -13.578  19.652  18.132  0.00  0.00    +0.052 HD
ATOM    213  H   UNL     1     -14.533  19.910  19.601  0.00  0.00    +0.052 HD
ATOM    214  H   UNL     1     -15.351  19.632  18.027  0.00  0.00    +0.052 HD
ENDBRANCH 210 211
ENDBRANCH 197 210
ENDBRANCH 190 193
ENDBRANCH 187 190
ENDBRANCH 181 187
ENDBRANCH 177 181
ENDBRANCH 171 177
ENDBRANCH  22 171
BRANCH  20 215
ATOM    215  O   UNL     1     -15.826  12.835  22.334  0.00  0.00    -0.391 OA
ATOM    216  H   UNL     1     -15.877  13.650  21.801  0.00  0.00    +0.210 HD
ENDBRANCH  20 215
BRANCH  18 217
ATOM    217  O   UNL     1     -14.940  11.215  24.252  0.00  0.00    -0.391 OA
ATOM    218  H   UNL     1     -14.083  11.665  24.101  0.00  0.00    +0.210 HD
ENDBRANCH  18 217
BRANCH  10 219
ATOM    219  O   UNL     1      -9.129   6.157  18.493  0.00  0.00    -0.391 OA
ATOM    220  H   UNL     1      -9.038   5.545  19.246  0.00  0.00    +0.210 HD
ENDBRANCH  10 219
BRANCH  37 221
ATOM    221  O   UNL     1      -6.959  22.608  17.845  0.00  0.00    -0.379 OA
BRANCH 221 222
ATOM    222  C   UNL     1      -5.675  22.930  17.326  0.00  0.00    +0.037 C 
ATOM    223  H   UNL     1      -5.552  22.398  16.379  0.00  0.00    +0.052 HD
ATOM    224  H   UNL     1      -5.588  24.000  17.127  0.00  0.00    +0.052 HD
ATOM    225  H   UNL     1      -4.886  22.607  18.012  0.00  0.00    +0.052 HD
ENDBRANCH 221 222
ENDBRANCH  37 221
BRANCH  16 226
ATOM    226  O   UNL     1     -12.097   9.243  25.154  0.00  0.00    -0.379 OA
BRANCH 226 227
ATOM    227  C   UNL     1     -11.917  10.454  25.879  0.00  0.00    +0.037 C 
ATOM    228  H   UNL     1     -12.863  10.829  26.281  0.00  0.00    +0.052 HD
ATOM    229  H   UNL     1     -11.461  11.208  25.227  0.00  0.00    +0.052 HD
ATOM    230  H   UNL     1     -11.239  10.259  26.716  0.00  0.00    +0.052 HD
ENDBRANCH 226 227
ENDBRANCH  16 226
TORSDOF 40
ENDMDL
