MODEL 1
REMARK VINA RESULT:      -5.2      0.000      0.000
REMARK  Name = Swinholide A_conf3
REMARK  40 active torsions:
REMARK  status: ('A' for Active; 'I' for Inactive)
REMARK    1  A    between atoms: C_1  and  C_2
REMARK    2  A    between atoms: C_4  and  C_10
REMARK    3  A    between atoms: C_6  and  O_8
REMARK    4  A    between atoms: O_8  and  C_9
REMARK    5  A    between atoms: C_10  and  C_11
REMARK    6  A    between atoms: C_11  and  C_12
REMARK    7  A    between atoms: C_12  and  C_13
REMARK    8  A    between atoms: C_12  and  C_98
REMARK    9  A    between atoms: C_13  and  O_14
REMARK   10  A    between atoms: C_13  and  C_15
REMARK   11  A    between atoms: C_15  and  C_16
REMARK   12  A    between atoms: C_15  and  C_97
REMARK   13  A    between atoms: C_22  and  C_96
REMARK   14  A    between atoms: C_25  and  O_95
REMARK   15  A    between atoms: C_31  and  O_90
REMARK   16  A    between atoms: C_32  and  C_89
REMARK   17  A    between atoms: C_33  and  O_88
REMARK   18  A    between atoms: C_35  and  O_87
REMARK   19  A    between atoms: C_36  and  C_86
REMARK   20  A    between atoms: C_37  and  C_69
REMARK   21  A    between atoms: C_43  and  C_68
REMARK   22  A    between atoms: C_46  and  O_67
REMARK   23  A    between atoms: C_52  and  O_62
REMARK   24  A    between atoms: C_53  and  C_61
REMARK   25  A    between atoms: C_54  and  O_60
REMARK   26  A    between atoms: C_56  and  O_59
REMARK   27  A    between atoms: C_57  and  C_58
REMARK   28  A    between atoms: O_62  and  C_63
REMARK   29  A    between atoms: C_69  and  C_70
REMARK   30  A    between atoms: C_69  and  C_85
REMARK   31  A    between atoms: C_70  and  O_71
REMARK   32  A    between atoms: C_70  and  C_72
REMARK   33  A    between atoms: C_72  and  C_73
REMARK   34  A    between atoms: C_72  and  C_84
REMARK   35  A    between atoms: C_73  and  C_74
REMARK   36  A    between atoms: C_74  and  C_75
REMARK   37  A    between atoms: C_77  and  C_83
REMARK   38  A    between atoms: C_79  and  O_81
REMARK   39  A    between atoms: O_81  and  C_82
REMARK   40  A    between atoms: O_90  and  C_91
REMARK                            x       y       z     vdW  Elec       q    Type
REMARK                         _______ _______ _______ _____ _____    ______ ____
ROOT
ATOM      1  C   UNL     1     -11.873   9.671  28.597  0.00  0.00    +0.113 C 
ATOM      2  O   UNL     1     -11.859   9.718  27.146  0.00  0.00    -0.458 OA
ATOM      3  C   UNL     1     -10.906  10.530  26.615  0.00  0.00    +0.332 C 
ATOM      4  O   UNL     1     -10.027  11.110  27.239  0.00  0.00    -0.246 OA
ATOM      5  C   UNL     1     -11.013  10.706  25.164  0.00  0.00    +0.023 C 
ATOM      6  C   UNL     1     -11.585   9.864  24.291  0.00  0.00    -0.052 C 
ATOM      7  C   UNL     1     -11.513  10.095  22.851  0.00  0.00    -0.054 C 
ATOM      8  C   UNL     1     -10.345  10.461  22.285  0.00  0.00    -0.079 C 
ATOM      9  C   UNL     1     -10.072  10.824  20.856  0.00  0.00    -0.008 C 
ATOM     10  C   UNL     1     -10.493  12.239  20.401  0.00  0.00    +0.061 C 
ATOM     11  C   UNL     1     -10.678  13.315  21.480  0.00  0.00    +0.003 C 
ATOM     12  C   UNL     1      -9.446  14.038  22.048  0.00  0.00    +0.080 C 
ATOM     13  O   UNL     1     -10.002  14.938  23.029  0.00  0.00    -0.369 OA
ATOM     14  C   UNL     1      -9.073  15.492  23.978  0.00  0.00    +0.065 C 
ATOM     15  C   UNL     1      -8.118  16.468  23.269  0.00  0.00    +0.000 C 
ATOM     16  C   UNL     1      -7.260  17.350  24.196  0.00  0.00    +0.066 C 
ATOM     17  C   UNL     1      -6.491  18.414  23.359  0.00  0.00    +0.009 C 
ATOM     18  C   UNL     1      -5.196  17.898  22.666  0.00  0.00    +0.063 C 
ATOM     19  C   UNL     1      -4.971  18.499  21.258  0.00  0.00    -0.000 C 
ATOM     20  C   UNL     1      -6.072  18.083  20.256  0.00  0.00    +0.064 C 
ATOM     21  C   UNL     1      -5.514  17.659  18.870  0.00  0.00    +0.020 C 
ATOM     22  C   UNL     1      -6.404  16.605  18.118  0.00  0.00    +0.113 C 
ATOM     23  O   UNL     1      -7.711  16.487  18.711  0.00  0.00    -0.458 OA
ATOM     24  C   UNL     1      -8.660  17.354  18.283  0.00  0.00    +0.332 C 
ATOM     25  O   UNL     1      -8.602  18.077  17.302  0.00  0.00    -0.246 OA
ATOM     26  C   UNL     1      -9.786  17.289  19.237  0.00  0.00    +0.023 C 
ATOM     27  C   UNL     1     -10.847  18.095  19.082  0.00  0.00    -0.052 C 
ATOM     28  C   UNL     1     -11.990  18.149  19.983  0.00  0.00    -0.054 C 
ATOM     29  C   UNL     1     -11.832  18.146  21.322  0.00  0.00    -0.079 C 
ATOM     30  C   UNL     1     -12.914  18.260  22.364  0.00  0.00    -0.008 C 
ATOM     31  C   UNL     1     -13.434  16.882  22.816  0.00  0.00    +0.061 C 
ATOM     32  C   UNL     1     -12.929  16.502  24.216  0.00  0.00    +0.003 C 
ATOM     33  C   UNL     1     -13.181  15.025  24.570  0.00  0.00    +0.080 C 
ATOM     34  O   UNL     1     -12.303  14.611  25.638  0.00  0.00    -0.369 OA
ATOM     35  C   UNL     1     -12.785  14.899  26.965  0.00  0.00    +0.065 C 
ATOM     36  C   UNL     1     -11.671  14.464  27.940  0.00  0.00    +0.000 C 
ATOM     37  C   UNL     1     -12.011  14.626  29.437  0.00  0.00    +0.066 C 
ATOM     38  C   UNL     1     -10.864  14.120  30.363  0.00  0.00    +0.009 C 
ATOM     39  C   UNL     1     -10.520  12.608  30.256  0.00  0.00    +0.063 C 
ATOM     40  C   UNL     1     -11.314  11.564  31.069  0.00  0.00    -0.000 C 
ATOM     41  C   UNL     1     -12.713  11.147  30.591  0.00  0.00    +0.064 C 
ATOM     42  C   UNL     1     -12.848  10.783  29.095  0.00  0.00    +0.020 C 
ATOM     43  C   UNL     1     -14.089  14.121  27.199  0.00  0.00    -0.008 C 
ATOM     44  C   UNL     1     -15.056  14.302  26.075  0.00  0.00    -0.083 C 
ATOM     45  C   UNL     1     -14.627  14.713  24.877  0.00  0.00    -0.059 C 
ATOM     46  C   UNL     1      -8.406  14.357  24.769  0.00  0.00    -0.008 C 
ATOM     47  C   UNL     1      -7.893  13.280  23.869  0.00  0.00    -0.083 C 
ATOM     48  C   UNL     1      -8.371  13.154  22.623  0.00  0.00    -0.059 C 
ATOM     49  H   UNL     1     -10.875   9.948  28.955  0.00  0.00    +0.074 HD
ATOM     50  H   UNL     1     -10.495  11.598  24.821  0.00  0.00    +0.069 HD
ATOM     51  H   UNL     1     -12.114   8.976  24.628  0.00  0.00    +0.062 HD
ATOM     52  H   UNL     1      -9.462  10.530  22.920  0.00  0.00    +0.058 HD
ATOM     53  H   UNL     1     -10.539  10.086  20.190  0.00  0.00    +0.033 HD
ATOM     54  H   UNL     1      -8.997  10.690  20.679  0.00  0.00    +0.033 HD
ATOM     55  H   UNL     1     -11.466  12.130  19.903  0.00  0.00    +0.060 HD
ATOM     56  H   UNL     1     -11.300  12.937  22.301  0.00  0.00    +0.032 HD
ATOM     57  H   UNL     1     -11.301  14.107  21.034  0.00  0.00    +0.032 HD
ATOM     58  H   UNL     1      -9.002  14.647  21.254  0.00  0.00    +0.064 HD
ATOM     59  H   UNL     1      -9.686  16.065  24.682  0.00  0.00    +0.060 HD
ATOM     60  H   UNL     1      -8.743  17.116  22.640  0.00  0.00    +0.032 HD
ATOM     61  H   UNL     1      -7.482  15.920  22.574  0.00  0.00    +0.032 HD
ATOM     62  H   UNL     1      -6.549  16.737  24.764  0.00  0.00    +0.060 HD
ATOM     63  H   UNL     1      -7.191  18.776  22.597  0.00  0.00    +0.035 HD
ATOM     64  H   UNL     1      -4.337  18.179  23.289  0.00  0.00    +0.060 HD
ATOM     65  H   UNL     1      -4.000  18.130  20.909  0.00  0.00    +0.032 HD
ATOM     66  H   UNL     1      -4.904  19.591  21.331  0.00  0.00    +0.032 HD
ATOM     67  H   UNL     1      -6.624  17.250  20.686  0.00  0.00    +0.060 HD
ATOM     68  H   UNL     1      -4.533  17.200  19.031  0.00  0.00    +0.036 HD
ATOM     69  H   UNL     1      -6.543  16.926  17.076  0.00  0.00    +0.074 HD
ATOM     70  H   UNL     1      -9.689  16.605  20.069  0.00  0.00    +0.069 HD
ATOM     71  H   UNL     1     -10.886  18.769  18.225  0.00  0.00    +0.062 HD
ATOM     72  H   UNL     1     -10.827  18.078  21.741  0.00  0.00    +0.058 HD
ATOM     73  H   UNL     1     -12.504  18.818  23.217  0.00  0.00    +0.033 HD
ATOM     74  H   UNL     1     -13.731  18.887  21.990  0.00  0.00    +0.033 HD
ATOM     75  H   UNL     1     -13.140  16.106  22.098  0.00  0.00    +0.060 HD
ATOM     76  H   UNL     1     -11.854  16.697  24.280  0.00  0.00    +0.032 HD
ATOM     77  H   UNL     1     -13.402  17.145  24.970  0.00  0.00    +0.032 HD
ATOM     78  H   UNL     1     -12.886  14.408  23.714  0.00  0.00    +0.064 HD
ATOM     79  H   UNL     1     -12.952  15.980  27.056  0.00  0.00    +0.060 HD
ATOM     80  H   UNL     1     -11.404  13.431  27.705  0.00  0.00    +0.032 HD
ATOM     81  H   UNL     1     -10.776  15.057  27.704  0.00  0.00    +0.032 HD
ATOM     82  H   UNL     1     -12.934  14.092  29.665  0.00  0.00    +0.060 HD
ATOM     83  H   UNL     1      -9.965  14.671  30.046  0.00  0.00    +0.035 HD
ATOM     84  H   UNL     1     -10.495  12.306  29.214  0.00  0.00    +0.060 HD
ATOM     85  H   UNL     1     -11.382  11.902  32.111  0.00  0.00    +0.032 HD
ATOM     86  H   UNL     1     -10.703  10.652  31.125  0.00  0.00    +0.032 HD
ATOM     87  H   UNL     1     -13.021  10.284  31.195  0.00  0.00    +0.060 HD
ATOM     88  H   UNL     1     -12.579  11.684  28.535  0.00  0.00    +0.036 HD
ATOM     89  H   UNL     1     -14.566  14.435  28.132  0.00  0.00    +0.033 HD
ATOM     90  H   UNL     1     -13.880  13.051  27.268  0.00  0.00    +0.033 HD
ATOM     91  H   UNL     1     -16.104  14.073  26.240  0.00  0.00    +0.057 HD
ATOM     92  H   UNL     1     -15.346  14.838  24.072  0.00  0.00    +0.059 HD
ATOM     93  H   UNL     1      -9.144  13.901  25.441  0.00  0.00    +0.033 HD
ATOM     94  H   UNL     1      -7.597  14.743  25.394  0.00  0.00    +0.033 HD
ATOM     95  H   UNL     1      -7.114  12.619  24.237  0.00  0.00    +0.057 HD
ATOM     96  H   UNL     1      -7.929  12.419  21.960  0.00  0.00    +0.059 HD
ENDROOT
BRANCH  28  97
ATOM     97  C   UNL     1     -13.313  18.256  19.273  0.00  0.00    -0.040 C 
ATOM     98  H   UNL     1     -13.825  19.204  19.455  0.00  0.00    +0.028 HD
ATOM     99  H   UNL     1     -13.179  18.152  18.190  0.00  0.00    +0.028 HD
ATOM    100  H   UNL     1     -13.991  17.465  19.615  0.00  0.00    +0.028 HD
ENDBRANCH  28  97
BRANCH  21 101
ATOM    101  C   UNL     1      -5.238  18.860  17.954  0.00  0.00    -0.057 C 
ATOM    102  H   UNL     1      -4.167  19.060  17.852  0.00  0.00    +0.023 HD
ATOM    103  H   UNL     1      -5.706  19.766  18.355  0.00  0.00    +0.023 HD
ATOM    104  H   UNL     1      -5.653  18.695  16.954  0.00  0.00    +0.023 HD
ENDBRANCH  21 101
BRANCH  42 105
ATOM    105  C   UNL     1     -14.317  10.559  28.701  0.00  0.00    -0.057 C 
ATOM    106  H   UNL     1     -14.928  10.373  29.592  0.00  0.00    +0.023 HD
ATOM    107  H   UNL     1     -14.742  11.433  28.196  0.00  0.00    +0.023 HD
ATOM    108  H   UNL     1     -14.442   9.680  28.067  0.00  0.00    +0.023 HD
ENDBRANCH  42 105
BRANCH  17 109
ATOM    109  C   UNL     1      -6.140  19.672  24.173  0.00  0.00    -0.058 C 
ATOM    110  H   UNL     1      -5.827  19.414  25.188  0.00  0.00    +0.023 HD
ATOM    111  H   UNL     1      -6.992  20.357  24.238  0.00  0.00    +0.023 HD
ATOM    112  H   UNL     1      -5.323  20.230  23.700  0.00  0.00    +0.023 HD
ENDBRANCH  17 109
BRANCH  38 113
ATOM    113  C   UNL     1     -11.065  14.543  31.827  0.00  0.00    -0.058 C 
ATOM    114  H   UNL     1     -11.095  13.677  32.495  0.00  0.00    +0.023 HD
ATOM    115  H   UNL     1     -10.258  15.207  32.160  0.00  0.00    +0.023 HD
ATOM    116  H   UNL     1     -11.999  15.100  31.951  0.00  0.00    +0.023 HD
ENDBRANCH  38 113
BRANCH   7 117
ATOM    117  C   UNL     1     -12.802   9.916  22.105  0.00  0.00    -0.040 C 
ATOM    118  H   UNL     1     -13.650  10.038  22.783  0.00  0.00    +0.028 HD
ATOM    119  H   UNL     1     -12.889   8.928  21.647  0.00  0.00    +0.028 HD
ATOM    120  H   UNL     1     -12.894  10.654  21.300  0.00  0.00    +0.028 HD
ENDBRANCH   7 117
BRANCH   1 121
ATOM    121  C   UNL     1     -12.049   8.211  29.114  0.00  0.00    +0.020 C 
ATOM    122  H   UNL     1     -12.872   8.240  29.838  0.00  0.00    +0.036 HD
BRANCH 121 123
ATOM    123  C   UNL     1     -12.461   7.175  28.071  0.00  0.00    -0.057 C 
ATOM    124  H   UNL     1     -11.686   6.423  27.912  0.00  0.00    +0.023 HD
ATOM    125  H   UNL     1     -13.388   6.673  28.365  0.00  0.00    +0.023 HD
ATOM    126  H   UNL     1     -12.695   7.647  27.115  0.00  0.00    +0.023 HD
ENDBRANCH 121 123
BRANCH 121 127
ATOM    127  C   UNL     1     -10.778   7.753  29.905  0.00  0.00    +0.064 C 
ATOM    128  H   UNL     1     -10.861   8.184  30.910  0.00  0.00    +0.060 HD
BRANCH 127 129
ATOM    129  C   UNL     1      -9.383   8.124  29.298  0.00  0.00    -0.017 C 
ATOM    130  H   UNL     1      -9.534   8.815  28.466  0.00  0.00    +0.032 HD
BRANCH 129 131
ATOM    131  C   UNL     1      -8.570   8.889  30.356  0.00  0.00    -0.060 C 
ATOM    132  H   UNL     1      -8.283   9.882  29.996  0.00  0.00    +0.023 HD
ATOM    133  H   UNL     1      -7.654   8.345  30.614  0.00  0.00    +0.023 HD
ATOM    134  H   UNL     1      -9.138   9.012  31.284  0.00  0.00    +0.023 HD
ENDBRANCH 129 131
BRANCH 129 135
ATOM    135  C   UNL     1      -8.571   6.906  28.798  0.00  0.00    -0.046 C 
ATOM    136  H   UNL     1      -9.112   5.978  29.004  0.00  0.00    +0.027 HD
ATOM    137  H   UNL     1      -7.634   6.835  29.368  0.00  0.00    +0.027 HD
BRANCH 135 138
ATOM    138  C   UNL     1      -8.196   6.907  27.306  0.00  0.00    -0.026 C 
ATOM    139  H   UNL     1      -7.129   6.648  27.254  0.00  0.00    +0.029 HD
ATOM    140  H   UNL     1      -8.283   7.921  26.896  0.00  0.00    +0.029 HD
BRANCH 138 143
ATOM    141  C   UNL     1     -11.011   5.842  25.103  0.00  0.00    +0.059 C 
ATOM    142  O   UNL     1      -9.990   6.637  25.720  0.00  0.00    -0.373 OA
ATOM    143  C   UNL     1      -8.980   5.918  26.429  0.00  0.00    +0.061 C 
ATOM    144  C   UNL     1      -9.596   4.815  27.295  0.00  0.00    -0.000 C 
ATOM    145  C   UNL     1     -10.400   3.821  26.447  0.00  0.00    +0.063 C 
ATOM    146  C   UNL     1     -10.665   4.360  25.042  0.00  0.00    -0.000 C 
ATOM    147  H   UNL     1     -11.921   5.979  25.700  0.00  0.00    +0.059 HD
ATOM    148  H   UNL     1      -8.292   5.473  25.702  0.00  0.00    +0.060 HD
ATOM    149  H   UNL     1      -8.813   4.314  27.874  0.00  0.00    +0.032 HD
ATOM    150  H   UNL     1     -10.289   5.280  28.008  0.00  0.00    +0.032 HD
ATOM    151  H   UNL     1     -11.366   3.627  26.934  0.00  0.00    +0.060 HD
ATOM    152  H   UNL     1     -11.473   3.784  24.573  0.00  0.00    +0.032 HD
ATOM    153  H   UNL     1      -9.783   4.204  24.411  0.00  0.00    +0.032 HD
BRANCH 141 154
ATOM    154  C   UNL     1     -11.263   6.406  23.711  0.00  0.00    -0.039 C 
ATOM    155  H   UNL     1     -12.008   5.813  23.172  0.00  0.00    +0.025 HD
ATOM    156  H   UNL     1     -11.617   7.439  23.772  0.00  0.00    +0.025 HD
ATOM    157  H   UNL     1     -10.339   6.421  23.124  0.00  0.00    +0.025 HD
ENDBRANCH 141 154
BRANCH 145 158
ATOM    158  O   UNL     1      -9.696   2.582  26.303  0.00  0.00    -0.380 OA
BRANCH 158 159
ATOM    159  C   UNL     1     -10.445   1.586  25.618  0.00  0.00    +0.037 C 
ATOM    160  H   UNL     1     -11.278   1.285  26.262  0.00  0.00    +0.052 HD
ATOM    161  H   UNL     1     -10.855   1.969  24.680  0.00  0.00    +0.052 HD
ATOM    162  H   UNL     1      -9.820   0.709  25.425  0.00  0.00    +0.052 HD
ENDBRANCH 158 159
ENDBRANCH 145 158
ENDBRANCH 138 143
ENDBRANCH 135 138
ENDBRANCH 129 135
ENDBRANCH 127 129
BRANCH 127 163
ATOM    163  O   UNL     1     -10.875   6.335  30.094  0.00  0.00    -0.391 OA
ATOM    164  H   UNL     1     -10.050   6.045  30.523  0.00  0.00    +0.210 HD
ENDBRANCH 127 163
ENDBRANCH 121 127
ENDBRANCH   1 121
BRANCH  41 165
ATOM    165  O   UNL     1     -13.619  12.206  30.914  0.00  0.00    -0.391 OA
ATOM    166  H   UNL     1     -14.048  12.483  30.087  0.00  0.00    +0.210 HD
ENDBRANCH  41 165
BRANCH  39 167
ATOM    167  O   UNL     1      -9.154  12.461  30.713  0.00  0.00    -0.391 OA
ATOM    168  H   UNL     1      -8.584  12.626  29.941  0.00  0.00    +0.210 HD
ENDBRANCH  39 167
BRANCH  31 169
ATOM    169  O   UNL     1     -14.865  16.919  22.817  0.00  0.00    -0.391 OA
ATOM    170  H   UNL     1     -15.155  16.849  23.746  0.00  0.00    +0.210 HD
ENDBRANCH  31 169
BRANCH  22 171
ATOM    171  C   UNL     1      -5.738  15.178  18.038  0.00  0.00    +0.020 C 
ATOM    172  H   UNL     1      -6.281  14.631  17.256  0.00  0.00    +0.036 HD
BRANCH 171 173
ATOM    173  C   UNL     1      -4.279  15.379  17.575  0.00  0.00    -0.057 C 
ATOM    174  H   UNL     1      -4.204  16.146  16.797  0.00  0.00    +0.023 HD
ATOM    175  H   UNL     1      -3.630  15.682  18.402  0.00  0.00    +0.023 HD
ATOM    176  H   UNL     1      -3.858  14.481  17.125  0.00  0.00    +0.023 HD
ENDBRANCH 171 173
BRANCH 171 177
ATOM    177  C   UNL     1      -5.838  14.331  19.351  0.00  0.00    +0.064 C 
ATOM    178  H   UNL     1      -5.943  15.018  20.200  0.00  0.00    +0.060 HD
BRANCH 177 179
ATOM    179  O   UNL     1      -7.029  13.547  19.286  0.00  0.00    -0.391 OA
ATOM    180  H   UNL     1      -7.329  13.349  20.197  0.00  0.00    +0.210 HD
ENDBRANCH 177 179
BRANCH 177 181
ATOM    181  C   UNL     1      -4.685  13.327  19.672  0.00  0.00    -0.017 C 
ATOM    182  H   UNL     1      -3.884  13.485  18.937  0.00  0.00    +0.032 HD
BRANCH 181 183
ATOM    183  C   UNL     1      -4.070  13.494  21.061  0.00  0.00    -0.060 C 
ATOM    184  H   UNL     1      -3.918  12.519  21.531  0.00  0.00    +0.023 HD
ATOM    185  H   UNL     1      -4.733  14.026  21.749  0.00  0.00    +0.023 HD
ATOM    186  H   UNL     1      -3.122  14.037  21.017  0.00  0.00    +0.023 HD
ENDBRANCH 181 183
BRANCH 181 187
ATOM    187  C   UNL     1      -5.202  11.872  19.452  0.00  0.00    -0.046 C 
ATOM    188  H   UNL     1      -6.268  11.831  19.709  0.00  0.00    +0.027 HD
ATOM    189  H   UNL     1      -4.686  11.197  20.148  0.00  0.00    +0.027 HD
BRANCH 187 190
ATOM    190  C   UNL     1      -5.032  11.336  18.023  0.00  0.00    -0.026 C 
ATOM    191  H   UNL     1      -5.039  12.169  17.310  0.00  0.00    +0.029 HD
ATOM    192  H   UNL     1      -4.056  10.840  17.955  0.00  0.00    +0.029 HD
BRANCH 190 193
ATOM    193  C   UNL     1      -6.117  10.322  17.629  0.00  0.00    +0.061 C 
ATOM    194  O   UNL     1      -7.399  10.900  17.896  0.00  0.00    -0.373 OA
ATOM    195  C   UNL     1      -8.506  10.061  17.554  0.00  0.00    +0.059 C 
ATOM    196  C   UNL     1      -8.427   8.715  18.282  0.00  0.00    -0.000 C 
ATOM    197  C   UNL     1      -7.064   8.035  18.144  0.00  0.00    +0.063 C 
ATOM    198  C   UNL     1      -5.946   9.034  18.439  0.00  0.00    -0.000 C 
ATOM    199  H   UNL     1      -6.020  10.118  16.557  0.00  0.00    +0.060 HD
ATOM    200  H   UNL     1      -9.396  10.581  17.934  0.00  0.00    +0.059 HD
ATOM    201  H   UNL     1      -9.240   8.064  17.948  0.00  0.00    +0.032 HD
ATOM    202  H   UNL     1      -8.587   8.907  19.352  0.00  0.00    +0.032 HD
ATOM    203  H   UNL     1      -6.986   7.211  18.865  0.00  0.00    +0.060 HD
ATOM    204  H   UNL     1      -4.970   8.584  18.218  0.00  0.00    +0.032 HD
ATOM    205  H   UNL     1      -5.973   9.270  19.511  0.00  0.00    +0.032 HD
BRANCH 195 206
ATOM    206  C   UNL     1      -8.691   9.949  16.043  0.00  0.00    -0.039 C 
ATOM    207  H   UNL     1      -7.765  10.228  15.528  0.00  0.00    +0.025 HD
ATOM    208  H   UNL     1      -9.493  10.609  15.698  0.00  0.00    +0.025 HD
ATOM    209  H   UNL     1      -8.928   8.933  15.715  0.00  0.00    +0.025 HD
ENDBRANCH 195 206
BRANCH 197 210
ATOM    210  O   UNL     1      -6.857   7.515  16.827  0.00  0.00    -0.380 OA
BRANCH 210 211
ATOM    211  C   UNL     1      -7.743   6.457  16.489  0.00  0.00    +0.037 C 
ATOM    212  H   UNL     1      -8.714   6.892  16.238  0.00  0.00    +0.052 HD
ATOM    213  H   UNL     1      -7.371   5.914  15.615  0.00  0.00    +0.052 HD
ATOM    214  H   UNL     1      -7.880   5.770  17.328  0.00  0.00    +0.052 HD
ENDBRANCH 210 211
ENDBRANCH 197 210
ENDBRANCH 190 193
ENDBRANCH 187 190
ENDBRANCH 181 187
ENDBRANCH 177 181
ENDBRANCH 171 177
ENDBRANCH  22 171
BRANCH  20 215
ATOM    215  O   UNL     1      -7.021  19.145  20.136  0.00  0.00    -0.391 OA
ATOM    216  H   UNL     1      -7.651  19.097  20.874  0.00  0.00    +0.210 HD
ENDBRANCH  20 215
BRANCH  18 217
ATOM    217  O   UNL     1      -5.136  16.473  22.557  0.00  0.00    -0.391 OA
ATOM    218  H   UNL     1      -6.034  16.169  22.325  0.00  0.00    +0.210 HD
ENDBRANCH  18 217
BRANCH  10 219
ATOM    219  O   UNL     1      -9.578  12.681  19.396  0.00  0.00    -0.391 OA
ATOM    220  H   UNL     1      -9.740  12.164  18.588  0.00  0.00    +0.210 HD
ENDBRANCH  10 219
BRANCH  37 221
ATOM    221  O   UNL     1     -12.184  16.040  29.651  0.00  0.00    -0.379 OA
BRANCH 221 222
ATOM    222  C   UNL     1     -13.481  16.387  30.118  0.00  0.00    +0.037 C 
ATOM    223  H   UNL     1     -13.490  16.284  31.206  0.00  0.00    +0.052 HD
ATOM    224  H   UNL     1     -13.703  17.428  29.870  0.00  0.00    +0.052 HD
ATOM    225  H   UNL     1     -14.248  15.730  29.699  0.00  0.00    +0.052 HD
ENDBRANCH 221 222
ENDBRANCH  37 221
BRANCH  16 226
ATOM    226  O   UNL     1      -8.167  18.026  25.084  0.00  0.00    -0.379 OA
BRANCH 226 227
ATOM    227  C   UNL     1      -7.943  17.723  26.457  0.00  0.00    +0.037 C 
ATOM    228  H   UNL     1      -7.328  18.517  26.889  0.00  0.00    +0.052 HD
ATOM    229  H   UNL     1      -8.891  17.683  27.002  0.00  0.00    +0.052 HD
ATOM    230  H   UNL     1      -7.410  16.773  26.562  0.00  0.00    +0.052 HD
ENDBRANCH 226 227
ENDBRANCH  16 226
TORSDOF 40
ENDMDL
MODEL 2
REMARK VINA RESULT:      -5.1     10.712     21.257
REMARK  Name = Swinholide A_conf3
REMARK  40 active torsions:
REMARK  status: ('A' for Active; 'I' for Inactive)
REMARK    1  A    between atoms: C_1  and  C_2
REMARK    2  A    between atoms: C_4  and  C_10
REMARK    3  A    between atoms: C_6  and  O_8
REMARK    4  A    between atoms: O_8  and  C_9
REMARK    5  A    between atoms: C_10  and  C_11
REMARK    6  A    between atoms: C_11  and  C_12
REMARK    7  A    between atoms: C_12  and  C_13
REMARK    8  A    between atoms: C_12  and  C_98
REMARK    9  A    between atoms: C_13  and  O_14
REMARK   10  A    between atoms: C_13  and  C_15
REMARK   11  A    between atoms: C_15  and  C_16
REMARK   12  A    between atoms: C_15  and  C_97
REMARK   13  A    between atoms: C_22  and  C_96
REMARK   14  A    between atoms: C_25  and  O_95
REMARK   15  A    between atoms: C_31  and  O_90
REMARK   16  A    between atoms: C_32  and  C_89
REMARK   17  A    between atoms: C_33  and  O_88
REMARK   18  A    between atoms: C_35  and  O_87
REMARK   19  A    between atoms: C_36  and  C_86
REMARK   20  A    between atoms: C_37  and  C_69
REMARK   21  A    between atoms: C_43  and  C_68
REMARK   22  A    between atoms: C_46  and  O_67
REMARK   23  A    between atoms: C_52  and  O_62
REMARK   24  A    between atoms: C_53  and  C_61
REMARK   25  A    between atoms: C_54  and  O_60
REMARK   26  A    between atoms: C_56  and  O_59
REMARK   27  A    between atoms: C_57  and  C_58
REMARK   28  A    between atoms: O_62  and  C_63
REMARK   29  A    between atoms: C_69  and  C_70
REMARK   30  A    between atoms: C_69  and  C_85
REMARK   31  A    between atoms: C_70  and  O_71
REMARK   32  A    between atoms: C_70  and  C_72
REMARK   33  A    between atoms: C_72  and  C_73
REMARK   34  A    between atoms: C_72  and  C_84
REMARK   35  A    between atoms: C_73  and  C_74
REMARK   36  A    between atoms: C_74  and  C_75
REMARK   37  A    between atoms: C_77  and  C_83
REMARK   38  A    between atoms: C_79  and  O_81
REMARK   39  A    between atoms: O_81  and  C_82
REMARK   40  A    between atoms: O_90  and  C_91
REMARK                            x       y       z     vdW  Elec       q    Type
REMARK                         _______ _______ _______ _____ _____    ______ ____
ROOT
ATOM      1  C   UNL     1      -7.608   9.644   2.856  0.00  0.00    +0.113 C 
ATOM      2  O   UNL     1      -8.292   9.726   4.134  0.00  0.00    -0.458 OA
ATOM      3  C   UNL     1      -7.898   8.798   5.047  0.00  0.00    +0.332 C 
ATOM      4  O   UNL     1      -6.974   8.007   4.915  0.00  0.00    -0.246 OA
ATOM      5  C   UNL     1      -8.712   8.777   6.266  0.00  0.00    +0.023 C 
ATOM      6  C   UNL     1      -9.437   9.788   6.767  0.00  0.00    -0.052 C 
ATOM      7  C   UNL     1     -10.104   9.678   8.061  0.00  0.00    -0.054 C 
ATOM      8  C   UNL     1      -9.449   9.148   9.114  0.00  0.00    -0.079 C 
ATOM      9  C   UNL     1      -9.967   8.870  10.494  0.00  0.00    -0.008 C 
ATOM     10  C   UNL     1     -10.841   7.608  10.671  0.00  0.00    +0.061 C 
ATOM     11  C   UNL     1     -10.716   6.495   9.623  0.00  0.00    +0.003 C 
ATOM     12  C   UNL     1      -9.545   5.501   9.707  0.00  0.00    +0.080 C 
ATOM     13  O   UNL     1      -9.747   4.640   8.568  0.00  0.00    -0.369 OA
ATOM     14  C   UNL     1      -8.621   3.836   8.175  0.00  0.00    +0.065 C 
ATOM     15  C   UNL     1      -8.344   2.763   9.243  0.00  0.00    +0.000 C 
ATOM     16  C   UNL     1      -7.357   1.654   8.832  0.00  0.00    +0.066 C 
ATOM     17  C   UNL     1      -7.318   0.542   9.922  0.00  0.00    +0.009 C 
ATOM     18  C   UNL     1      -6.428   0.862  11.158  0.00  0.00    +0.063 C 
ATOM     19  C   UNL     1      -7.029   0.358  12.493  0.00  0.00    -0.000 C 
ATOM     20  C   UNL     1      -8.357   1.065  12.848  0.00  0.00    +0.064 C 
ATOM     21  C   UNL     1      -8.444   1.498  14.337  0.00  0.00    +0.020 C 
ATOM     22  C   UNL     1      -9.340   2.765  14.582  0.00  0.00    +0.113 C 
ATOM     23  O   UNL     1     -10.152   3.077  13.435  0.00  0.00    -0.458 OA
ATOM     24  C   UNL     1     -11.350   2.449  13.342  0.00  0.00    +0.332 C 
ATOM     25  O   UNL     1     -11.916   1.820  14.221  0.00  0.00    -0.246 OA
ATOM     26  C   UNL     1     -11.849   2.642  11.965  0.00  0.00    +0.023 C 
ATOM     27  C   UNL     1     -13.000   2.070  11.581  0.00  0.00    -0.052 C 
ATOM     28  C   UNL     1     -13.564   2.154  10.241  0.00  0.00    -0.054 C 
ATOM     29  C   UNL     1     -12.795   2.007   9.143  0.00  0.00    -0.079 C 
ATOM     30  C   UNL     1     -13.253   2.008   7.707  0.00  0.00    -0.008 C 
ATOM     31  C   UNL     1     -13.195   3.414   7.079  0.00  0.00    +0.061 C 
ATOM     32  C   UNL     1     -12.020   3.563   6.100  0.00  0.00    +0.003 C 
ATOM     33  C   UNL     1     -11.758   5.022   5.687  0.00  0.00    +0.080 C 
ATOM     34  O   UNL     1     -10.415   5.164   5.179  0.00  0.00    -0.369 OA
ATOM     35  C   UNL     1     -10.262   4.854   3.780  0.00  0.00    +0.065 C 
ATOM     36  C   UNL     1      -8.756   4.979   3.466  0.00  0.00    +0.000 C 
ATOM     37  C   UNL     1      -8.373   4.751   1.988  0.00  0.00    +0.066 C 
ATOM     38  C   UNL     1      -6.847   4.943   1.734  0.00  0.00    +0.009 C 
ATOM     39  C   UNL     1      -6.285   6.365   2.014  0.00  0.00    +0.063 C 
ATOM     40  C   UNL     1      -6.361   7.464   0.932  0.00  0.00    -0.000 C 
ATOM     41  C   UNL     1      -7.696   8.182   0.684  0.00  0.00    +0.064 C 
ATOM     42  C   UNL     1      -8.442   8.698   1.936  0.00  0.00    +0.020 C 
ATOM     43  C   UNL     1     -11.103   5.843   2.958  0.00  0.00    -0.008 C 
ATOM     44  C   UNL     1     -12.499   5.952   3.476  0.00  0.00    -0.083 C 
ATOM     45  C   UNL     1     -12.785   5.576   4.728  0.00  0.00    -0.059 C 
ATOM     46  C   UNL     1      -7.437   4.746   7.818  0.00  0.00    -0.008 C 
ATOM     47  C   UNL     1      -7.196   5.782   8.867  0.00  0.00    -0.083 C 
ATOM     48  C   UNL     1      -8.168   6.109   9.732  0.00  0.00    -0.059 C 
ATOM     49  H   UNL     1      -6.644   9.150   3.018  0.00  0.00    +0.074 HD
ATOM     50  H   UNL     1      -8.619   7.837   6.804  0.00  0.00    +0.069 HD
ATOM     51  H   UNL     1      -9.544  10.726   6.229  0.00  0.00    +0.062 HD
ATOM     52  H   UNL     1      -8.408   8.856   8.981  0.00  0.00    +0.058 HD
ATOM     53  H   UNL     1     -10.526   9.741  10.862  0.00  0.00    +0.033 HD
ATOM     54  H   UNL     1      -9.102   8.812  11.167  0.00  0.00    +0.033 HD
ATOM     55  H   UNL     1     -11.885   7.945  10.642  0.00  0.00    +0.060 HD
ATOM     56  H   UNL     1     -10.781   6.909   8.608  0.00  0.00    +0.032 HD
ATOM     57  H   UNL     1     -11.626   5.879   9.704  0.00  0.00    +0.032 HD
ATOM     58  H   UNL     1      -9.669   4.893  10.609  0.00  0.00    +0.064 HD
ATOM     59  H   UNL     1      -8.933   3.329   7.257  0.00  0.00    +0.060 HD
ATOM     60  H   UNL     1      -9.312   2.305   9.486  0.00  0.00    +0.032 HD
ATOM     61  H   UNL     1      -8.012   3.240  10.166  0.00  0.00    +0.032 HD
ATOM     62  H   UNL     1      -6.351   2.066   8.683  0.00  0.00    +0.060 HD
ATOM     63  H   UNL     1      -8.353   0.391  10.249  0.00  0.00    +0.035 HD
ATOM     64  H   UNL     1      -5.458   0.367  11.021  0.00  0.00    +0.060 HD
ATOM     65  H   UNL     1      -6.284   0.565  13.270  0.00  0.00    +0.032 HD
ATOM     66  H   UNL     1      -7.166  -0.728  12.447  0.00  0.00    +0.032 HD
ATOM     67  H   UNL     1      -8.450   1.946  12.216  0.00  0.00    +0.060 HD
ATOM     68  H   UNL     1      -7.432   1.745  14.674  0.00  0.00    +0.036 HD
ATOM     69  H   UNL     1     -10.018   2.572  15.424  0.00  0.00    +0.074 HD
ATOM     70  H   UNL     1     -11.229   3.217  11.292  0.00  0.00    +0.069 HD
ATOM     71  H   UNL     1     -13.580   1.496  12.305  0.00  0.00    +0.062 HD
ATOM     72  H   UNL     1     -11.723   1.844   9.260  0.00  0.00    +0.058 HD
ATOM     73  H   UNL     1     -12.617   1.307   7.149  0.00  0.00    +0.033 HD
ATOM     74  H   UNL     1     -14.261   1.585   7.635  0.00  0.00    +0.033 HD
ATOM     75  H   UNL     1     -13.119   4.181   7.860  0.00  0.00    +0.060 HD
ATOM     76  H   UNL     1     -11.112   3.161   6.558  0.00  0.00    +0.032 HD
ATOM     77  H   UNL     1     -12.205   2.956   5.202  0.00  0.00    +0.032 HD
ATOM     78  H   UNL     1     -11.780   5.646   6.588  0.00  0.00    +0.064 HD
ATOM     79  H   UNL     1     -10.588   3.821   3.606  0.00  0.00    +0.060 HD
ATOM     80  H   UNL     1      -8.421   5.959   3.815  0.00  0.00    +0.032 HD
ATOM     81  H   UNL     1      -8.226   4.250   4.096  0.00  0.00    +0.032 HD
ATOM     82  H   UNL     1      -8.943   5.429   1.352  0.00  0.00    +0.060 HD
ATOM     83  H   UNL     1      -6.344   4.262   2.438  0.00  0.00    +0.035 HD
ATOM     84  H   UNL     1      -6.692   6.749   2.943  0.00  0.00    +0.060 HD
ATOM     85  H   UNL     1      -5.998   7.053  -0.018  0.00  0.00    +0.032 HD
ATOM     86  H   UNL     1      -5.619   8.234   1.189  0.00  0.00    +0.032 HD
ATOM     87  H   UNL     1      -7.493   9.030   0.018  0.00  0.00    +0.060 HD
ATOM     88  H   UNL     1      -8.666   7.816   2.545  0.00  0.00    +0.036 HD
ATOM     89  H   UNL     1     -11.136   5.542   1.906  0.00  0.00    +0.033 HD
ATOM     90  H   UNL     1     -10.666   6.842   3.012  0.00  0.00    +0.033 HD
ATOM     91  H   UNL     1     -13.270   6.360   2.830  0.00  0.00    +0.057 HD
ATOM     92  H   UNL     1     -13.807   5.663   5.086  0.00  0.00    +0.059 HD
ATOM     93  H   UNL     1      -7.655   5.273   6.880  0.00  0.00    +0.033 HD
ATOM     94  H   UNL     1      -6.531   4.158   7.653  0.00  0.00    +0.033 HD
ATOM     95  H   UNL     1      -6.217   6.247   8.928  0.00  0.00    +0.057 HD
ATOM     96  H   UNL     1      -7.948   6.803  10.535  0.00  0.00    +0.059 HD
ENDROOT
BRANCH  28  97
ATOM     97  C   UNL     1     -15.054   2.366  10.226  0.00  0.00    -0.040 C 
ATOM     98  H   UNL     1     -15.398   2.949   9.368  0.00  0.00    +0.028 HD
ATOM     99  H   UNL     1     -15.580   1.405  10.207  0.00  0.00    +0.028 HD
ATOM    100  H   UNL     1     -15.367   2.915  11.122  0.00  0.00    +0.028 HD
ENDBRANCH  28  97
BRANCH  21 101
ATOM    101  C   UNL     1      -8.894   0.353  15.257  0.00  0.00    -0.057 C 
ATOM    102  H   UNL     1      -8.762   0.603  16.314  0.00  0.00    +0.023 HD
ATOM    103  H   UNL     1      -8.311  -0.552  15.057  0.00  0.00    +0.023 HD
ATOM    104  H   UNL     1      -9.948   0.107  15.090  0.00  0.00    +0.023 HD
ENDBRANCH  21 101
BRANCH  42 105
ATOM    105  C   UNL     1      -9.838   9.232   1.578  0.00  0.00    -0.057 C 
ATOM    106  H   UNL     1     -10.600   8.770   2.215  0.00  0.00    +0.023 HD
ATOM    107  H   UNL     1      -9.911  10.316   1.723  0.00  0.00    +0.023 HD
ATOM    108  H   UNL     1     -10.120   8.986   0.552  0.00  0.00    +0.023 HD
ENDBRANCH  42 105
BRANCH  17 109
ATOM    109  C   UNL     1      -6.899  -0.828   9.360  0.00  0.00    -0.058 C 
ATOM    110  H   UNL     1      -6.473  -1.464  10.141  0.00  0.00    +0.023 HD
ATOM    111  H   UNL     1      -6.158  -0.724   8.560  0.00  0.00    +0.023 HD
ATOM    112  H   UNL     1      -7.758  -1.354   8.928  0.00  0.00    +0.023 HD
ENDBRANCH  17 109
BRANCH  38 113
ATOM    113  C   UNL     1      -6.417   4.436   0.349  0.00  0.00    -0.058 C 
ATOM    114  H   UNL     1      -7.172   4.656  -0.412  0.00  0.00    +0.023 HD
ATOM    115  H   UNL     1      -5.471   4.894   0.038  0.00  0.00    +0.023 HD
ATOM    116  H   UNL     1      -6.252   3.353   0.360  0.00  0.00    +0.023 HD
ENDBRANCH  38 113
BRANCH   7 117
ATOM    117  C   UNL     1     -11.523  10.166   8.098  0.00  0.00    -0.040 C 
ATOM    118  H   UNL     1     -12.209   9.343   7.882  0.00  0.00    +0.028 HD
ATOM    119  H   UNL     1     -11.716  10.953   7.365  0.00  0.00    +0.028 HD
ATOM    120  H   UNL     1     -11.771  10.574   9.084  0.00  0.00    +0.028 HD
ENDBRANCH   7 117
BRANCH   1 121
ATOM    121  C   UNL     1      -7.207  11.058   2.338  0.00  0.00    +0.020 C 
ATOM    122  H   UNL     1      -7.701  11.179   1.365  0.00  0.00    +0.036 HD
BRANCH 121 123
ATOM    123  C   UNL     1      -7.677  12.240   3.182  0.00  0.00    -0.057 C 
ATOM    124  H   UNL     1      -7.632  13.181   2.630  0.00  0.00    +0.023 HD
ATOM    125  H   UNL     1      -8.701  12.085   3.534  0.00  0.00    +0.023 HD
ATOM    126  H   UNL     1      -7.085  12.337   4.093  0.00  0.00    +0.023 HD
ENDBRANCH 121 123
BRANCH 121 127
ATOM    127  C   UNL     1      -5.667  11.125   2.065  0.00  0.00    +0.064 C 
ATOM    128  H   UNL     1      -5.458  10.399   1.270  0.00  0.00    +0.060 HD
BRANCH 127 129
ATOM    129  C   UNL     1      -4.712  10.855   3.275  0.00  0.00    -0.017 C 
ATOM    130  H   UNL     1      -5.070   9.977   3.817  0.00  0.00    +0.032 HD
BRANCH 129 131
ATOM    131  C   UNL     1      -3.318  10.494   2.735  0.00  0.00    -0.060 C 
ATOM    132  H   UNL     1      -2.559  10.550   3.523  0.00  0.00    +0.023 HD
ATOM    133  H   UNL     1      -3.020  11.179   1.932  0.00  0.00    +0.023 HD
ATOM    134  H   UNL     1      -3.302   9.484   2.315  0.00  0.00    +0.023 HD
ENDBRANCH 129 131
BRANCH 129 135
ATOM    135  C   UNL     1      -4.597  12.042   4.261  0.00  0.00    -0.046 C 
ATOM    136  H   UNL     1      -4.719  11.695   5.290  0.00  0.00    +0.027 HD
ATOM    137  H   UNL     1      -5.424  12.743   4.085  0.00  0.00    +0.027 HD
BRANCH 135 138
ATOM    138  C   UNL     1      -3.291  12.855   4.193  0.00  0.00    -0.026 C 
ATOM    139  H   UNL     1      -2.661  12.366   3.436  0.00  0.00    +0.029 HD
ATOM    140  H   UNL     1      -2.747  12.774   5.142  0.00  0.00    +0.029 HD
BRANCH 138 143
ATOM    141  C   UNL     1      -4.818  15.716   2.349  0.00  0.00    +0.059 C 
ATOM    142  O   UNL     1      -4.663  14.478   3.056  0.00  0.00    -0.373 OA
ATOM    143  C   UNL     1      -3.456  14.333   3.807  0.00  0.00    +0.061 C 
ATOM    144  C   UNL     1      -2.246  14.809   3.000  0.00  0.00    -0.000 C 
ATOM    145  C   UNL     1      -2.391  16.279   2.587  0.00  0.00    +0.063 C 
ATOM    146  C   UNL     1      -3.821  16.784   2.780  0.00  0.00    -0.000 C 
ATOM    147  H   UNL     1      -4.675  15.491   1.285  0.00  0.00    +0.059 HD
ATOM    148  H   UNL     1      -3.543  14.927   4.724  0.00  0.00    +0.060 HD
ATOM    149  H   UNL     1      -1.326  14.638   3.569  0.00  0.00    +0.032 HD
ATOM    150  H   UNL     1      -2.183  14.211   2.082  0.00  0.00    +0.032 HD
ATOM    151  H   UNL     1      -2.124  16.387   1.526  0.00  0.00    +0.060 HD
ATOM    152  H   UNL     1      -3.964  17.711   2.211  0.00  0.00    +0.032 HD
ATOM    153  H   UNL     1      -3.983  17.050   3.830  0.00  0.00    +0.032 HD
BRANCH 141 154
ATOM    154  C   UNL     1      -6.251  16.189   2.549  0.00  0.00    -0.039 C 
ATOM    155  H   UNL     1      -6.662  16.610   1.626  0.00  0.00    +0.025 HD
ATOM    156  H   UNL     1      -6.890  15.361   2.870  0.00  0.00    +0.025 HD
ATOM    157  H   UNL     1      -6.304  16.952   3.333  0.00  0.00    +0.025 HD
ENDBRANCH 141 154
BRANCH 145 158
ATOM    158  O   UNL     1      -1.534  17.120   3.368  0.00  0.00    -0.380 OA
BRANCH 158 159
ATOM    159  C   UNL     1      -1.567  18.484   2.967  0.00  0.00    +0.037 C 
ATOM    160  H   UNL     1      -2.605  18.828   3.016  0.00  0.00    +0.052 HD
ATOM    161  H   UNL     1      -0.963  19.110   3.629  0.00  0.00    +0.052 HD
ATOM    162  H   UNL     1      -1.217  18.583   1.935  0.00  0.00    +0.052 HD
ENDBRANCH 158 159
ENDBRANCH 145 158
ENDBRANCH 138 143
ENDBRANCH 135 138
ENDBRANCH 129 135
ENDBRANCH 127 129
BRANCH 127 163
ATOM    163  O   UNL     1      -5.386  12.407   1.487  0.00  0.00    -0.391 OA
ATOM    164  H   UNL     1      -5.566  12.337   0.533  0.00  0.00    +0.210 HD
ENDBRANCH 127 163
ENDBRANCH 121 127
ENDBRANCH   1 121
BRANCH  41 165
ATOM    165  O   UNL     1      -8.542   7.291  -0.048  0.00  0.00    -0.391 OA
ATOM    166  H   UNL     1      -8.809   6.580   0.558  0.00  0.00    +0.210 HD
ENDBRANCH  41 165
BRANCH  39 167
ATOM    167  O   UNL     1      -4.869   6.207   2.271  0.00  0.00    -0.391 OA
ATOM    168  H   UNL     1      -4.423   6.954   1.835  0.00  0.00    +0.210 HD
ENDBRANCH  39 167
BRANCH  31 169
ATOM    169  O   UNL     1     -14.427   3.650   6.390  0.00  0.00    -0.391 OA
ATOM    170  H   UNL     1     -14.293   4.428   5.818  0.00  0.00    +0.210 HD
ENDBRANCH  31 169
BRANCH  22 171
ATOM    171  C   UNL     1      -8.506   4.041  14.991  0.00  0.00    +0.020 C 
ATOM    172  H   UNL     1      -7.468   3.702  15.107  0.00  0.00    +0.036 HD
BRANCH 171 173
ATOM    173  C   UNL     1      -8.571   5.029  13.807  0.00  0.00    -0.057 C 
ATOM    174  H   UNL     1      -8.204   6.021  14.088  0.00  0.00    +0.023 HD
ATOM    175  H   UNL     1      -7.974   4.683  12.958  0.00  0.00    +0.023 HD
ATOM    176  H   UNL     1      -9.590   5.194  13.459  0.00  0.00    +0.023 HD
ENDBRANCH 171 173
BRANCH 171 177
ATOM    177  C   UNL     1      -8.933   4.699  16.345  0.00  0.00    +0.064 C 
ATOM    178  H   UNL     1      -9.260   3.905  17.029  0.00  0.00    +0.060 HD
BRANCH 177 179
ATOM    179  O   UNL     1      -7.783   5.316  16.923  0.00  0.00    -0.391 OA
ATOM    180  H   UNL     1      -7.141   5.521  16.212  0.00  0.00    +0.210 HD
ENDBRANCH 177 179
BRANCH 177 181
ATOM    181  C   UNL     1     -10.038   5.804  16.314  0.00  0.00    -0.017 C 
ATOM    182  H   UNL     1     -10.230   6.060  15.263  0.00  0.00    +0.032 HD
BRANCH 181 183
ATOM    183  C   UNL     1     -11.369   5.383  16.933  0.00  0.00    -0.060 C 
ATOM    184  H   UNL     1     -12.204   5.765  16.340  0.00  0.00    +0.023 HD
ATOM    185  H   UNL     1     -11.523   5.815  17.926  0.00  0.00    +0.023 HD
ATOM    186  H   UNL     1     -11.445   4.296  17.023  0.00  0.00    +0.023 HD
ENDBRANCH 181 183
BRANCH 181 187
ATOM    187  C   UNL     1      -9.483   7.097  16.986  0.00  0.00    -0.046 C 
ATOM    188  H   UNL     1      -8.582   6.841  17.558  0.00  0.00    +0.027 HD
ATOM    189  H   UNL     1     -10.218   7.471  17.710  0.00  0.00    +0.027 HD
BRANCH 187 190
ATOM    190  C   UNL     1      -9.125   8.228  16.011  0.00  0.00    -0.026 C 
ATOM    191  H   UNL     1      -8.897   7.811  15.023  0.00  0.00    +0.029 HD
ATOM    192  H   UNL     1     -10.000   8.883  15.908  0.00  0.00    +0.029 HD
BRANCH 190 193
ATOM    193  C   UNL     1      -7.939   9.080  16.489  0.00  0.00    +0.061 C 
ATOM    194  O   UNL     1      -6.814   8.219  16.696  0.00  0.00    -0.373 OA
ATOM    195  C   UNL     1      -5.628   8.893  17.126  0.00  0.00    +0.059 C 
ATOM    196  C   UNL     1      -5.875   9.677  18.419  0.00  0.00    -0.000 C 
ATOM    197  C   UNL     1      -7.112  10.574  18.353  0.00  0.00    +0.063 C 
ATOM    198  C   UNL     1      -8.300   9.791  17.796  0.00  0.00    -0.000 C 
ATOM    199  H   UNL     1      -7.706   9.810  15.705  0.00  0.00    +0.060 HD
ATOM    200  H   UNL     1      -4.909   8.098  17.364  0.00  0.00    +0.059 HD
ATOM    201  H   UNL     1      -4.978  10.243  18.688  0.00  0.00    +0.032 HD
ATOM    202  H   UNL     1      -6.047   8.947  19.222  0.00  0.00    +0.032 HD
ATOM    203  H   UNL     1      -7.373  10.921  19.362  0.00  0.00    +0.060 HD
ATOM    204  H   UNL     1      -9.150  10.464  17.629  0.00  0.00    +0.032 HD
ATOM    205  H   UNL     1      -8.600   9.047  18.545  0.00  0.00    +0.032 HD
BRANCH 195 206
ATOM    206  C   UNL     1      -4.998   9.714  16.003  0.00  0.00    -0.039 C 
ATOM    207  H   UNL     1      -4.455  10.570  16.422  0.00  0.00    +0.025 HD
ATOM    208  H   UNL     1      -5.765  10.090  15.319  0.00  0.00    +0.025 HD
ATOM    209  H   UNL     1      -4.271   9.148  15.416  0.00  0.00    +0.025 HD
ENDBRANCH 195 206
BRANCH 197 210
ATOM    210  O   UNL     1      -6.901  11.714  17.515  0.00  0.00    -0.380 OA
BRANCH 210 211
ATOM    211  C   UNL     1      -6.592  12.900  18.235  0.00  0.00    +0.037 C 
ATOM    212  H   UNL     1      -6.564  13.731  17.528  0.00  0.00    +0.052 HD
ATOM    213  H   UNL     1      -7.366  13.104  18.981  0.00  0.00    +0.052 HD
ATOM    214  H   UNL     1      -5.614  12.827  18.719  0.00  0.00    +0.052 HD
ENDBRANCH 210 211
ENDBRANCH 197 210
ENDBRANCH 190 193
ENDBRANCH 187 190
ENDBRANCH 181 187
ENDBRANCH 177 181
ENDBRANCH 171 177
ENDBRANCH  22 171
BRANCH  20 215
ATOM    215  O   UNL     1      -9.449   0.219  12.483  0.00  0.00    -0.391 OA
ATOM    216  H   UNL     1     -10.270   0.737  12.484  0.00  0.00    +0.210 HD
ENDBRANCH  20 215
BRANCH  18 217
ATOM    217  O   UNL     1      -6.129   2.253  11.301  0.00  0.00    -0.391 OA
ATOM    218  H   UNL     1      -5.218   2.381  10.975  0.00  0.00    +0.210 HD
ENDBRANCH  18 217
BRANCH  10 219
ATOM    219  O   UNL     1     -10.626   7.092  11.987  0.00  0.00    -0.391 OA
ATOM    220  H   UNL     1      -9.685   7.199  12.207  0.00  0.00    +0.210 HD
ENDBRANCH  10 219
BRANCH  37 221
ATOM    221  O   UNL     1      -8.717   3.383   1.699  0.00  0.00    -0.379 OA
BRANCH 221 222
ATOM    222  C   UNL     1      -8.130   2.449   2.595  0.00  0.00    +0.037 C 
ATOM    223  H   UNL     1      -8.871   2.199   3.359  0.00  0.00    +0.052 HD
ATOM    224  H   UNL     1      -7.865   1.533   2.063  0.00  0.00    +0.052 HD
ATOM    225  H   UNL     1      -7.247   2.866   3.089  0.00  0.00    +0.052 HD
ENDBRANCH 221 222
ENDBRANCH  37 221
BRANCH  16 226
ATOM    226  O   UNL     1      -7.856   1.086   7.608  0.00  0.00    -0.379 OA
BRANCH 226 227
ATOM    227  C   UNL     1      -6.929   1.165   6.531  0.00  0.00    +0.037 C 
ATOM    228  H   UNL     1      -5.923   1.256   6.948  0.00  0.00    +0.052 HD
ATOM    229  H   UNL     1      -6.971   0.258   5.920  0.00  0.00    +0.052 HD
ATOM    230  H   UNL     1      -7.130   2.044   5.910  0.00  0.00    +0.052 HD
ENDBRANCH 226 227
ENDBRANCH  16 226
TORSDOF 40
ENDMDL
MODEL 3
REMARK VINA RESULT:      -5.1      1.664      2.424
REMARK  Name = Swinholide A_conf3
REMARK  40 active torsions:
REMARK  status: ('A' for Active; 'I' for Inactive)
REMARK    1  A    between atoms: C_1  and  C_2
REMARK    2  A    between atoms: C_4  and  C_10
REMARK    3  A    between atoms: C_6  and  O_8
REMARK    4  A    between atoms: O_8  and  C_9
REMARK    5  A    between atoms: C_10  and  C_11
REMARK    6  A    between atoms: C_11  and  C_12
REMARK    7  A    between atoms: C_12  and  C_13
REMARK    8  A    between atoms: C_12  and  C_98
REMARK    9  A    between atoms: C_13  and  O_14
REMARK   10  A    between atoms: C_13  and  C_15
REMARK   11  A    between atoms: C_15  and  C_16
REMARK   12  A    between atoms: C_15  and  C_97
REMARK   13  A    between atoms: C_22  and  C_96
REMARK   14  A    between atoms: C_25  and  O_95
REMARK   15  A    between atoms: C_31  and  O_90
REMARK   16  A    between atoms: C_32  and  C_89
REMARK   17  A    between atoms: C_33  and  O_88
REMARK   18  A    between atoms: C_35  and  O_87
REMARK   19  A    between atoms: C_36  and  C_86
REMARK   20  A    between atoms: C_37  and  C_69
REMARK   21  A    between atoms: C_43  and  C_68
REMARK   22  A    between atoms: C_46  and  O_67
REMARK   23  A    between atoms: C_52  and  O_62
REMARK   24  A    between atoms: C_53  and  C_61
REMARK   25  A    between atoms: C_54  and  O_60
REMARK   26  A    between atoms: C_56  and  O_59
REMARK   27  A    between atoms: C_57  and  C_58
REMARK   28  A    between atoms: O_62  and  C_63
REMARK   29  A    between atoms: C_69  and  C_70
REMARK   30  A    between atoms: C_69  and  C_85
REMARK   31  A    between atoms: C_70  and  O_71
REMARK   32  A    between atoms: C_70  and  C_72
REMARK   33  A    between atoms: C_72  and  C_73
REMARK   34  A    between atoms: C_72  and  C_84
REMARK   35  A    between atoms: C_73  and  C_74
REMARK   36  A    between atoms: C_74  and  C_75
REMARK   37  A    between atoms: C_77  and  C_83
REMARK   38  A    between atoms: C_79  and  O_81
REMARK   39  A    between atoms: O_81  and  C_82
REMARK   40  A    between atoms: O_90  and  C_91
REMARK                            x       y       z     vdW  Elec       q    Type
REMARK                         _______ _______ _______ _____ _____    ______ ____
ROOT
ATOM      1  C   UNL     1     -11.574   8.599  26.887  0.00  0.00    +0.113 C 
ATOM      2  O   UNL     1     -11.734   8.957  25.489  0.00  0.00    -0.458 OA
ATOM      3  C   UNL     1     -10.782   9.801  25.008  0.00  0.00    +0.332 C 
ATOM      4  O   UNL     1      -9.785  10.176  25.610  0.00  0.00    -0.246 OA
ATOM      5  C   UNL     1     -11.049  10.293  23.654  0.00  0.00    +0.023 C 
ATOM      6  C   UNL     1     -11.799   9.697  22.715  0.00  0.00    -0.052 C 
ATOM      7  C   UNL     1     -11.883  10.228  21.357  0.00  0.00    -0.054 C 
ATOM      8  C   UNL     1     -10.764  10.632  20.721  0.00  0.00    -0.079 C 
ATOM      9  C   UNL     1     -10.636  11.277  19.373  0.00  0.00    -0.008 C 
ATOM     10  C   UNL     1     -10.978  12.781  19.282  0.00  0.00    +0.061 C 
ATOM     11  C   UNL     1     -10.930  13.608  20.573  0.00  0.00    +0.003 C 
ATOM     12  C   UNL     1      -9.577  14.112  21.101  0.00  0.00    +0.080 C 
ATOM     13  O   UNL     1      -9.924  14.813  22.314  0.00  0.00    -0.369 OA
ATOM     14  C   UNL     1      -8.839  15.088  23.217  0.00  0.00    +0.065 C 
ATOM     15  C   UNL     1      -7.893  16.131  22.598  0.00  0.00    +0.000 C 
ATOM     16  C   UNL     1      -6.850  16.736  23.558  0.00  0.00    +0.066 C 
ATOM     17  C   UNL     1      -6.095  17.905  22.859  0.00  0.00    +0.009 C 
ATOM     18  C   UNL     1      -4.947  17.469  21.902  0.00  0.00    +0.063 C 
ATOM     19  C   UNL     1      -4.843  18.344  20.630  0.00  0.00    -0.000 C 
ATOM     20  C   UNL     1      -6.091  18.225  19.726  0.00  0.00    +0.064 C 
ATOM     21  C   UNL     1      -5.748  18.075  18.219  0.00  0.00    +0.020 C 
ATOM     22  C   UNL     1      -6.816  17.267  17.398  0.00  0.00    +0.113 C 
ATOM     23  O   UNL     1      -8.046  17.107  18.130  0.00  0.00    -0.458 OA
ATOM     24  C   UNL     1      -8.957  18.105  18.025  0.00  0.00    +0.332 C 
ATOM     25  O   UNL     1      -8.953  19.017  17.215  0.00  0.00    -0.246 OA
ATOM     26  C   UNL     1      -9.959  17.907  19.093  0.00  0.00    +0.023 C 
ATOM     27  C   UNL     1     -10.952  18.794  19.255  0.00  0.00    -0.052 C 
ATOM     28  C   UNL     1     -11.967  18.725  20.298  0.00  0.00    -0.054 C 
ATOM     29  C   UNL     1     -11.647  18.423  21.573  0.00  0.00    -0.079 C 
ATOM     30  C   UNL     1     -12.578  18.378  22.756  0.00  0.00    -0.008 C 
ATOM     31  C   UNL     1     -13.164  16.971  22.983  0.00  0.00    +0.061 C 
ATOM     32  C   UNL     1     -12.528  16.267  24.191  0.00  0.00    +0.003 C 
ATOM     33  C   UNL     1     -12.869  14.768  24.266  0.00  0.00    +0.080 C 
ATOM     34  O   UNL     1     -11.908  14.078  25.093  0.00  0.00    -0.369 OA
ATOM     35  C   UNL     1     -12.197  14.103  26.505  0.00  0.00    +0.065 C 
ATOM     36  C   UNL     1     -11.016  13.399  27.206  0.00  0.00    +0.000 C 
ATOM     37  C   UNL     1     -11.154  13.255  28.736  0.00  0.00    +0.066 C 
ATOM     38  C   UNL     1      -9.953  12.489  29.370  0.00  0.00    +0.009 C 
ATOM     39  C   UNL     1      -9.765  11.017  28.908  0.00  0.00    +0.063 C 
ATOM     40  C   UNL     1     -10.546   9.875  29.593  0.00  0.00    -0.000 C 
ATOM     41  C   UNL     1     -12.025   9.661  29.238  0.00  0.00    +0.064 C 
ATOM     42  C   UNL     1     -12.375   9.637  27.733  0.00  0.00    +0.020 C 
ATOM     43  C   UNL     1     -13.528  13.378  26.754  0.00  0.00    -0.008 C 
ATOM     44  C   UNL     1     -14.604  13.858  25.836  0.00  0.00    -0.083 C 
ATOM     45  C   UNL     1     -14.289  14.489  24.700  0.00  0.00    -0.059 C 
ATOM     46  C   UNL     1      -8.187  13.770  23.658  0.00  0.00    -0.008 C 
ATOM     47  C   UNL     1      -7.889  12.882  22.494  0.00  0.00    -0.083 C 
ATOM     48  C   UNL     1      -8.526  13.058  21.327  0.00  0.00    -0.059 C 
ATOM     49  H   UNL     1     -10.519   8.729  27.152  0.00  0.00    +0.074 HD
ATOM     50  H   UNL     1     -10.498  11.203  23.432  0.00  0.00    +0.069 HD
ATOM     51  H   UNL     1     -12.362   8.793  22.932  0.00  0.00    +0.062 HD
ATOM     52  H   UNL     1      -9.807  10.506  21.228  0.00  0.00    +0.058 HD
ATOM     53  H   UNL     1     -11.246  10.731  18.642  0.00  0.00    +0.033 HD
ATOM     54  H   UNL     1      -9.607  11.116  19.025  0.00  0.00    +0.033 HD
ATOM     55  H   UNL     1     -12.010  12.844  18.912  0.00  0.00    +0.060 HD
ATOM     56  H   UNL     1     -11.479  13.103  21.378  0.00  0.00    +0.032 HD
ATOM     57  H   UNL     1     -11.527  14.516  20.390  0.00  0.00    +0.032 HD
ATOM     58  H   UNL     1      -9.180  14.849  20.395  0.00  0.00    +0.064 HD
ATOM     59  H   UNL     1      -9.306  15.535  24.102  0.00  0.00    +0.060 HD
ATOM     60  H   UNL     1      -8.528  16.939  22.209  0.00  0.00    +0.032 HD
ATOM     61  H   UNL     1      -7.399  15.707  21.724  0.00  0.00    +0.032 HD
ATOM     62  H   UNL     1      -6.135  15.971  23.884  0.00  0.00    +0.060 HD
ATOM     63  H   UNL     1      -6.847  18.466  22.292  0.00  0.00    +0.035 HD
ATOM     64  H   UNL     1      -3.996  17.554  22.444  0.00  0.00    +0.060 HD
ATOM     65  H   UNL     1      -3.959  17.997  20.081  0.00  0.00    +0.032 HD
ATOM     66  H   UNL     1      -4.667  19.388  20.915  0.00  0.00    +0.032 HD
ATOM     67  H   UNL     1      -6.660  17.355  20.049  0.00  0.00    +0.060 HD
ATOM     68  H   UNL     1      -4.801  17.531  18.144  0.00  0.00    +0.036 HD
ATOM     69  H   UNL     1      -7.052  17.813  16.474  0.00  0.00    +0.074 HD
ATOM     70  H   UNL     1      -9.824  17.055  19.745  0.00  0.00    +0.069 HD
ATOM     71  H   UNL     1     -11.034  19.638  18.568  0.00  0.00    +0.062 HD
ATOM     72  H   UNL     1     -10.609  18.202  21.824  0.00  0.00    +0.058 HD
ATOM     73  H   UNL     1     -12.018  18.713  23.640  0.00  0.00    +0.033 HD
ATOM     74  H   UNL     1     -13.374  19.122  22.636  0.00  0.00    +0.033 HD
ATOM     75  H   UNL     1     -13.032  16.351  22.088  0.00  0.00    +0.060 HD
ATOM     76  H   UNL     1     -11.440  16.375  24.144  0.00  0.00    +0.032 HD
ATOM     77  H   UNL     1     -12.844  16.761  25.120  0.00  0.00    +0.032 HD
ATOM     78  H   UNL     1     -12.738  14.332  23.269  0.00  0.00    +0.064 HD
ATOM     79  H   UNL     1     -12.251  15.148  26.838  0.00  0.00    +0.060 HD
ATOM     80  H   UNL     1     -10.876  12.426  26.729  0.00  0.00    +0.032 HD
ATOM     81  H   UNL     1     -10.106  13.970  26.974  0.00  0.00    +0.032 HD
ATOM     82  H   UNL     1     -12.087  12.744  28.976  0.00  0.00    +0.060 HD
ATOM     83  H   UNL     1      -9.053  13.037  29.051  0.00  0.00    +0.035 HD
ATOM     84  H   UNL     1      -9.895  10.946  27.834  0.00  0.00    +0.060 HD
ATOM     85  H   UNL     1     -10.455   9.984  30.681  0.00  0.00    +0.032 HD
ATOM     86  H   UNL     1     -10.019   8.936  29.375  0.00  0.00    +0.032 HD
ATOM     87  H   UNL     1     -12.335   8.710  29.689  0.00  0.00    +0.060 HD
ATOM     88  H   UNL     1     -12.095  10.619  27.337  0.00  0.00    +0.036 HD
ATOM     89  H   UNL     1     -13.856  13.513  27.788  0.00  0.00    +0.033 HD
ATOM     90  H   UNL     1     -13.411  12.307  26.572  0.00  0.00    +0.033 HD
ATOM     91  H   UNL     1     -15.641  13.666  26.095  0.00  0.00    +0.057 HD
ATOM     92  H   UNL     1     -15.087  14.830  24.046  0.00  0.00    +0.059 HD
ATOM     93  H   UNL     1      -8.876  13.228  24.318  0.00  0.00    +0.033 HD
ATOM     94  H   UNL     1      -7.276  13.960  24.230  0.00  0.00    +0.033 HD
ATOM     95  H   UNL     1      -7.135  12.109  22.606  0.00  0.00    +0.057 HD
ATOM     96  H   UNL     1      -8.237  12.456  20.473  0.00  0.00    +0.059 HD
ENDROOT
BRANCH  28  97
ATOM     97  C   UNL     1     -13.352  19.066  19.816  0.00  0.00    -0.040 C 
ATOM     98  H   UNL     1     -13.842  19.832  20.421  0.00  0.00    +0.028 HD
ATOM     99  H   UNL     1     -13.321  19.428  18.782  0.00  0.00    +0.028 HD
ATOM    100  H   UNL     1     -13.994  18.179  19.854  0.00  0.00    +0.028 HD
ENDBRANCH  28  97
BRANCH  21 101
ATOM    101  C   UNL     1      -5.477  19.426  17.540  0.00  0.00    -0.057 C 
ATOM    102  H   UNL     1      -5.143  19.303  16.505  0.00  0.00    +0.023 HD
ATOM    103  H   UNL     1      -4.696  19.976  18.076  0.00  0.00    +0.023 HD
ATOM    104  H   UNL     1      -6.376  20.052  17.539  0.00  0.00    +0.023 HD
ENDBRANCH  21 101
BRANCH  42 105
ATOM    105  C   UNL     1     -13.896   9.598  27.509  0.00  0.00    -0.057 C 
ATOM    106  H   UNL     1     -14.312  10.612  27.530  0.00  0.00    +0.023 HD
ATOM    107  H   UNL     1     -14.155   9.163  26.538  0.00  0.00    +0.023 HD
ATOM    108  H   UNL     1     -14.411   9.049  28.300  0.00  0.00    +0.023 HD
ENDBRANCH  42 105
BRANCH  17 109
ATOM    109  C   UNL     1      -5.533  18.933  23.857  0.00  0.00    -0.058 C 
ATOM    110  H   UNL     1      -5.626  19.953  23.471  0.00  0.00    +0.023 HD
ATOM    111  H   UNL     1      -4.478  18.743  24.076  0.00  0.00    +0.023 HD
ATOM    112  H   UNL     1      -6.068  18.884  24.812  0.00  0.00    +0.023 HD
ENDBRANCH  17 109
BRANCH  38 113
ATOM    113  C   UNL     1      -9.934  12.599  30.903  0.00  0.00    -0.058 C 
ATOM    114  H   UNL     1      -9.279  11.846  31.351  0.00  0.00    +0.023 HD
ATOM    115  H   UNL     1      -9.589  13.589  31.224  0.00  0.00    +0.023 HD
ATOM    116  H   UNL     1     -10.938  12.466  31.320  0.00  0.00    +0.023 HD
ENDBRANCH  38 113
BRANCH   7 117
ATOM    117  C   UNL     1     -13.265  10.297  20.776  0.00  0.00    -0.040 C 
ATOM    118  H   UNL     1     -13.385  11.219  20.203  0.00  0.00    +0.028 HD
ATOM    119  H   UNL     1     -14.043  10.284  21.543  0.00  0.00    +0.028 HD
ATOM    120  H   UNL     1     -13.453   9.448  20.110  0.00  0.00    +0.028 HD
ENDBRANCH   7 117
BRANCH   1 121
ATOM    121  C   UNL     1     -11.818   7.076  27.112  0.00  0.00    +0.020 C 
ATOM    122  H   UNL     1     -12.600   7.002  27.879  0.00  0.00    +0.036 HD
BRANCH 121 123
ATOM    123  C   UNL     1     -12.351   6.298  25.912  0.00  0.00    -0.057 C 
ATOM    124  H   UNL     1     -12.690   5.297  26.189  0.00  0.00    +0.023 HD
ATOM    125  H   UNL     1     -13.179   6.833  25.436  0.00  0.00    +0.023 HD
ATOM    126  H   UNL     1     -11.596   6.209  25.129  0.00  0.00    +0.023 HD
ENDBRANCH 121 123
BRANCH 121 127
ATOM    127  C   UNL     1     -10.541   6.399  27.712  0.00  0.00    +0.064 C 
ATOM    128  H   UNL     1      -9.946   7.201  28.168  0.00  0.00    +0.060 HD
BRANCH 127 129
ATOM    129  C   UNL     1      -9.637   5.578  26.733  0.00  0.00    -0.017 C 
ATOM    130  H   UNL     1     -10.132   5.522  25.761  0.00  0.00    +0.032 HD
BRANCH 129 131
ATOM    131  C   UNL     1      -8.324   6.347  26.510  0.00  0.00    -0.060 C 
ATOM    132  H   UNL     1      -7.929   6.176  25.502  0.00  0.00    +0.023 HD
ATOM    133  H   UNL     1      -7.558   6.031  27.228  0.00  0.00    +0.023 HD
ATOM    134  H   UNL     1      -8.463   7.424  26.646  0.00  0.00    +0.023 HD
ENDBRANCH 129 131
BRANCH 129 135
ATOM    135  C   UNL     1      -9.324   4.144  27.221  0.00  0.00    -0.046 C 
ATOM    136  H   UNL     1      -9.284   4.114  28.313  0.00  0.00    +0.027 HD
ATOM    137  H   UNL     1      -8.320   3.855  26.881  0.00  0.00    +0.027 HD
BRANCH 135 138
ATOM    138  C   UNL     1     -10.294   3.043  26.757  0.00  0.00    -0.026 C 
ATOM    139  H   UNL     1      -9.733   2.410  26.055  0.00  0.00    +0.029 HD
ATOM    140  H   UNL     1     -11.116   3.484  26.180  0.00  0.00    +0.029 HD
BRANCH 138 143
ATOM    141  C   UNL     1     -10.628   1.829  30.269  0.00  0.00    +0.059 C 
ATOM    142  O   UNL     1     -10.465   2.692  29.136  0.00  0.00    -0.373 OA
ATOM    143  C   UNL     1     -10.858   2.150  27.874  0.00  0.00    +0.061 C 
ATOM    144  C   UNL     1     -10.352   0.714  27.711  0.00  0.00    -0.000 C 
ATOM    145  C   UNL     1     -10.886  -0.197  28.823  0.00  0.00    +0.063 C 
ATOM    146  C   UNL     1     -11.488   0.606  29.975  0.00  0.00    -0.000 C 
ATOM    147  H   UNL     1      -9.624   1.506  30.566  0.00  0.00    +0.059 HD
ATOM    148  H   UNL     1     -11.952   2.163  27.814  0.00  0.00    +0.060 HD
ATOM    149  H   UNL     1     -10.613   0.336  26.717  0.00  0.00    +0.032 HD
ATOM    150  H   UNL     1      -9.257   0.722  27.785  0.00  0.00    +0.032 HD
ATOM    151  H   UNL     1     -10.063  -0.809  29.218  0.00  0.00    +0.060 HD
ATOM    152  H   UNL     1     -11.582  -0.033  30.861  0.00  0.00    +0.032 HD
ATOM    153  H   UNL     1     -12.508   0.915  29.720  0.00  0.00    +0.032 HD
BRANCH 141 154
ATOM    154  C   UNL     1     -11.219   2.657  31.402  0.00  0.00    -0.039 C 
ATOM    155  H   UNL     1     -10.915   3.705  31.328  0.00  0.00    +0.025 HD
ATOM    156  H   UNL     1     -12.312   2.608  31.386  0.00  0.00    +0.025 HD
ATOM    157  H   UNL     1     -10.899   2.270  32.375  0.00  0.00    +0.025 HD
ENDBRANCH 141 154
BRANCH 145 158
ATOM    158  O   UNL     1     -11.912  -1.066  28.328  0.00  0.00    -0.380 OA
BRANCH 158 159
ATOM    159  C   UNL     1     -13.217  -0.695  28.754  0.00  0.00    +0.037 C 
ATOM    160  H   UNL     1     -13.878  -1.556  28.611  0.00  0.00    +0.052 HD
ATOM    161  H   UNL     1     -13.228  -0.421  29.812  0.00  0.00    +0.052 HD
ATOM    162  H   UNL     1     -13.591   0.135  28.147  0.00  0.00    +0.052 HD
ENDBRANCH 158 159
ENDBRANCH 145 158
ENDBRANCH 138 143
ENDBRANCH 135 138
ENDBRANCH 129 135
ENDBRANCH 127 129
BRANCH 127 163
ATOM    163  O   UNL     1     -10.963   5.575  28.807  0.00  0.00    -0.391 OA
ATOM    164  H   UNL     1     -11.934   5.638  28.856  0.00  0.00    +0.210 HD
ENDBRANCH 127 163
ENDBRANCH 121 127
ENDBRANCH   1 121
BRANCH  41 165
ATOM    165  O   UNL     1     -12.784  10.681  29.894  0.00  0.00    -0.391 OA
ATOM    166  H   UNL     1     -13.597  10.815  29.378  0.00  0.00    +0.210 HD
ENDBRANCH  41 165
BRANCH  39 167
ATOM    167  O   UNL     1      -8.373  10.688  29.131  0.00  0.00    -0.391 OA
ATOM    168  H   UNL     1      -8.362   9.901  29.703  0.00  0.00    +0.210 HD
ENDBRANCH  39 167
BRANCH  31 169
ATOM    169  O   UNL     1     -14.574  17.099  23.191  0.00  0.00    -0.391 OA
ATOM    170  H   UNL     1     -14.702  17.462  24.087  0.00  0.00    +0.210 HD
ENDBRANCH  31 169
BRANCH  22 171
ATOM    171  C   UNL     1      -6.298  15.851  16.935  0.00  0.00    +0.020 C 
ATOM    172  H   UNL     1      -7.077  15.442  16.278  0.00  0.00    +0.036 HD
BRANCH 171 173
ATOM    173  C   UNL     1      -5.021  16.081  16.100  0.00  0.00    -0.057 C 
ATOM    174  H   UNL     1      -4.127  15.726  16.621  0.00  0.00    +0.023 HD
ATOM    175  H   UNL     1      -5.069  15.566  15.136  0.00  0.00    +0.023 HD
ATOM    176  H   UNL     1      -4.833  17.138  15.910  0.00  0.00    +0.023 HD
ENDBRANCH 171 173
BRANCH 171 177
ATOM    177  C   UNL     1      -6.080  14.820  18.093  0.00  0.00    +0.064 C 
ATOM    178  H   UNL     1      -5.920  15.375  19.026  0.00  0.00    +0.060 HD
BRANCH 177 179
ATOM    179  O   UNL     1      -7.278  14.061  18.246  0.00  0.00    -0.391 OA
ATOM    180  H   UNL     1      -7.861  14.514  18.889  0.00  0.00    +0.210 HD
ENDBRANCH 177 179
BRANCH 177 181
ATOM    181  C   UNL     1      -4.929  13.774  17.943  0.00  0.00    -0.017 C 
ATOM    182  H   UNL     1      -4.300  14.082  17.096  0.00  0.00    +0.032 HD
BRANCH 181 183
ATOM    183  C   UNL     1      -4.022  13.652  19.166  0.00  0.00    -0.060 C 
ATOM    184  H   UNL     1      -3.040  13.268  18.877  0.00  0.00    +0.023 HD
ATOM    185  H   UNL     1      -4.395  12.924  19.891  0.00  0.00    +0.023 HD
ATOM    186  H   UNL     1      -3.908  14.612  19.678  0.00  0.00    +0.023 HD
ENDBRANCH 181 183
BRANCH 181 187
ATOM    187  C   UNL     1      -5.544  12.395  17.553  0.00  0.00    -0.046 C 
ATOM    188  H   UNL     1      -5.105  12.066  16.602  0.00  0.00    +0.027 HD
ATOM    189  H   UNL     1      -6.620  12.517  17.374  0.00  0.00    +0.027 HD
BRANCH 187 190
ATOM    190  C   UNL     1      -5.336  11.279  18.587  0.00  0.00    -0.026 C 
ATOM    191  H   UNL     1      -4.327  10.863  18.487  0.00  0.00    +0.029 HD
ATOM    192  H   UNL     1      -5.423  11.718  19.589  0.00  0.00    +0.029 HD
BRANCH 190 193
ATOM    193  C   UNL     1      -6.367  10.147  18.466  0.00  0.00    +0.061 C 
ATOM    194  O   UNL     1      -5.904   9.026  19.226  0.00  0.00    -0.373 OA
ATOM    195  C   UNL     1      -6.788   7.901  19.214  0.00  0.00    +0.059 C 
ATOM    196  C   UNL     1      -7.064   7.428  17.783  0.00  0.00    -0.000 C 
ATOM    197  C   UNL     1      -7.484   8.560  16.845  0.00  0.00    +0.063 C 
ATOM    198  C   UNL     1      -6.536   9.749  16.997  0.00  0.00    -0.000 C 
ATOM    199  H   UNL     1      -7.317  10.506  18.879  0.00  0.00    +0.060 HD
ATOM    200  H   UNL     1      -6.242   7.094  19.721  0.00  0.00    +0.059 HD
ATOM    201  H   UNL     1      -7.798   6.618  17.795  0.00  0.00    +0.032 HD
ATOM    202  H   UNL     1      -6.129   7.009  17.387  0.00  0.00    +0.032 HD
ATOM    203  H   UNL     1      -7.437   8.216  15.804  0.00  0.00    +0.060 HD
ATOM    204  H   UNL     1      -6.908  10.605  16.421  0.00  0.00    +0.032 HD
ATOM    205  H   UNL     1      -5.560   9.463  16.583  0.00  0.00    +0.032 HD
BRANCH 195 206
ATOM    206  C   UNL     1      -8.043   8.153  20.046  0.00  0.00    -0.039 C 
ATOM    207  H   UNL     1      -7.883   9.000  20.723  0.00  0.00    +0.025 HD
ATOM    208  H   UNL     1      -8.296   7.273  20.646  0.00  0.00    +0.025 HD
ATOM    209  H   UNL     1      -8.915   8.407  19.438  0.00  0.00    +0.025 HD
ENDBRANCH 195 206
BRANCH 197 210
ATOM    210  O   UNL     1      -8.812   9.016  17.120  0.00  0.00    -0.380 OA
BRANCH 210 211
ATOM    211  C   UNL     1      -9.316   9.917  16.143  0.00  0.00    +0.037 C 
ATOM    212  H   UNL     1      -8.693  10.814  16.152  0.00  0.00    +0.052 HD
ATOM    213  H   UNL     1      -9.263   9.468  15.147  0.00  0.00    +0.052 HD
ATOM    214  H   UNL     1     -10.345  10.211  16.367  0.00  0.00    +0.052 HD
ENDBRANCH 210 211
ENDBRANCH 197 210
ENDBRANCH 190 193
ENDBRANCH 187 190
ENDBRANCH 181 187
ENDBRANCH 177 181
ENDBRANCH 171 177
ENDBRANCH  22 171
BRANCH  20 215
ATOM    215  O   UNL     1      -6.946  19.346  19.960  0.00  0.00    -0.391 OA
ATOM    216  H   UNL     1      -6.433  20.059  20.375  0.00  0.00    +0.210 HD
ENDBRANCH  20 215
BRANCH  18 217
ATOM    217  O   UNL     1      -5.032  16.100  21.495  0.00  0.00    -0.391 OA
ATOM    218  H   UNL     1      -5.221  16.100  20.538  0.00  0.00    +0.210 HD
ENDBRANCH  18 217
BRANCH  10 219
ATOM    219  O   UNL     1     -10.157  13.370  18.271  0.00  0.00    -0.391 OA
ATOM    220  H   UNL     1     -10.588  14.185  17.964  0.00  0.00    +0.210 HD
ENDBRANCH  10 219
BRANCH  37 221
ATOM    221  O   UNL     1     -11.169  14.597  29.258  0.00  0.00    -0.379 OA
BRANCH 221 222
ATOM    222  C   UNL     1     -12.361  14.918  29.962  0.00  0.00    +0.037 C 
ATOM    223  H   UNL     1     -12.128  14.950  31.030  0.00  0.00    +0.052 HD
ATOM    224  H   UNL     1     -12.723  15.904  29.660  0.00  0.00    +0.052 HD
ATOM    225  H   UNL     1     -13.140  14.166  29.798  0.00  0.00    +0.052 HD
ENDBRANCH 221 222
ENDBRANCH  37 221
BRANCH  16 226
ATOM    226  O   UNL     1      -7.576  17.261  24.683  0.00  0.00    -0.379 OA
BRANCH 226 227
ATOM    227  C   UNL     1      -7.214  16.656  25.920  0.00  0.00    +0.037 C 
ATOM    228  H   UNL     1      -8.121  16.266  26.390  0.00  0.00    +0.052 HD
ATOM    229  H   UNL     1      -6.523  15.825  25.754  0.00  0.00    +0.052 HD
ATOM    230  H   UNL     1      -6.761  17.391  26.593  0.00  0.00    +0.052 HD
ENDBRANCH 226 227
ENDBRANCH  16 226
TORSDOF 40
ENDMDL
MODEL 4
REMARK VINA RESULT:      -5.1      5.299     12.585
REMARK  Name = Swinholide A_conf3
REMARK  40 active torsions:
REMARK  status: ('A' for Active; 'I' for Inactive)
REMARK    1  A    between atoms: C_1  and  C_2
REMARK    2  A    between atoms: C_4  and  C_10
REMARK    3  A    between atoms: C_6  and  O_8
REMARK    4  A    between atoms: O_8  and  C_9
REMARK    5  A    between atoms: C_10  and  C_11
REMARK    6  A    between atoms: C_11  and  C_12
REMARK    7  A    between atoms: C_12  and  C_13
REMARK    8  A    between atoms: C_12  and  C_98
REMARK    9  A    between atoms: C_13  and  O_14
REMARK   10  A    between atoms: C_13  and  C_15
REMARK   11  A    between atoms: C_15  and  C_16
REMARK   12  A    between atoms: C_15  and  C_97
REMARK   13  A    between atoms: C_22  and  C_96
REMARK   14  A    between atoms: C_25  and  O_95
REMARK   15  A    between atoms: C_31  and  O_90
REMARK   16  A    between atoms: C_32  and  C_89
REMARK   17  A    between atoms: C_33  and  O_88
REMARK   18  A    between atoms: C_35  and  O_87
REMARK   19  A    between atoms: C_36  and  C_86
REMARK   20  A    between atoms: C_37  and  C_69
REMARK   21  A    between atoms: C_43  and  C_68
REMARK   22  A    between atoms: C_46  and  O_67
REMARK   23  A    between atoms: C_52  and  O_62
REMARK   24  A    between atoms: C_53  and  C_61
REMARK   25  A    between atoms: C_54  and  O_60
REMARK   26  A    between atoms: C_56  and  O_59
REMARK   27  A    between atoms: C_57  and  C_58
REMARK   28  A    between atoms: O_62  and  C_63
REMARK   29  A    between atoms: C_69  and  C_70
REMARK   30  A    between atoms: C_69  and  C_85
REMARK   31  A    between atoms: C_70  and  O_71
REMARK   32  A    between atoms: C_70  and  C_72
REMARK   33  A    between atoms: C_72  and  C_73
REMARK   34  A    between atoms: C_72  and  C_84
REMARK   35  A    between atoms: C_73  and  C_74
REMARK   36  A    between atoms: C_74  and  C_75
REMARK   37  A    between atoms: C_77  and  C_83
REMARK   38  A    between atoms: C_79  and  O_81
REMARK   39  A    between atoms: O_81  and  C_82
REMARK   40  A    between atoms: O_90  and  C_91
REMARK                            x       y       z     vdW  Elec       q    Type
REMARK                         _______ _______ _______ _____ _____    ______ ____
ROOT
ATOM      1  C   UNL     1      -6.232  14.103  19.485  0.00  0.00    +0.113 C 
ATOM      2  O   UNL     1      -6.294  12.663  19.313  0.00  0.00    -0.458 OA
ATOM      3  C   UNL     1      -7.043  12.251  18.256  0.00  0.00    +0.332 C 
ATOM      4  O   UNL     1      -7.555  12.974  17.413  0.00  0.00    -0.246 OA
ATOM      5  C   UNL     1      -7.242  10.800  18.195  0.00  0.00    +0.023 C 
ATOM      6  C   UNL     1      -6.451   9.856  18.726  0.00  0.00    -0.052 C 
ATOM      7  C   UNL     1      -6.691   8.436  18.485  0.00  0.00    -0.054 C 
ATOM      8  C   UNL     1      -6.983   8.003  17.242  0.00  0.00    -0.079 C 
ATOM      9  C   UNL     1      -7.342   6.618  16.794  0.00  0.00    -0.008 C 
ATOM     10  C   UNL     1      -8.787   6.147  17.068  0.00  0.00    +0.061 C 
ATOM     11  C   UNL     1      -9.861   7.219  17.294  0.00  0.00    +0.003 C 
ATOM     12  C   UNL     1     -10.493   7.927  16.084  0.00  0.00    +0.080 C 
ATOM     13  O   UNL     1     -11.418   8.860  16.681  0.00  0.00    -0.369 OA
ATOM     14  C   UNL     1     -11.896   9.912  15.824  0.00  0.00    +0.065 C 
ATOM     15  C   UNL     1     -12.812   9.325  14.735  0.00  0.00    +0.000 C 
ATOM     16  C   UNL     1     -13.623  10.354  13.923  0.00  0.00    +0.066 C 
ATOM     17  C   UNL     1     -14.641   9.622  13.000  0.00  0.00    +0.009 C 
ATOM     18  C   UNL     1     -14.044   9.062  11.675  0.00  0.00    +0.063 C 
ATOM     19  C   UNL     1     -14.644   7.696  11.262  0.00  0.00    -0.000 C 
ATOM     20  C   UNL     1     -14.316   6.575  12.275  0.00  0.00    +0.064 C 
ATOM     21  C   UNL     1     -13.869   5.249  11.601  0.00  0.00    +0.020 C 
ATOM     22  C   UNL     1     -12.887   4.388  12.475  0.00  0.00    +0.113 C 
ATOM     23  O   UNL     1     -12.852   4.837  13.842  0.00  0.00    -0.458 OA
ATOM     24  C   UNL     1     -13.787   4.327  14.680  0.00  0.00    +0.332 C 
ATOM     25  O   UNL     1     -14.514   3.371  14.469  0.00  0.00    -0.246 OA
ATOM     26  C   UNL     1     -13.788   5.155  15.904  0.00  0.00    +0.023 C 
ATOM     27  C   UNL     1     -14.667   4.903  16.885  0.00  0.00    -0.052 C 
ATOM     28  C   UNL     1     -14.790   5.678  18.112  0.00  0.00    -0.054 C 
ATOM     29  C   UNL     1     -14.761   7.027  18.098  0.00  0.00    -0.079 C 
ATOM     30  C   UNL     1     -14.938   7.950  19.275  0.00  0.00    -0.008 C 
ATOM     31  C   UNL     1     -13.594   8.319  19.932  0.00  0.00    +0.061 C 
ATOM     32  C   UNL     1     -13.165   9.758  19.606  0.00  0.00    +0.003 C 
ATOM     33  C   UNL     1     -11.706  10.057  19.993  0.00  0.00    +0.080 C 
ATOM     34  O   UNL     1     -11.221  11.204  19.264  0.00  0.00    -0.369 OA
ATOM     35  C   UNL     1     -11.528  12.477  19.865  0.00  0.00    +0.065 C 
ATOM     36  C   UNL     1     -11.007  13.557  18.893  0.00  0.00    +0.000 C 
ATOM     37  C   UNL     1     -11.176  15.012  19.380  0.00  0.00    +0.066 C 
ATOM     38  C   UNL     1     -10.582  16.045  18.375  0.00  0.00    +0.009 C 
ATOM     39  C   UNL     1      -9.052  15.948  18.123  0.00  0.00    +0.063 C 
ATOM     40  C   UNL     1      -8.056  16.654  19.069  0.00  0.00    -0.000 C 
ATOM     41  C   UNL     1      -7.741  16.023  20.433  0.00  0.00    +0.064 C 
ATOM     42  C   UNL     1      -7.403  14.515  20.431  0.00  0.00    +0.020 C 
ATOM     43  C   UNL     1     -10.838  12.558  21.236  0.00  0.00    -0.008 C 
ATOM     44  C   UNL     1     -11.097  11.342  22.062  0.00  0.00    -0.083 C 
ATOM     45  C   UNL     1     -11.490  10.203  21.481  0.00  0.00    -0.059 C 
ATOM     46  C   UNL     1     -10.710  10.748  15.322  0.00  0.00    -0.008 C 
ATOM     47  C   UNL     1      -9.610   9.889  14.789  0.00  0.00    -0.083 C 
ATOM     48  C   UNL     1      -9.531   8.597  15.139  0.00  0.00    -0.059 C 
ATOM     49  H   UNL     1      -6.436  14.570  18.515  0.00  0.00    +0.074 HD
ATOM     50  H   UNL     1      -8.100  10.529  17.585  0.00  0.00    +0.069 HD
ATOM     51  H   UNL     1      -5.598  10.119  19.347  0.00  0.00    +0.062 HD
ATOM     52  H   UNL     1      -6.984   8.730  16.428  0.00  0.00    +0.058 HD
ATOM     53  H   UNL     1      -6.644   5.894  17.235  0.00  0.00    +0.033 HD
ATOM     54  H   UNL     1      -7.136   6.554  15.717  0.00  0.00    +0.033 HD
ATOM     55  H   UNL     1      -8.750   5.547  17.987  0.00  0.00    +0.060 HD
ATOM     56  H   UNL     1      -9.519   7.963  18.025  0.00  0.00    +0.032 HD
ATOM     57  H   UNL     1     -10.699   6.724  17.811  0.00  0.00    +0.032 HD
ATOM     58  H   UNL     1     -11.078   7.195  15.519  0.00  0.00    +0.064 HD
ATOM     59  H   UNL     1     -12.503  10.557  16.468  0.00  0.00    +0.060 HD
ATOM     60  H   UNL     1     -13.508   8.646  15.244  0.00  0.00    +0.032 HD
ATOM     61  H   UNL     1     -12.229   8.692  14.066  0.00  0.00    +0.032 HD
ATOM     62  H   UNL     1     -12.956  10.983  13.320  0.00  0.00    +0.060 HD
ATOM     63  H   UNL     1     -15.058   8.797  13.588  0.00  0.00    +0.035 HD
ATOM     64  H   UNL     1     -14.259   9.777  10.871  0.00  0.00    +0.060 HD
ATOM     65  H   UNL     1     -14.213   7.446  10.286  0.00  0.00    +0.032 HD
ATOM     66  H   UNL     1     -15.728   7.795  11.129  0.00  0.00    +0.032 HD
ATOM     67  H   UNL     1     -13.517   6.930  12.924  0.00  0.00    +0.060 HD
ATOM     68  H   UNL     1     -13.342   5.505  10.676  0.00  0.00    +0.036 HD
ATOM     69  H   UNL     1     -13.227   3.343  12.480  0.00  0.00    +0.074 HD
ATOM     70  H   UNL     1     -13.091   5.980  15.942  0.00  0.00    +0.069 HD
ATOM     71  H   UNL     1     -15.351   4.059  16.787  0.00  0.00    +0.062 HD
ATOM     72  H   UNL     1     -14.620   7.548  17.151  0.00  0.00    +0.058 HD
ATOM     73  H   UNL     1     -15.458   8.851  18.923  0.00  0.00    +0.033 HD
ATOM     74  H   UNL     1     -15.624   7.502  20.004  0.00  0.00    +0.033 HD
ATOM     75  H   UNL     1     -12.808   7.623  19.616  0.00  0.00    +0.060 HD
ATOM     76  H   UNL     1     -13.286   9.939  18.533  0.00  0.00    +0.032 HD
ATOM     77  H   UNL     1     -13.832  10.469  20.113  0.00  0.00    +0.032 HD
ATOM     78  H   UNL     1     -11.079   9.225  19.650  0.00  0.00    +0.064 HD
ATOM     79  H   UNL     1     -12.616  12.569  19.967  0.00  0.00    +0.060 HD
ATOM     80  H   UNL     1      -9.961  13.333  18.672  0.00  0.00    +0.032 HD
ATOM     81  H   UNL     1     -11.539  13.428  17.940  0.00  0.00    +0.032 HD
ATOM     82  H   UNL     1     -10.704  15.131  20.355  0.00  0.00    +0.060 HD
ATOM     83  H   UNL     1     -11.073  15.835  17.412  0.00  0.00    +0.035 HD
ATOM     84  H   UNL     1      -8.760  14.910  18.007  0.00  0.00    +0.060 HD
ATOM     85  H   UNL     1      -8.387  17.689  19.225  0.00  0.00    +0.032 HD
ATOM     86  H   UNL     1      -7.104  16.758  18.529  0.00  0.00    +0.032 HD
ATOM     87  H   UNL     1      -6.895  16.575  20.861  0.00  0.00    +0.060 HD
ATOM     88  H   UNL     1      -8.290  14.002  20.043  0.00  0.00    +0.036 HD
ATOM     89  H   UNL     1     -11.175  13.441  21.787  0.00  0.00    +0.033 HD
ATOM     90  H   UNL     1      -9.756  12.630  21.108  0.00  0.00    +0.033 HD
ATOM     91  H   UNL     1     -10.939  11.391  23.135  0.00  0.00    +0.057 HD
ATOM     92  H   UNL     1     -11.673   9.329  22.100  0.00  0.00    +0.059 HD
ATOM     93  H   UNL     1     -10.298  11.330  16.157  0.00  0.00    +0.033 HD
ATOM     94  H   UNL     1     -11.033  11.462  14.561  0.00  0.00    +0.033 HD
ATOM     95  H   UNL     1      -8.893  10.325  14.101  0.00  0.00    +0.057 HD
ATOM     96  H   UNL     1      -8.774   7.972  14.679  0.00  0.00    +0.059 HD
ENDROOT
BRANCH  28  97
ATOM     97  C   UNL     1     -14.995   4.834  19.341  0.00  0.00    -0.040 C 
ATOM     98  H   UNL     1     -14.103   4.764  19.969  0.00  0.00    +0.028 HD
ATOM     99  H   UNL     1     -15.805   5.241  19.957  0.00  0.00    +0.028 HD
ATOM    100  H   UNL     1     -15.258   3.809  19.056  0.00  0.00    +0.028 HD
ENDBRANCH  28  97
BRANCH  21 101
ATOM    101  C   UNL     1     -15.058   4.389  11.149  0.00  0.00    -0.057 C 
ATOM    102  H   UNL     1     -15.322   3.632  11.893  0.00  0.00    +0.023 HD
ATOM    103  H   UNL     1     -14.821   3.866  10.216  0.00  0.00    +0.023 HD
ATOM    104  H   UNL     1     -15.941   5.009  10.961  0.00  0.00    +0.023 HD
ENDBRANCH  21 101
BRANCH  42 105
ATOM    105  C   UNL     1      -7.285  13.963  21.862  0.00  0.00    -0.057 C 
ATOM    106  H   UNL     1      -6.505  14.499  22.415  0.00  0.00    +0.023 HD
ATOM    107  H   UNL     1      -8.218  14.082  22.423  0.00  0.00    +0.023 HD
ATOM    108  H   UNL     1      -6.988  12.913  21.872  0.00  0.00    +0.023 HD
ENDBRANCH  42 105
BRANCH  17 109
ATOM    109  C   UNL     1     -15.863  10.491  12.654  0.00  0.00    -0.058 C 
ATOM    110  H   UNL     1     -15.562  11.495  12.343  0.00  0.00    +0.023 HD
ATOM    111  H   UNL     1     -16.543  10.584  13.508  0.00  0.00    +0.023 HD
ATOM    112  H   UNL     1     -16.443  10.045  11.838  0.00  0.00    +0.023 HD
ENDBRANCH  17 109
BRANCH  38 113
ATOM    113  C   UNL     1     -11.003  17.487  18.702  0.00  0.00    -0.058 C 
ATOM    114  H   UNL     1     -11.958  17.516  19.234  0.00  0.00    +0.023 HD
ATOM    115  H   UNL     1     -10.249  17.987  19.321  0.00  0.00    +0.023 HD
ATOM    116  H   UNL     1     -11.105  18.084  17.789  0.00  0.00    +0.023 HD
ENDBRANCH  38 113
BRANCH   7 117
ATOM    117  C   UNL     1      -6.610   7.554  19.696  0.00  0.00    -0.040 C 
ATOM    118  H   UNL     1      -7.595   7.459  20.159  0.00  0.00    +0.028 HD
ATOM    119  H   UNL     1      -5.929   7.945  20.456  0.00  0.00    +0.028 HD
ATOM    120  H   UNL     1      -6.255   6.553  19.429  0.00  0.00    +0.028 HD
ENDBRANCH   7 117
BRANCH   1 121
ATOM    121  C   UNL     1      -4.782  14.572  19.813  0.00  0.00    +0.020 C 
ATOM    122  H   UNL     1      -4.868  15.608  20.165  0.00  0.00    +0.036 HD
BRANCH 121 123
ATOM    123  C   UNL     1      -4.070  13.818  20.933  0.00  0.00    -0.057 C 
ATOM    124  H   UNL     1      -4.204  14.303  21.902  0.00  0.00    +0.023 HD
ATOM    125  H   UNL     1      -4.431  12.787  21.000  0.00  0.00    +0.023 HD
ATOM    126  H   UNL     1      -3.002  13.723  20.731  0.00  0.00    +0.023 HD
ENDBRANCH 121 123
BRANCH 121 127
ATOM    127  C   UNL     1      -3.914  14.617  18.511  0.00  0.00    +0.064 C 
ATOM    128  H   UNL     1      -3.321  13.694  18.497  0.00  0.00    +0.060 HD
BRANCH 127 129
ATOM    129  C   UNL     1      -2.961  15.845  18.327  0.00  0.00    -0.017 C 
ATOM    130  H   UNL     1      -2.807  16.014  17.258  0.00  0.00    +0.032 HD
BRANCH 129 131
ATOM    131  C   UNL     1      -3.663  17.102  18.868  0.00  0.00    -0.060 C 
ATOM    132  H   UNL     1      -3.218  18.015  18.458  0.00  0.00    +0.023 HD
ATOM    133  H   UNL     1      -3.587  17.152  19.961  0.00  0.00    +0.023 HD
ATOM    134  H   UNL     1      -4.730  17.101  18.623  0.00  0.00    +0.023 HD
ENDBRANCH 129 131
BRANCH 129 135
ATOM    135  C   UNL     1      -1.585  15.681  19.014  0.00  0.00    -0.046 C 
ATOM    136  H   UNL     1      -1.713  15.343  20.046  0.00  0.00    +0.027 HD
ATOM    137  H   UNL     1      -1.094  16.662  19.083  0.00  0.00    +0.027 HD
BRANCH 135 138
ATOM    138  C   UNL     1      -0.594  14.725  18.327  0.00  0.00    -0.026 C 
ATOM    139  H   UNL     1      -0.659  14.932  17.249  0.00  0.00    +0.029 HD
ATOM    140  H   UNL     1      -0.919  13.687  18.458  0.00  0.00    +0.029 HD
BRANCH 138 143
ATOM    141  C   UNL     1       2.578  13.620  19.950  0.00  0.00    +0.059 C 
ATOM    142  O   UNL     1       1.346  13.606  19.218  0.00  0.00    -0.373 OA
ATOM    143  C   UNL     1       0.873  14.874  18.762  0.00  0.00    +0.061 C 
ATOM    144  C   UNL     1       0.996  15.933  19.860  0.00  0.00    -0.000 C 
ATOM    145  C   UNL     1       2.449  16.091  20.327  0.00  0.00    +0.063 C 
ATOM    146  C   UNL     1       3.329  14.941  19.838  0.00  0.00    -0.000 C 
ATOM    147  H   UNL     1       2.322  13.434  21.000  0.00  0.00    +0.059 HD
ATOM    148  H   UNL     1       1.468  15.176  17.892  0.00  0.00    +0.060 HD
ATOM    149  H   UNL     1       0.576  16.883  19.513  0.00  0.00    +0.032 HD
ATOM    150  H   UNL     1       0.403  15.607  20.725  0.00  0.00    +0.032 HD
ATOM    151  H   UNL     1       2.478  16.110  21.425  0.00  0.00    +0.060 HD
ATOM    152  H   UNL     1       4.259  14.917  20.419  0.00  0.00    +0.032 HD
ATOM    153  H   UNL     1       3.629  15.117  18.800  0.00  0.00    +0.032 HD
BRANCH 141 154
ATOM    154  C   UNL     1       3.429  12.461  19.452  0.00  0.00    -0.039 C 
ATOM    155  H   UNL     1       4.293  12.818  18.883  0.00  0.00    +0.025 HD
ATOM    156  H   UNL     1       3.790  11.859  20.292  0.00  0.00    +0.025 HD
ATOM    157  H   UNL     1       2.843  11.793  18.812  0.00  0.00    +0.025 HD
ENDBRANCH 141 154
BRANCH 145 158
ATOM    158  O   UNL     1       3.019  17.306  19.827  0.00  0.00    -0.380 OA
BRANCH 158 159
ATOM    159  C   UNL     1       3.549  18.141  20.850  0.00  0.00    +0.037 C 
ATOM    160  H   UNL     1       4.374  17.606  21.331  0.00  0.00    +0.052 HD
ATOM    161  H   UNL     1       3.934  19.078  20.441  0.00  0.00    +0.052 HD
ATOM    162  H   UNL     1       2.783  18.347  21.603  0.00  0.00    +0.052 HD
ENDBRANCH 158 159
ENDBRANCH 145 158
ENDBRANCH 138 143
ENDBRANCH 135 138
ENDBRANCH 129 135
ENDBRANCH 127 129
BRANCH 127 163
ATOM    163  O   UNL     1      -4.805  14.508  17.393  0.00  0.00    -0.391 OA
ATOM    164  H   UNL     1      -5.336  13.703  17.526  0.00  0.00    +0.210 HD
ENDBRANCH 127 163
ENDBRANCH 121 127
ENDBRANCH   1 121
BRANCH  41 165
ATOM    165  O   UNL     1      -8.856  16.267  21.295  0.00  0.00    -0.391 OA
ATOM    166  H   UNL     1      -8.607  15.965  22.184  0.00  0.00    +0.210 HD
ENDBRANCH  41 165
BRANCH  39 167
ATOM    167  O   UNL     1      -8.806  16.545  16.827  0.00  0.00    -0.391 OA
ATOM    168  H   UNL     1      -9.247  15.976  16.172  0.00  0.00    +0.210 HD
ENDBRANCH  39 167
BRANCH  31 169
ATOM    169  O   UNL     1     -13.730   8.169  21.349  0.00  0.00    -0.391 OA
ATOM    170  H   UNL     1     -12.840   7.996  21.708  0.00  0.00    +0.210 HD
ENDBRANCH  31 169
BRANCH  22 171
ATOM    171  C   UNL     1     -11.418   4.354  11.901  0.00  0.00    +0.020 C 
ATOM    172  H   UNL     1     -10.903   3.542  12.430  0.00  0.00    +0.036 HD
BRANCH 171 173
ATOM    173  C   UNL     1     -11.519   3.981  10.407  0.00  0.00    -0.057 C 
ATOM    174  H   UNL     1     -11.920   2.972  10.268  0.00  0.00    +0.023 HD
ATOM    175  H   UNL     1     -12.167   4.673   9.859  0.00  0.00    +0.023 HD
ATOM    176  H   UNL     1     -10.547   3.966   9.915  0.00  0.00    +0.023 HD
ENDBRANCH 171 173
BRANCH 171 177
ATOM    177  C   UNL     1     -10.589   5.661  12.137  0.00  0.00    +0.064 C 
ATOM    178  H   UNL     1     -11.286   6.478  12.362  0.00  0.00    +0.060 HD
BRANCH 177 179
ATOM    179  O   UNL     1      -9.770   5.467  13.291  0.00  0.00    -0.391 OA
ATOM    180  H   UNL     1     -10.241   5.814  14.076  0.00  0.00    +0.210 HD
ENDBRANCH 177 179
BRANCH 177 181
ATOM    181  C   UNL     1      -9.623   6.138  11.005  0.00  0.00    -0.017 C 
ATOM    182  H   UNL     1      -9.977   5.713  10.057  0.00  0.00    +0.032 HD
BRANCH 181 183
ATOM    183  C   UNL     1      -9.556   7.654  10.830  0.00  0.00    -0.060 C 
ATOM    184  H   UNL     1      -8.532   7.969  10.612  0.00  0.00    +0.023 HD
ATOM    185  H   UNL     1      -9.815   8.192  11.746  0.00  0.00    +0.023 HD
ATOM    186  H   UNL     1     -10.226   7.996  10.036  0.00  0.00    +0.023 HD
ENDBRANCH 181 183
BRANCH 181 187
ATOM    187  C   UNL     1      -8.208   5.533  11.256  0.00  0.00    -0.046 C 
ATOM    188  H   UNL     1      -8.158   5.162  12.287  0.00  0.00    +0.027 HD
ATOM    189  H   UNL     1      -7.456   6.328  11.173  0.00  0.00    +0.027 HD
BRANCH 187 190
ATOM    190  C   UNL     1      -7.821   4.383  10.315  0.00  0.00    -0.026 C 
ATOM    191  H   UNL     1      -8.507   4.355   9.460  0.00  0.00    +0.029 HD
ATOM    192  H   UNL     1      -6.811   4.576   9.932  0.00  0.00    +0.029 HD
BRANCH 190 193
ATOM    193  C   UNL     1      -7.820   3.012  11.010  0.00  0.00    +0.061 C 
ATOM    194  O   UNL     1      -8.085   3.209  12.403  0.00  0.00    -0.373 OA
ATOM    195  C   UNL     1      -8.131   2.002  13.169  0.00  0.00    +0.059 C 
ATOM    196  C   UNL     1      -6.826   1.211  13.037  0.00  0.00    -0.000 C 
ATOM    197  C   UNL     1      -6.386   1.011  11.586  0.00  0.00    +0.063 C 
ATOM    198  C   UNL     1      -6.459   2.336  10.827  0.00  0.00    -0.000 C 
ATOM    199  H   UNL     1      -8.615   2.404  10.565  0.00  0.00    +0.060 HD
ATOM    200  H   UNL     1      -8.209   2.322  14.216  0.00  0.00    +0.059 HD
ATOM    201  H   UNL     1      -6.912   0.259  13.569  0.00  0.00    +0.032 HD
ATOM    202  H   UNL     1      -6.036   1.789  13.538  0.00  0.00    +0.032 HD
ATOM    203  H   UNL     1      -5.348   0.657  11.558  0.00  0.00    +0.060 HD
ATOM    204  H   UNL     1      -6.267   2.170   9.760  0.00  0.00    +0.032 HD
ATOM    205  H   UNL     1      -5.670   2.994  11.213  0.00  0.00    +0.032 HD
BRANCH 195 206
ATOM    206  C   UNL     1      -9.391   1.189  12.878  0.00  0.00    -0.039 C 
ATOM    207  H   UNL     1     -10.217   1.535  13.510  0.00  0.00    +0.025 HD
ATOM    208  H   UNL     1      -9.223   0.126  13.078  0.00  0.00    +0.025 HD
ATOM    209  H   UNL     1      -9.734   1.287  11.845  0.00  0.00    +0.025 HD
ENDBRANCH 195 206
BRANCH 197 210
ATOM    210  O   UNL     1      -7.214   0.065  10.903  0.00  0.00    -0.380 OA
BRANCH 210 211
ATOM    211  C   UNL     1      -6.639  -0.429   9.701  0.00  0.00    +0.037 C 
ATOM    212  H   UNL     1      -5.575  -0.178   9.703  0.00  0.00    +0.052 HD
ATOM    213  H   UNL     1      -6.738  -1.517   9.650  0.00  0.00    +0.052 HD
ATOM    214  H   UNL     1      -7.099   0.031   8.822  0.00  0.00    +0.052 HD
ENDBRANCH 210 211
ENDBRANCH 197 210
ENDBRANCH 190 193
ENDBRANCH 187 190
ENDBRANCH 181 187
ENDBRANCH 177 181
ENDBRANCH 171 177
ENDBRANCH  22 171
BRANCH  20 215
ATOM    215  O   UNL     1     -15.441   6.375  13.132  0.00  0.00    -0.391 OA
ATOM    216  H   UNL     1     -16.097   7.073  12.968  0.00  0.00    +0.210 HD
ENDBRANCH  20 215
BRANCH  18 217
ATOM    217  O   UNL     1     -12.620   8.934  11.700  0.00  0.00    -0.391 OA
ATOM    218  H   UNL     1     -12.299   9.489  12.435  0.00  0.00    +0.210 HD
ENDBRANCH  18 217
BRANCH  10 219
ATOM    219  O   UNL     1      -9.176   5.252  16.023  0.00  0.00    -0.391 OA
ATOM    220  H   UNL     1     -10.116   5.401  15.827  0.00  0.00    +0.210 HD
ENDBRANCH  10 219
BRANCH  37 221
ATOM    221  O   UNL     1     -12.595  15.232  19.479  0.00  0.00    -0.379 OA
BRANCH 221 222
ATOM    222  C   UNL     1     -13.026  15.564  20.792  0.00  0.00    +0.037 C 
ATOM    223  H   UNL     1     -13.479  16.559  20.761  0.00  0.00    +0.052 HD
ATOM    224  H   UNL     1     -13.784  14.853  21.130  0.00  0.00    +0.052 HD
ATOM    225  H   UNL     1     -12.190  15.584  21.497  0.00  0.00    +0.052 HD
ENDBRANCH 221 222
ENDBRANCH  37 221
BRANCH  16 226
ATOM    226  O   UNL     1     -14.350  11.153  14.873  0.00  0.00    -0.379 OA
BRANCH 226 227
ATOM    227  C   UNL     1     -14.019  12.536  14.817  0.00  0.00    +0.037 C 
ATOM    228  H   UNL     1     -13.135  12.705  15.438  0.00  0.00    +0.052 HD
ATOM    229  H   UNL     1     -13.785  12.834  13.791  0.00  0.00    +0.052 HD
ATOM    230  H   UNL     1     -14.840  13.147  15.206  0.00  0.00    +0.052 HD
ENDBRANCH 226 227
ENDBRANCH  16 226
TORSDOF 40
ENDMDL
MODEL 5
REMARK VINA RESULT:      -5.0      4.571     13.243
REMARK  Name = Swinholide A_conf3
REMARK  40 active torsions:
REMARK  status: ('A' for Active; 'I' for Inactive)
REMARK    1  A    between atoms: C_1  and  C_2
REMARK    2  A    between atoms: C_4  and  C_10
REMARK    3  A    between atoms: C_6  and  O_8
REMARK    4  A    between atoms: O_8  and  C_9
REMARK    5  A    between atoms: C_10  and  C_11
REMARK    6  A    between atoms: C_11  and  C_12
REMARK    7  A    between atoms: C_12  and  C_13
REMARK    8  A    between atoms: C_12  and  C_98
REMARK    9  A    between atoms: C_13  and  O_14
REMARK   10  A    between atoms: C_13  and  C_15
REMARK   11  A    between atoms: C_15  and  C_16
REMARK   12  A    between atoms: C_15  and  C_97
REMARK   13  A    between atoms: C_22  and  C_96
REMARK   14  A    between atoms: C_25  and  O_95
REMARK   15  A    between atoms: C_31  and  O_90
REMARK   16  A    between atoms: C_32  and  C_89
REMARK   17  A    between atoms: C_33  and  O_88
REMARK   18  A    between atoms: C_35  and  O_87
REMARK   19  A    between atoms: C_36  and  C_86
REMARK   20  A    between atoms: C_37  and  C_69
REMARK   21  A    between atoms: C_43  and  C_68
REMARK   22  A    between atoms: C_46  and  O_67
REMARK   23  A    between atoms: C_52  and  O_62
REMARK   24  A    between atoms: C_53  and  C_61
REMARK   25  A    between atoms: C_54  and  O_60
REMARK   26  A    between atoms: C_56  and  O_59
REMARK   27  A    between atoms: C_57  and  C_58
REMARK   28  A    between atoms: O_62  and  C_63
REMARK   29  A    between atoms: C_69  and  C_70
REMARK   30  A    between atoms: C_69  and  C_85
REMARK   31  A    between atoms: C_70  and  O_71
REMARK   32  A    between atoms: C_70  and  C_72
REMARK   33  A    between atoms: C_72  and  C_73
REMARK   34  A    between atoms: C_72  and  C_84
REMARK   35  A    between atoms: C_73  and  C_74
REMARK   36  A    between atoms: C_74  and  C_75
REMARK   37  A    between atoms: C_77  and  C_83
REMARK   38  A    between atoms: C_79  and  O_81
REMARK   39  A    between atoms: O_81  and  C_82
REMARK   40  A    between atoms: O_90  and  C_91
REMARK                            x       y       z     vdW  Elec       q    Type
REMARK                         _______ _______ _______ _____ _____    ______ ____
ROOT
ATOM      1  C   UNL     1      -4.220  20.996  18.507  0.00  0.00    +0.113 C 
ATOM      2  O   UNL     1      -3.965  19.607  18.841  0.00  0.00    -0.458 OA
ATOM      3  C   UNL     1      -4.808  18.718  18.249  0.00  0.00    +0.332 C 
ATOM      4  O   UNL     1      -5.656  18.983  17.408  0.00  0.00    -0.246 OA
ATOM      5  C   UNL     1      -4.654  17.341  18.727  0.00  0.00    +0.023 C 
ATOM      6  C   UNL     1      -3.559  16.797  19.277  0.00  0.00    -0.052 C 
ATOM      7  C   UNL     1      -3.493  15.374  19.596  0.00  0.00    -0.054 C 
ATOM      8  C   UNL     1      -3.939  14.463  18.707  0.00  0.00    -0.079 C 
ATOM      9  C   UNL     1      -4.039  12.975  18.863  0.00  0.00    -0.008 C 
ATOM     10  C   UNL     1      -5.228  12.437  19.692  0.00  0.00    +0.061 C 
ATOM     11  C   UNL     1      -6.452  13.345  19.864  0.00  0.00    +0.003 C 
ATOM     12  C   UNL     1      -7.491  13.439  18.734  0.00  0.00    +0.080 C 
ATOM     13  O   UNL     1      -8.459  14.383  19.239  0.00  0.00    -0.369 OA
ATOM     14  C   UNL     1      -9.358  14.946  18.268  0.00  0.00    +0.065 C 
ATOM     15  C   UNL     1     -10.322  13.863  17.754  0.00  0.00    +0.000 C 
ATOM     16  C   UNL     1     -11.520  14.375  16.930  0.00  0.00    +0.066 C 
ATOM     17  C   UNL     1     -12.507  13.206  16.642  0.00  0.00    +0.009 C 
ATOM     18  C   UNL     1     -12.103  12.277  15.460  0.00  0.00    +0.063 C 
ATOM     19  C   UNL     1     -12.428  10.785  15.712  0.00  0.00    -0.000 C 
ATOM     20  C   UNL     1     -11.618  10.195  16.890  0.00  0.00    +0.064 C 
ATOM     21  C   UNL     1     -11.023   8.794  16.586  0.00  0.00    +0.020 C 
ATOM     22  C   UNL     1      -9.691   8.483  17.359  0.00  0.00    +0.113 C 
ATOM     23  O   UNL     1      -9.463   9.419  18.429  0.00  0.00    -0.458 OA
ATOM     24  C   UNL     1     -10.033   9.135  19.626  0.00  0.00    +0.332 C 
ATOM     25  O   UNL     1     -10.534   8.075  19.964  0.00  0.00    -0.246 OA
ATOM     26  C   UNL     1      -9.964  10.356  20.454  0.00  0.00    +0.023 C 
ATOM     27  C   UNL     1     -10.514  10.370  21.677  0.00  0.00    -0.052 C 
ATOM     28  C   UNL     1     -10.545  11.527  22.562  0.00  0.00    -0.054 C 
ATOM     29  C   UNL     1     -10.851  12.758  22.101  0.00  0.00    -0.079 C 
ATOM     30  C   UNL     1     -10.981  14.023  22.909  0.00  0.00    -0.008 C 
ATOM     31  C   UNL     1      -9.656  14.806  22.979  0.00  0.00    +0.061 C 
ATOM     32  C   UNL     1      -9.675  16.059  22.090  0.00  0.00    +0.003 C 
ATOM     33  C   UNL     1      -8.285  16.693  21.907  0.00  0.00    +0.080 C 
ATOM     34  O   UNL     1      -8.270  17.534  20.734  0.00  0.00    -0.369 OA
ATOM     35  C   UNL     1      -8.736  18.880  20.949  0.00  0.00    +0.065 C 
ATOM     36  C   UNL     1      -8.725  19.573  19.570  0.00  0.00    +0.000 C 
ATOM     37  C   UNL     1      -9.131  21.062  19.582  0.00  0.00    +0.066 C 
ATOM     38  C   UNL     1      -9.048  21.710  18.166  0.00  0.00    +0.009 C 
ATOM     39  C   UNL     1      -7.635  21.750  17.519  0.00  0.00    +0.063 C 
ATOM     40  C   UNL     1      -6.657  22.900  17.841  0.00  0.00    -0.000 C 
ATOM     41  C   UNL     1      -5.902  22.889  19.179  0.00  0.00    +0.064 C 
ATOM     42  C   UNL     1      -5.215  21.560  19.569  0.00  0.00    +0.020 C 
ATOM     43  C   UNL     1      -7.800  19.577  21.949  0.00  0.00    -0.008 C 
ATOM     44  C   UNL     1      -7.562  18.743  23.164  0.00  0.00    -0.083 C 
ATOM     45  C   UNL     1      -7.785  17.424  23.131  0.00  0.00    -0.059 C 
ATOM     46  C   UNL     1      -8.555  15.693  17.194  0.00  0.00    -0.008 C 
ATOM     47  C   UNL     1      -7.426  14.867  16.670  0.00  0.00    -0.083 C 
ATOM     48  C   UNL     1      -6.957  13.831  17.382  0.00  0.00    -0.059 C 
ATOM     49  H   UNL     1      -4.743  21.023  17.545  0.00  0.00    +0.074 HD
ATOM     50  H   UNL     1      -5.534  16.736  18.522  0.00  0.00    +0.069 HD
ATOM     51  H   UNL     1      -2.680  17.398  19.495  0.00  0.00    +0.062 HD
ATOM     52  H   UNL     1      -4.299  14.816  17.741  0.00  0.00    +0.058 HD
ATOM     53  H   UNL     1      -3.106  12.583  19.289  0.00  0.00    +0.033 HD
ATOM     54  H   UNL     1      -4.070  12.537  17.857  0.00  0.00    +0.033 HD
ATOM     55  H   UNL     1      -4.841  12.244  20.702  0.00  0.00    +0.060 HD
ATOM     56  H   UNL     1      -6.148  14.352  20.175  0.00  0.00    +0.032 HD
ATOM     57  H   UNL     1      -7.007  12.967  20.738  0.00  0.00    +0.032 HD
ATOM     58  H   UNL     1      -7.991  12.470  18.639  0.00  0.00    +0.064 HD
ATOM     59  H   UNL     1      -9.945  15.692  18.816  0.00  0.00    +0.060 HD
ATOM     60  H   UNL     1     -10.700  13.334  18.639  0.00  0.00    +0.032 HD
ATOM     61  H   UNL     1      -9.766  13.115  17.188  0.00  0.00    +0.032 HD
ATOM     62  H   UNL     1     -11.179  14.817  15.986  0.00  0.00    +0.060 HD
ATOM     63  H   UNL     1     -12.568  12.615  17.563  0.00  0.00    +0.035 HD
ATOM     64  H   UNL     1     -12.660  12.593  14.568  0.00  0.00    +0.060 HD
ATOM     65  H   UNL     1     -12.177  10.249  14.790  0.00  0.00    +0.032 HD
ATOM     66  H   UNL     1     -13.504  10.666  15.882  0.00  0.00    +0.032 HD
ATOM     67  H   UNL     1     -10.806  10.883  17.120  0.00  0.00    +0.060 HD
ATOM     68  H   UNL     1     -10.794   8.752  15.515  0.00  0.00    +0.036 HD
ATOM     69  H   UNL     1      -9.756   7.481  17.806  0.00  0.00    +0.074 HD
ATOM     70  H   UNL     1      -9.499  11.227  20.012  0.00  0.00    +0.069 HD
ATOM     71  H   UNL     1     -10.975   9.462  22.068  0.00  0.00    +0.062 HD
ATOM     72  H   UNL     1     -11.056  12.894  21.039  0.00  0.00    +0.058 HD
ATOM     73  H   UNL     1     -11.770  14.635  22.452  0.00  0.00    +0.033 HD
ATOM     74  H   UNL     1     -11.356  13.791  23.912  0.00  0.00    +0.033 HD
ATOM     75  H   UNL     1      -8.814  14.166  22.690  0.00  0.00    +0.060 HD
ATOM     76  H   UNL     1     -10.073  15.798  21.104  0.00  0.00    +0.032 HD
ATOM     77  H   UNL     1     -10.365  16.804  22.511  0.00  0.00    +0.032 HD
ATOM     78  H   UNL     1      -7.567  15.895  21.684  0.00  0.00    +0.064 HD
ATOM     79  H   UNL     1      -9.763  18.844  21.334  0.00  0.00    +0.060 HD
ATOM     80  H   UNL     1      -7.732  19.438  19.135  0.00  0.00    +0.032 HD
ATOM     81  H   UNL     1      -9.408  19.014  18.914  0.00  0.00    +0.032 HD
ATOM     82  H   UNL     1      -8.498  21.611  20.279  0.00  0.00    +0.060 HD
ATOM     83  H   UNL     1      -9.674  21.080  17.517  0.00  0.00    +0.035 HD
ATOM     84  H   UNL     1      -7.132  20.800  17.667  0.00  0.00    +0.060 HD
ATOM     85  H   UNL     1      -7.188  23.856  17.742  0.00  0.00    +0.032 HD
ATOM     86  H   UNL     1      -5.905  22.929  17.041  0.00  0.00    +0.032 HD
ATOM     87  H   UNL     1      -5.143  23.680  19.132  0.00  0.00    +0.060 HD
ATOM     88  H   UNL     1      -6.013  20.815  19.651  0.00  0.00    +0.036 HD
ATOM     89  H   UNL     1      -8.210  20.544  22.255  0.00  0.00    +0.033 HD
ATOM     90  H   UNL     1      -6.825  19.752  21.489  0.00  0.00    +0.033 HD
ATOM     91  H   UNL     1      -7.186  19.219  24.064  0.00  0.00    +0.057 HD
ATOM     92  H   UNL     1      -7.606  16.835  24.026  0.00  0.00    +0.059 HD
ATOM     93  H   UNL     1      -8.122  16.602  17.631  0.00  0.00    +0.033 HD
ATOM     94  H   UNL     1      -9.204  16.008  16.373  0.00  0.00    +0.033 HD
ATOM     95  H   UNL     1      -7.009  15.108  15.697  0.00  0.00    +0.057 HD
ATOM     96  H   UNL     1      -6.193  13.197  16.948  0.00  0.00    +0.059 HD
ENDROOT
BRANCH  28  97
ATOM     97  C   UNL     1     -10.258  11.194  24.002  0.00  0.00    -0.040 C 
ATOM     98  H   UNL     1     -10.009  10.142  24.159  0.00  0.00    +0.028 HD
ATOM     99  H   UNL     1      -9.422  11.795  24.376  0.00  0.00    +0.028 HD
ATOM    100  H   UNL     1     -11.139  11.403  24.621  0.00  0.00    +0.028 HD
ENDBRANCH  28  97
BRANCH  21 101
ATOM    101  C   UNL     1     -12.036   7.662  16.813  0.00  0.00    -0.057 C 
ATOM    102  H   UNL     1     -11.679   6.934  17.548  0.00  0.00    +0.023 HD
ATOM    103  H   UNL     1     -12.225   7.122  15.879  0.00  0.00    +0.023 HD
ATOM    104  H   UNL     1     -12.996   8.059  17.160  0.00  0.00    +0.023 HD
ENDBRANCH  21 101
BRANCH  42 105
ATOM    105  C   UNL     1      -4.650  21.619  20.998  0.00  0.00    -0.057 C 
ATOM    106  H   UNL     1      -3.555  21.582  20.978  0.00  0.00    +0.023 HD
ATOM    107  H   UNL     1      -4.932  22.544  21.511  0.00  0.00    +0.023 HD
ATOM    108  H   UNL     1      -4.965  20.763  21.598  0.00  0.00    +0.023 HD
ENDBRANCH  42 105
BRANCH  17 109
ATOM    109  C   UNL     1     -13.951  13.689  16.411  0.00  0.00    -0.058 C 
ATOM    110  H   UNL     1     -14.447  13.100  15.635  0.00  0.00    +0.023 HD
ATOM    111  H   UNL     1     -13.978  14.742  16.115  0.00  0.00    +0.023 HD
ATOM    112  H   UNL     1     -14.544  13.604  17.329  0.00  0.00    +0.023 HD
ENDBRANCH  17 109
BRANCH  38 113
ATOM    113  C   UNL     1      -9.724  23.090  18.114  0.00  0.00    -0.058 C 
ATOM    114  H   UNL     1     -10.323  23.209  17.207  0.00  0.00    +0.023 HD
ATOM    115  H   UNL     1     -10.377  23.242  18.981  0.00  0.00    +0.023 HD
ATOM    116  H   UNL     1      -8.980  23.893  18.138  0.00  0.00    +0.023 HD
ENDBRANCH  38 113
BRANCH   7 117
ATOM    117  C   UNL     1      -2.930  15.041  20.946  0.00  0.00    -0.040 C 
ATOM    118  H   UNL     1      -3.708  14.611  21.582  0.00  0.00    +0.028 HD
ATOM    119  H   UNL     1      -2.533  15.918  21.464  0.00  0.00    +0.028 HD
ATOM    120  H   UNL     1      -2.112  14.317  20.863  0.00  0.00    +0.028 HD
ENDBRANCH   7 117
BRANCH   1 121
ATOM    121  C   UNL     1      -2.893  21.761  18.218  0.00  0.00    +0.020 C 
ATOM    122  H   UNL     1      -2.957  22.705  18.774  0.00  0.00    +0.036 HD
BRANCH 121 123
ATOM    123  C   UNL     1      -1.612  21.089  18.704  0.00  0.00    -0.057 C 
ATOM    124  H   UNL     1      -1.691  20.758  19.742  0.00  0.00    +0.023 HD
ATOM    125  H   UNL     1      -1.360  20.229  18.076  0.00  0.00    +0.023 HD
ATOM    126  H   UNL     1      -0.754  21.757  18.612  0.00  0.00    +0.023 HD
ENDBRANCH 121 123
BRANCH 121 127
ATOM    127  C   UNL     1      -2.800  22.144  16.703  0.00  0.00    +0.064 C 
ATOM    128  H   UNL     1      -2.058  21.471  16.255  0.00  0.00    +0.060 HD
BRANCH 127 129
ATOM    129  C   UNL     1      -2.429  23.625  16.359  0.00  0.00    -0.017 C 
ATOM    130  H   UNL     1      -3.194  24.035  15.695  0.00  0.00    +0.032 HD
BRANCH 129 131
ATOM    131  C   UNL     1      -2.480  24.461  17.649  0.00  0.00    -0.060 C 
ATOM    132  H   UNL     1      -1.917  25.394  17.542  0.00  0.00    +0.023 HD
ATOM    133  H   UNL     1      -2.053  23.906  18.493  0.00  0.00    +0.023 HD
ATOM    134  H   UNL     1      -3.510  24.711  17.922  0.00  0.00    +0.023 HD
ENDBRANCH 129 131
BRANCH 129 135
ATOM    135  C   UNL     1      -1.043  23.786  15.690  0.00  0.00    -0.046 C 
ATOM    136  H   UNL     1      -1.087  24.544  14.903  0.00  0.00    +0.027 HD
ATOM    137  H   UNL     1      -0.773  22.849  15.184  0.00  0.00    +0.027 HD
BRANCH 135 138
ATOM    138  C   UNL     1       0.123  24.150  16.626  0.00  0.00    -0.026 C 
ATOM    139  H   UNL     1      -0.230  23.960  17.650  0.00  0.00    +0.029 HD
ATOM    140  H   UNL     1       0.330  25.225  16.569  0.00  0.00    +0.029 HD
BRANCH 138 143
ATOM    141  C   UNL     1       3.111  23.031  14.693  0.00  0.00    +0.059 C 
ATOM    142  O   UNL     1       2.065  23.851  15.230  0.00  0.00    -0.373 OA
ATOM    143  C   UNL     1       1.418  23.353  16.403  0.00  0.00    +0.061 C 
ATOM    144  C   UNL     1       1.107  21.861  16.266  0.00  0.00    -0.000 C 
ATOM    145  C   UNL     1       2.381  21.042  16.025  0.00  0.00    +0.063 C 
ATOM    146  C   UNL     1       3.564  21.933  15.647  0.00  0.00    -0.000 C 
ATOM    147  H   UNL     1       2.716  22.578  13.776  0.00  0.00    +0.059 HD
ATOM    148  H   UNL     1       2.081  23.513  17.261  0.00  0.00    +0.060 HD
ATOM    149  H   UNL     1       0.561  21.510  17.148  0.00  0.00    +0.032 HD
ATOM    150  H   UNL     1       0.453  21.721  15.395  0.00  0.00    +0.032 HD
ATOM    151  H   UNL     1       2.206  20.329  15.207  0.00  0.00    +0.060 HD
ATOM    152  H   UNL     1       4.357  21.322  15.197  0.00  0.00    +0.032 HD
ATOM    153  H   UNL     1       4.002  22.374  16.549  0.00  0.00    +0.032 HD
BRANCH 141 154
ATOM    154  C   UNL     1       4.270  23.943  14.315  0.00  0.00    -0.039 C 
ATOM    155  H   UNL     1       5.129  23.366  13.959  0.00  0.00    +0.025 HD
ATOM    156  H   UNL     1       3.970  24.643  13.529  0.00  0.00    +0.025 HD
ATOM    157  H   UNL     1       4.588  24.546  15.172  0.00  0.00    +0.025 HD
ENDBRANCH 141 154
BRANCH 145 158
ATOM    158  O   UNL     1       2.755  20.315  17.201  0.00  0.00    -0.380 OA
BRANCH 158 159
ATOM    159  C   UNL     1       4.153  20.341  17.458  0.00  0.00    +0.037 C 
ATOM    160  H   UNL     1       4.300  20.325  18.542  0.00  0.00    +0.052 HD
ATOM    161  H   UNL     1       4.655  19.470  17.027  0.00  0.00    +0.052 HD
ATOM    162  H   UNL     1       4.593  21.261  17.061  0.00  0.00    +0.052 HD
ENDBRANCH 158 159
ENDBRANCH 145 158
ENDBRANCH 138 143
ENDBRANCH 135 138
ENDBRANCH 129 135
ENDBRANCH 127 129
BRANCH 127 163
ATOM    163  O   UNL     1      -4.048  21.790  16.091  0.00  0.00    -0.391 OA
ATOM    164  H   UNL     1      -4.652  22.543  16.214  0.00  0.00    +0.210 HD
ENDBRANCH 127 163
ENDBRANCH 121 127
ENDBRANCH   1 121
BRANCH  41 165
ATOM    165  O   UNL     1      -6.821  23.276  20.203  0.00  0.00    -0.391 OA
ATOM    166  H   UNL     1      -6.803  22.586  20.887  0.00  0.00    +0.210 HD
ENDBRANCH  41 165
BRANCH  39 167
ATOM    167  O   UNL     1      -7.839  21.838  16.088  0.00  0.00    -0.391 OA
ATOM    168  H   UNL     1      -8.655  21.346  15.894  0.00  0.00    +0.210 HD
ENDBRANCH  39 167
BRANCH  31 169
ATOM    169  O   UNL     1      -9.432  15.189  24.340  0.00  0.00    -0.391 OA
ATOM    170  H   UNL     1     -10.218  15.685  24.634  0.00  0.00    +0.210 HD
ENDBRANCH  31 169
BRANCH  22 171
ATOM    171  C   UNL     1      -8.424   8.449  16.420  0.00  0.00    +0.020 C 
ATOM    172  H   UNL     1      -8.807   8.487  15.391  0.00  0.00    +0.036 HD
BRANCH 171 173
ATOM    173  C   UNL     1      -7.617   9.736  16.692  0.00  0.00    -0.057 C 
ATOM    174  H   UNL     1      -6.561   9.614  16.432  0.00  0.00    +0.023 HD
ATOM    175  H   UNL     1      -8.004  10.585  16.119  0.00  0.00    +0.023 HD
ATOM    176  H   UNL     1      -7.617  10.011  17.746  0.00  0.00    +0.023 HD
ENDBRANCH 171 173
BRANCH 171 177
ATOM    177  C   UNL     1      -7.550   7.157  16.541  0.00  0.00    +0.064 C 
ATOM    178  H   UNL     1      -6.576   7.351  16.074  0.00  0.00    +0.060 HD
BRANCH 177 179
ATOM    179  O   UNL     1      -7.317   6.904  17.926  0.00  0.00    -0.391 OA
ATOM    180  H   UNL     1      -8.166   6.979  18.410  0.00  0.00    +0.210 HD
ENDBRANCH 177 179
BRANCH 177 181
ATOM    181  C   UNL     1      -8.117   5.823  15.955  0.00  0.00    -0.017 C 
ATOM    182  H   UNL     1      -7.266   5.204  15.638  0.00  0.00    +0.032 HD
BRANCH 181 183
ATOM    183  C   UNL     1      -8.939   4.998  16.944  0.00  0.00    -0.060 C 
ATOM    184  H   UNL     1      -9.804   5.569  17.291  0.00  0.00    +0.023 HD
ATOM    185  H   UNL     1      -8.383   4.766  17.857  0.00  0.00    +0.023 HD
ATOM    186  H   UNL     1      -9.271   4.055  16.501  0.00  0.00    +0.023 HD
ENDBRANCH 181 183
BRANCH 181 187
ATOM    187  C   UNL     1      -8.932   6.141  14.665  0.00  0.00    -0.046 C 
ATOM    188  H   UNL     1      -8.516   7.040  14.194  0.00  0.00    +0.027 HD
ATOM    189  H   UNL     1      -9.966   6.384  14.942  0.00  0.00    +0.027 HD
BRANCH 187 190
ATOM    190  C   UNL     1      -8.950   5.017  13.618  0.00  0.00    -0.026 C 
ATOM    191  H   UNL     1      -8.278   4.209  13.930  0.00  0.00    +0.029 HD
ATOM    192  H   UNL     1      -9.968   4.611  13.567  0.00  0.00    +0.029 HD
BRANCH 190 193
ATOM    193  C   UNL     1      -8.551   5.497  12.214  0.00  0.00    +0.061 C 
ATOM    194  O   UNL     1      -9.515   6.459  11.772  0.00  0.00    -0.373 OA
ATOM    195  C   UNL     1      -9.249   7.006  10.477  0.00  0.00    +0.059 C 
ATOM    196  C   UNL     1      -9.154   5.902   9.419  0.00  0.00    -0.000 C 
ATOM    197  C   UNL     1      -8.215   4.763   9.819  0.00  0.00    +0.063 C 
ATOM    198  C   UNL     1      -8.515   4.311  11.247  0.00  0.00    -0.000 C 
ATOM    199  H   UNL     1      -7.564   5.969  12.283  0.00  0.00    +0.060 HD
ATOM    200  H   UNL     1     -10.130   7.614  10.230  0.00  0.00    +0.059 HD
ATOM    201  H   UNL     1      -8.877   6.335   8.454  0.00  0.00    +0.032 HD
ATOM    202  H   UNL     1     -10.157   5.468   9.301  0.00  0.00    +0.032 HD
ATOM    203  H   UNL     1      -8.365   3.906   9.149  0.00  0.00    +0.060 HD
ATOM    204  H   UNL     1      -7.763   3.585  11.579  0.00  0.00    +0.032 HD
ATOM    205  H   UNL     1      -9.491   3.810  11.249  0.00  0.00    +0.032 HD
BRANCH 195 206
ATOM    206  C   UNL     1      -8.061   7.964  10.494  0.00  0.00    -0.039 C 
ATOM    207  H   UNL     1      -8.035   8.514  11.442  0.00  0.00    +0.025 HD
ATOM    208  H   UNL     1      -8.131   8.687   9.675  0.00  0.00    +0.025 HD
ATOM    209  H   UNL     1      -7.098   7.453  10.411  0.00  0.00    +0.025 HD
ENDBRANCH 195 206
BRANCH 197 210
ATOM    210  O   UNL     1      -6.841   5.158   9.759  0.00  0.00    -0.380 OA
BRANCH 210 211
ATOM    211  C   UNL     1      -6.354   5.320   8.434  0.00  0.00    +0.037 C 
ATOM    212  H   UNL     1      -6.048   4.339   8.061  0.00  0.00    +0.052 HD
ATOM    213  H   UNL     1      -7.142   5.707   7.783  0.00  0.00    +0.052 HD
ATOM    214  H   UNL     1      -5.486   5.984   8.408  0.00  0.00    +0.052 HD
ENDBRANCH 210 211
ENDBRANCH 197 210
ENDBRANCH 190 193
ENDBRANCH 187 190
ENDBRANCH 181 187
ENDBRANCH 177 181
ENDBRANCH 171 177
ENDBRANCH  22 171
BRANCH  20 215
ATOM    215  O   UNL     1     -12.440  10.174  18.058  0.00  0.00    -0.391 OA
ATOM    216  H   UNL     1     -13.369  10.289  17.799  0.00  0.00    +0.210 HD
ENDBRANCH  20 215
BRANCH  18 217
ATOM    217  O   UNL     1     -10.722  12.379  15.101  0.00  0.00    -0.391 OA
ATOM    218  H   UNL     1     -10.557  11.702  14.418  0.00  0.00    +0.210 HD
ENDBRANCH  18 217
BRANCH  10 219
ATOM    219  O   UNL     1      -5.608  11.166  19.162  0.00  0.00    -0.391 OA
ATOM    220  H   UNL     1      -4.986  10.932  18.452  0.00  0.00    +0.210 HD
ENDBRANCH  10 219
BRANCH  37 221
ATOM    221  O   UNL     1     -10.503  21.093  20.020  0.00  0.00    -0.379 OA
BRANCH 221 222
ATOM    222  C   UNL     1     -10.698  21.835  21.217  0.00  0.00    +0.037 C 
ATOM    223  H   UNL     1     -10.795  21.127  22.044  0.00  0.00    +0.052 HD
ATOM    224  H   UNL     1      -9.830  22.471  21.410  0.00  0.00    +0.052 HD
ATOM    225  H   UNL     1     -11.606  22.443  21.170  0.00  0.00    +0.052 HD
ENDBRANCH 221 222
ENDBRANCH  37 221
BRANCH  16 226
ATOM    226  O   UNL     1     -12.189  15.359  17.737  0.00  0.00    -0.379 OA
BRANCH 226 227
ATOM    227  C   UNL     1     -12.229  16.648  17.137  0.00  0.00    +0.037 C 
ATOM    228  H   UNL     1     -11.265  17.137  17.307  0.00  0.00    +0.052 HD
ATOM    229  H   UNL     1     -12.391  16.566  16.058  0.00  0.00    +0.052 HD
ATOM    230  H   UNL     1     -13.015  17.262  17.588  0.00  0.00    +0.052 HD
ENDBRANCH 226 227
ENDBRANCH  16 226
TORSDOF 40
ENDMDL
MODEL 6
REMARK VINA RESULT:      -5.0      1.970      3.356
REMARK  Name = Swinholide A_conf3
REMARK  40 active torsions:
REMARK  status: ('A' for Active; 'I' for Inactive)
REMARK    1  A    between atoms: C_1  and  C_2
REMARK    2  A    between atoms: C_4  and  C_10
REMARK    3  A    between atoms: C_6  and  O_8
REMARK    4  A    between atoms: O_8  and  C_9
REMARK    5  A    between atoms: C_10  and  C_11
REMARK    6  A    between atoms: C_11  and  C_12
REMARK    7  A    between atoms: C_12  and  C_13
REMARK    8  A    between atoms: C_12  and  C_98
REMARK    9  A    between atoms: C_13  and  O_14
REMARK   10  A    between atoms: C_13  and  C_15
REMARK   11  A    between atoms: C_15  and  C_16
REMARK   12  A    between atoms: C_15  and  C_97
REMARK   13  A    between atoms: C_22  and  C_96
REMARK   14  A    between atoms: C_25  and  O_95
REMARK   15  A    between atoms: C_31  and  O_90
REMARK   16  A    between atoms: C_32  and  C_89
REMARK   17  A    between atoms: C_33  and  O_88
REMARK   18  A    between atoms: C_35  and  O_87
REMARK   19  A    between atoms: C_36  and  C_86
REMARK   20  A    between atoms: C_37  and  C_69
REMARK   21  A    between atoms: C_43  and  C_68
REMARK   22  A    between atoms: C_46  and  O_67
REMARK   23  A    between atoms: C_52  and  O_62
REMARK   24  A    between atoms: C_53  and  C_61
REMARK   25  A    between atoms: C_54  and  O_60
REMARK   26  A    between atoms: C_56  and  O_59
REMARK   27  A    between atoms: C_57  and  C_58
REMARK   28  A    between atoms: O_62  and  C_63
REMARK   29  A    between atoms: C_69  and  C_70
REMARK   30  A    between atoms: C_69  and  C_85
REMARK   31  A    between atoms: C_70  and  O_71
REMARK   32  A    between atoms: C_70  and  C_72
REMARK   33  A    between atoms: C_72  and  C_73
REMARK   34  A    between atoms: C_72  and  C_84
REMARK   35  A    between atoms: C_73  and  C_74
REMARK   36  A    between atoms: C_74  and  C_75
REMARK   37  A    between atoms: C_77  and  C_83
REMARK   38  A    between atoms: C_79  and  O_81
REMARK   39  A    between atoms: O_81  and  C_82
REMARK   40  A    between atoms: O_90  and  C_91
REMARK                            x       y       z     vdW  Elec       q    Type
REMARK                         _______ _______ _______ _____ _____    ______ ____
ROOT
ATOM      1  C   UNL     1     -12.994  13.333  29.467  0.00  0.00    +0.113 C 
ATOM      2  O   UNL     1     -12.823  12.666  28.189  0.00  0.00    -0.458 OA
ATOM      3  C   UNL     1     -11.696  13.018  27.513  0.00  0.00    +0.332 C 
ATOM      4  O   UNL     1     -10.802  13.739  27.934  0.00  0.00    -0.246 OA
ATOM      5  C   UNL     1     -11.622  12.475  26.154  0.00  0.00    +0.023 C 
ATOM      6  C   UNL     1     -12.235  11.376  25.691  0.00  0.00    -0.052 C 
ATOM      7  C   UNL     1     -11.976  10.868  24.347  0.00  0.00    -0.054 C 
ATOM      8  C   UNL     1     -10.711  10.796  23.886  0.00  0.00    -0.079 C 
ATOM      9  C   UNL     1     -10.234  10.388  22.524  0.00  0.00    -0.008 C 
ATOM     10  C   UNL     1     -10.361  11.437  21.396  0.00  0.00    +0.061 C 
ATOM     11  C   UNL     1     -10.471  12.914  21.797  0.00  0.00    +0.003 C 
ATOM     12  C   UNL     1      -9.200  13.697  22.165  0.00  0.00    +0.080 C 
ATOM     13  O   UNL     1      -9.695  15.010  22.500  0.00  0.00    -0.369 OA
ATOM     14  C   UNL     1      -8.788  15.861  23.224  0.00  0.00    +0.065 C 
ATOM     15  C   UNL     1      -7.614  16.269  22.318  0.00  0.00    +0.000 C 
ATOM     16  C   UNL     1      -6.719  17.401  22.858  0.00  0.00    +0.066 C 
ATOM     17  C   UNL     1      -5.699  17.841  21.767  0.00  0.00    +0.009 C 
ATOM     18  C   UNL     1      -4.445  16.929  21.630  0.00  0.00    +0.063 C 
ATOM     19  C   UNL     1      -3.978  16.743  20.166  0.00  0.00    -0.000 C 
ATOM     20  C   UNL     1      -5.024  16.003  19.301  0.00  0.00    +0.064 C 
ATOM     21  C   UNL     1      -4.405  14.905  18.394  0.00  0.00    +0.020 C 
ATOM     22  C   UNL     1      -5.378  13.712  18.080  0.00  0.00    +0.113 C 
ATOM     23  O   UNL     1      -6.740  14.027  18.425  0.00  0.00    -0.458 OA
ATOM     24  C   UNL     1      -7.480  14.665  17.486  0.00  0.00    +0.332 C 
ATOM     25  O   UNL     1      -7.199  14.809  16.307  0.00  0.00    -0.246 OA
ATOM     26  C   UNL     1      -8.693  15.183  18.150  0.00  0.00    +0.023 C 
ATOM     27  C   UNL     1      -9.580  15.912  17.456  0.00  0.00    -0.052 C 
ATOM     28  C   UNL     1     -10.785  16.510  18.016  0.00  0.00    -0.054 C 
ATOM     29  C   UNL     1     -10.769  17.144  19.207  0.00  0.00    -0.079 C 
ATOM     30  C   UNL     1     -11.918  17.857  19.871  0.00  0.00    -0.008 C 
ATOM     31  C   UNL     1     -12.707  16.931  20.817  0.00  0.00    +0.061 C 
ATOM     32  C   UNL     1     -12.421  17.233  22.296  0.00  0.00    +0.003 C 
ATOM     33  C   UNL     1     -12.955  16.149  23.249  0.00  0.00    +0.080 C 
ATOM     34  O   UNL     1     -12.274  16.222  24.519  0.00  0.00    -0.369 OA
ATOM     35  C   UNL     1     -12.836  17.166  25.453  0.00  0.00    +0.065 C 
ATOM     36  C   UNL     1     -11.918  17.154  26.693  0.00  0.00    +0.000 C 
ATOM     37  C   UNL     1     -12.378  18.056  27.858  0.00  0.00    +0.066 C 
ATOM     38  C   UNL     1     -11.435  17.955  29.095  0.00  0.00    +0.009 C 
ATOM     39  C   UNL     1     -11.343  16.556  29.767  0.00  0.00    +0.063 C 
ATOM     40  C   UNL     1     -12.382  16.124  30.824  0.00  0.00    -0.000 C 
ATOM     41  C   UNL     1     -13.774  15.667  30.363  0.00  0.00    +0.064 C 
ATOM     42  C   UNL     1     -13.813  14.637  29.212  0.00  0.00    +0.020 C 
ATOM     43  C   UNL     1     -14.269  16.733  25.795  0.00  0.00    -0.008 C 
ATOM     44  C   UNL     1     -15.070  16.438  24.570  0.00  0.00    -0.083 C 
ATOM     45  C   UNL     1     -14.457  16.169  23.412  0.00  0.00    -0.059 C 
ATOM     46  C   UNL     1      -8.408  15.196  24.554  0.00  0.00    -0.008 C 
ATOM     47  C   UNL     1      -7.994  13.772  24.365  0.00  0.00    -0.083 C 
ATOM     48  C   UNL     1      -8.356  13.103  23.260  0.00  0.00    -0.059 C 
ATOM     49  H   UNL     1     -12.007  13.650  29.820  0.00  0.00    +0.074 HD
ATOM     50  H   UNL     1     -10.927  13.031  25.529  0.00  0.00    +0.069 HD
ATOM     51  H   UNL     1     -12.938  10.822  26.307  0.00  0.00    +0.062 HD
ATOM     52  H   UNL     1      -9.899  11.077  24.556  0.00  0.00    +0.058 HD
ATOM     53  H   UNL     1     -10.748   9.469  22.211  0.00  0.00    +0.033 HD
ATOM     54  H   UNL     1      -9.185  10.080  22.618  0.00  0.00    +0.033 HD
ATOM     55  H   UNL     1     -11.281  11.196  20.847  0.00  0.00    +0.060 HD
ATOM     56  H   UNL     1     -11.230  13.047  22.579  0.00  0.00    +0.032 HD
ATOM     57  H   UNL     1     -10.901  13.445  20.934  0.00  0.00    +0.032 HD
ATOM     58  H   UNL     1      -8.580  13.795  21.267  0.00  0.00    +0.064 HD
ATOM     59  H   UNL     1      -9.364  16.762  23.461  0.00  0.00    +0.060 HD
ATOM     60  H   UNL     1      -8.052  16.587  21.362  0.00  0.00    +0.032 HD
ATOM     61  H   UNL     1      -7.011  15.392  22.080  0.00  0.00    +0.032 HD
ATOM     62  H   UNL     1      -6.185  17.076  23.759  0.00  0.00    +0.060 HD
ATOM     63  H   UNL     1      -6.245  17.854  20.816  0.00  0.00    +0.035 HD
ATOM     64  H   UNL     1      -3.620  17.392  22.187  0.00  0.00    +0.060 HD
ATOM     65  H   UNL     1      -3.052  16.157  20.204  0.00  0.00    +0.032 HD
ATOM     66  H   UNL     1      -3.734  17.720  19.731  0.00  0.00    +0.032 HD
ATOM     67  H   UNL     1      -5.750  15.543  19.969  0.00  0.00    +0.060 HD
ATOM     68  H   UNL     1      -3.538  14.489  18.916  0.00  0.00    +0.036 HD
ATOM     69  H   UNL     1      -5.353  13.497  17.003  0.00  0.00    +0.074 HD
ATOM     70  H   UNL     1      -8.800  14.985  19.208  0.00  0.00    +0.069 HD
ATOM     71  H   UNL     1      -9.416  16.084  16.392  0.00  0.00    +0.062 HD
ATOM     72  H   UNL     1      -9.839  17.189  19.774  0.00  0.00    +0.058 HD
ATOM     73  H   UNL     1     -11.510  18.716  20.420  0.00  0.00    +0.033 HD
ATOM     74  H   UNL     1     -12.574  18.299  19.113  0.00  0.00    +0.033 HD
ATOM     75  H   UNL     1     -12.476  15.880  20.607  0.00  0.00    +0.060 HD
ATOM     76  H   UNL     1     -11.341  17.328  22.444  0.00  0.00    +0.032 HD
ATOM     77  H   UNL     1     -12.854  18.206  22.568  0.00  0.00    +0.032 HD
ATOM     78  H   UNL     1     -12.681  15.167  22.845  0.00  0.00    +0.064 HD
ATOM     79  H   UNL     1     -12.825  18.165  24.998  0.00  0.00    +0.060 HD
ATOM     80  H   UNL     1     -11.807  16.116  27.018  0.00  0.00    +0.032 HD
ATOM     81  H   UNL     1     -10.916  17.465  26.366  0.00  0.00    +0.032 HD
ATOM     82  H   UNL     1     -13.397  17.795  28.146  0.00  0.00    +0.060 HD
ATOM     83  H   UNL     1     -10.428  18.190  28.717  0.00  0.00    +0.035 HD
ATOM     84  H   UNL     1     -11.262  15.785  29.009  0.00  0.00    +0.060 HD
ATOM     85  H   UNL     1     -12.499  16.932  31.558  0.00  0.00    +0.032 HD
ATOM     86  H   UNL     1     -11.943  15.300  31.403  0.00  0.00    +0.032 HD
ATOM     87  H   UNL     1     -14.285  15.243  31.236  0.00  0.00    +0.060 HD
ATOM     88  H   UNL     1     -13.339  15.120  28.351  0.00  0.00    +0.036 HD
ATOM     89  H   UNL     1     -14.780  17.507  26.376  0.00  0.00    +0.033 HD
ATOM     90  H   UNL     1     -14.253  15.818  26.390  0.00  0.00    +0.033 HD
ATOM     91  H   UNL     1     -16.153  16.424  24.639  0.00  0.00    +0.057 HD
ATOM     92  H   UNL     1     -15.057  15.957  22.532  0.00  0.00    +0.059 HD
ATOM     93  H   UNL     1      -9.278  15.199  25.223  0.00  0.00    +0.033 HD
ATOM     94  H   UNL     1      -7.615  15.755  25.056  0.00  0.00    +0.033 HD
ATOM     95  H   UNL     1      -7.381  13.301  25.127  0.00  0.00    +0.057 HD
ATOM     96  H   UNL     1      -7.978  12.099  23.105  0.00  0.00    +0.059 HD
ENDROOT
BRANCH  28  97
ATOM     97  C   UNL     1     -11.990  16.388  17.123  0.00  0.00    -0.040 C 
ATOM     98  H   UNL     1     -12.891  16.074  17.655  0.00  0.00    +0.028 HD
ATOM     99  H   UNL     1     -12.207  17.345  16.635  0.00  0.00    +0.028 HD
ATOM    100  H   UNL     1     -11.810  15.636  16.345  0.00  0.00    +0.028 HD
ENDBRANCH  28  97
BRANCH  21 101
ATOM    101  C   UNL     1      -3.837  15.475  17.086  0.00  0.00    -0.057 C 
ATOM    102  H   UNL     1      -3.924  14.764  16.258  0.00  0.00    +0.023 HD
ATOM    103  H   UNL     1      -2.775  15.718  17.202  0.00  0.00    +0.023 HD
ATOM    104  H   UNL     1      -4.354  16.398  16.802  0.00  0.00    +0.023 HD
ENDBRANCH  21 101
BRANCH  42 105
ATOM    105  C   UNL     1     -15.251  14.396  28.722  0.00  0.00    -0.057 C 
ATOM    106  H   UNL     1     -15.605  15.253  28.138  0.00  0.00    +0.023 HD
ATOM    107  H   UNL     1     -15.320  13.515  28.074  0.00  0.00    +0.023 HD
ATOM    108  H   UNL     1     -15.953  14.290  29.551  0.00  0.00    +0.023 HD
ENDBRANCH  42 105
BRANCH  17 109
ATOM    109  C   UNL     1      -5.226  19.296  21.946  0.00  0.00    -0.058 C 
ATOM    110  H   UNL     1      -5.658  19.746  22.844  0.00  0.00    +0.023 HD
ATOM    111  H   UNL     1      -5.499  19.914  21.084  0.00  0.00    +0.023 HD
ATOM    112  H   UNL     1      -4.135  19.344  22.035  0.00  0.00    +0.023 HD
ENDBRANCH  17 109
BRANCH  38 113
ATOM    113  C   UNL     1     -11.712  19.055  30.132  0.00  0.00    -0.058 C 
ATOM    114  H   UNL     1     -12.140  18.642  31.050  0.00  0.00    +0.023 HD
ATOM    115  H   UNL     1     -10.792  19.591  30.393  0.00  0.00    +0.023 HD
ATOM    116  H   UNL     1     -12.409  19.801  29.738  0.00  0.00    +0.023 HD
ENDBRANCH  38 113
BRANCH   7 117
ATOM    117  C   UNL     1     -13.193  10.477  23.561  0.00  0.00    -0.040 C 
ATOM    118  H   UNL     1     -13.788   9.755  24.124  0.00  0.00    +0.028 HD
ATOM    119  H   UNL     1     -12.943  10.017  22.601  0.00  0.00    +0.028 HD
ATOM    120  H   UNL     1     -13.819  11.351  23.347  0.00  0.00    +0.028 HD
ENDBRANCH   7 117
BRANCH   1 121
ATOM    121  C   UNL     1     -13.467  12.334  30.567  0.00  0.00    +0.020 C 
ATOM    122  H   UNL     1     -14.022  12.930  31.302  0.00  0.00    +0.036 HD
BRANCH 121 123
ATOM    123  C   UNL     1     -14.434  11.245  30.112  0.00  0.00    -0.057 C 
ATOM    124  H   UNL     1     -14.692  11.340  29.055  0.00  0.00    +0.023 HD
ATOM    125  H   UNL     1     -14.012  10.250  30.285  0.00  0.00    +0.023 HD
ATOM    126  H   UNL     1     -15.353  11.259  30.701  0.00  0.00    +0.023 HD
ENDBRANCH 121 123
BRANCH 121 127
ATOM    127  C   UNL     1     -12.237  11.730  31.323  0.00  0.00    +0.064 C 
ATOM    128  H   UNL     1     -12.379  11.958  32.386  0.00  0.00    +0.060 HD
BRANCH 127 129
ATOM    129  C   UNL     1     -10.815  12.209  30.877  0.00  0.00    -0.017 C 
ATOM    130  H   UNL     1     -10.916  12.821  29.978  0.00  0.00    +0.032 HD
BRANCH 129 131
ATOM    131  C   UNL     1     -10.239  13.130  31.967  0.00  0.00    -0.060 C 
ATOM    132  H   UNL     1      -9.222  12.831  32.243  0.00  0.00    +0.023 HD
ATOM    133  H   UNL     1     -10.857  13.099  32.872  0.00  0.00    +0.023 HD
ATOM    134  H   UNL     1     -10.212  14.172  31.635  0.00  0.00    +0.023 HD
ENDBRANCH 129 131
BRANCH 129 135
ATOM    135  C   UNL     1      -9.823  11.056  30.593  0.00  0.00    -0.046 C 
ATOM    136  H   UNL     1     -10.312  10.089  30.743  0.00  0.00    +0.027 HD
ATOM    137  H   UNL     1      -9.006  11.091  31.326  0.00  0.00    +0.027 HD
BRANCH 135 138
ATOM    138  C   UNL     1      -9.180  11.045  29.196  0.00  0.00    -0.026 C 
ATOM    139  H   UNL     1      -8.119  10.800  29.344  0.00  0.00    +0.029 HD
ATOM    140  H   UNL     1      -9.202  12.052  28.762  0.00  0.00    +0.029 HD
BRANCH 138 143
ATOM    141  C   UNL     1     -11.542   8.370  28.110  0.00  0.00    +0.059 C 
ATOM    142  O   UNL     1     -11.008   9.542  28.738  0.00  0.00    -0.373 OA
ATOM    143  C   UNL     1      -9.778  10.034  28.204  0.00  0.00    +0.061 C 
ATOM    144  C   UNL     1      -8.792   8.890  27.953  0.00  0.00    -0.000 C 
ATOM    145  C   UNL     1      -9.370   7.856  26.978  0.00  0.00    +0.063 C 
ATOM    146  C   UNL     1     -10.874   8.043  26.781  0.00  0.00    -0.000 C 
ATOM    147  H   UNL     1     -11.389   7.539  28.809  0.00  0.00    +0.059 HD
ATOM    148  H   UNL     1      -9.990  10.551  27.261  0.00  0.00    +0.060 HD
ATOM    149  H   UNL     1      -7.837   9.292  27.598  0.00  0.00    +0.032 HD
ATOM    150  H   UNL     1      -8.602   8.379  28.905  0.00  0.00    +0.032 HD
ATOM    151  H   UNL     1      -9.193   6.846  27.374  0.00  0.00    +0.060 HD
ATOM    152  H   UNL     1     -11.302   7.136  26.336  0.00  0.00    +0.032 HD
ATOM    153  H   UNL     1     -11.058   8.845  26.058  0.00  0.00    +0.032 HD
BRANCH 141 154
ATOM    154  C   UNL     1     -13.041   8.578  27.935  0.00  0.00    -0.039 C 
ATOM    155  H   UNL     1     -13.407   8.081  27.031  0.00  0.00    +0.025 HD
ATOM    156  H   UNL     1     -13.588   8.182  28.796  0.00  0.00    +0.025 HD
ATOM    157  H   UNL     1     -13.282   9.644  27.868  0.00  0.00    +0.025 HD
ENDBRANCH 141 154
BRANCH 145 158
ATOM    158  O   UNL     1      -8.754   7.964  25.689  0.00  0.00    -0.380 OA
BRANCH 158 159
ATOM    159  C   UNL     1      -9.524   7.376  24.648  0.00  0.00    +0.037 C 
ATOM    160  H   UNL     1      -9.052   6.428  24.370  0.00  0.00    +0.052 HD
ATOM    161  H   UNL     1     -10.547   7.172  24.974  0.00  0.00    +0.052 HD
ATOM    162  H   UNL     1      -9.533   8.030  23.770  0.00  0.00    +0.052 HD
ENDBRANCH 158 159
ENDBRANCH 145 158
ENDBRANCH 138 143
ENDBRANCH 135 138
ENDBRANCH 129 135
ENDBRANCH 127 129
BRANCH 127 163
ATOM    163  O   UNL     1     -12.331  10.302  31.228  0.00  0.00    -0.391 OA
ATOM    164  H   UNL     1     -12.795  10.099  30.397  0.00  0.00    +0.210 HD
ENDBRANCH 127 163
ENDBRANCH 121 127
ENDBRANCH   1 121
BRANCH  41 165
ATOM    165  O   UNL     1     -14.516  16.833  29.992  0.00  0.00    -0.391 OA
ATOM    166  H   UNL     1     -13.886  17.472  29.620  0.00  0.00    +0.210 HD
ENDBRANCH  41 165
BRANCH  39 167
ATOM    167  O   UNL     1     -10.076  16.517  30.467  0.00  0.00    -0.391 OA
ATOM    168  H   UNL     1     -10.233  16.030  31.295  0.00  0.00    +0.210 HD
ENDBRANCH  39 167
BRANCH  31 169
ATOM    169  O   UNL     1     -14.104  17.106  20.554  0.00  0.00    -0.391 OA
ATOM    170  H   UNL     1     -14.199  17.273  19.598  0.00  0.00    +0.210 HD
ENDBRANCH  31 169
BRANCH  22 171
ATOM    171  C   UNL     1      -4.958  12.369  18.792  0.00  0.00    +0.020 C 
ATOM    172  H   UNL     1      -4.012  12.061  18.328  0.00  0.00    +0.036 HD
BRANCH 171 173
ATOM    173  C   UNL     1      -4.693  12.701  20.276  0.00  0.00    -0.057 C 
ATOM    174  H   UNL     1      -5.619  12.933  20.811  0.00  0.00    +0.023 HD
ATOM    175  H   UNL     1      -4.208  11.869  20.797  0.00  0.00    +0.023 HD
ATOM    176  H   UNL     1      -4.069  13.587  20.398  0.00  0.00    +0.023 HD
ENDBRANCH 171 173
BRANCH 171 177
ATOM    177  C   UNL     1      -5.968  11.187  18.614  0.00  0.00    +0.064 C 
ATOM    178  H   UNL     1      -5.873  10.515  19.477  0.00  0.00    +0.060 HD
BRANCH 177 179
ATOM    179  O   UNL     1      -7.291  11.723  18.634  0.00  0.00    -0.391 OA
ATOM    180  H   UNL     1      -7.815  11.251  19.313  0.00  0.00    +0.210 HD
ENDBRANCH 177 179
BRANCH 177 181
ATOM    181  C   UNL     1      -5.877  10.326  17.313  0.00  0.00    -0.017 C 
ATOM    182  H   UNL     1      -6.716  10.608  16.662  0.00  0.00    +0.032 HD
BRANCH 181 183
ATOM    183  C   UNL     1      -4.591  10.525  16.513  0.00  0.00    -0.060 C 
ATOM    184  H   UNL     1      -3.721  10.256  17.117  0.00  0.00    +0.023 HD
ATOM    185  H   UNL     1      -4.422  11.573  16.248  0.00  0.00    +0.023 HD
ATOM    186  H   UNL     1      -4.598   9.940  15.589  0.00  0.00    +0.023 HD
ENDBRANCH 181 183
BRANCH 181 187
ATOM    187  C   UNL     1      -6.092   8.826  17.679  0.00  0.00    -0.046 C 
ATOM    188  H   UNL     1      -5.113   8.347  17.802  0.00  0.00    +0.027 HD
ATOM    189  H   UNL     1      -6.586   8.317  16.840  0.00  0.00    +0.027 HD
BRANCH 187 190
ATOM    190  C   UNL     1      -6.908   8.583  18.957  0.00  0.00    -0.026 C 
ATOM    191  H   UNL     1      -6.392   7.857  19.595  0.00  0.00    +0.029 HD
ATOM    192  H   UNL     1      -6.974   9.531  19.508  0.00  0.00    +0.029 HD
BRANCH 190 193
ATOM    193  C   UNL     1      -8.335   8.090  18.674  0.00  0.00    +0.061 C 
ATOM    194  O   UNL     1      -8.980   7.823  19.924  0.00  0.00    -0.373 OA
ATOM    195  C   UNL     1     -10.332   7.372  19.804  0.00  0.00    +0.059 C 
ATOM    196  C   UNL     1     -10.421   6.109  18.941  0.00  0.00    -0.000 C 
ATOM    197  C   UNL     1      -9.687   6.240  17.605  0.00  0.00    +0.063 C 
ATOM    198  C   UNL     1      -8.288   6.815  17.827  0.00  0.00    -0.000 C 
ATOM    199  H   UNL     1      -8.871   8.885  18.144  0.00  0.00    +0.060 HD
ATOM    200  H   UNL     1     -10.638   7.090  20.820  0.00  0.00    +0.059 HD
ATOM    201  H   UNL     1     -11.468   5.827  18.801  0.00  0.00    +0.032 HD
ATOM    202  H   UNL     1      -9.939   5.293  19.497  0.00  0.00    +0.032 HD
ATOM    203  H   UNL     1      -9.581   5.250  17.142  0.00  0.00    +0.060 HD
ATOM    204  H   UNL     1      -7.811   7.027  16.864  0.00  0.00    +0.032 HD
ATOM    205  H   UNL     1      -7.685   6.057  18.343  0.00  0.00    +0.032 HD
BRANCH 195 206
ATOM    206  C   UNL     1     -11.273   8.495  19.373  0.00  0.00    -0.039 C 
ATOM    207  H   UNL     1     -11.445   9.183  20.209  0.00  0.00    +0.025 HD
ATOM    208  H   UNL     1     -12.238   8.093  19.051  0.00  0.00    +0.025 HD
ATOM    209  H   UNL     1     -10.870   9.100  18.557  0.00  0.00    +0.025 HD
ENDBRANCH 195 206
BRANCH 197 210
ATOM    210  O   UNL     1     -10.380   7.101  16.697  0.00  0.00    -0.380 OA
BRANCH 210 211
ATOM    211  C   UNL     1      -9.872   7.054  15.370  0.00  0.00    +0.037 C 
ATOM    212  H   UNL     1      -9.171   7.882  15.244  0.00  0.00    +0.052 HD
ATOM    213  H   UNL     1      -9.336   6.116  15.201  0.00  0.00    +0.052 HD
ATOM    214  H   UNL     1     -10.673   7.166  14.634  0.00  0.00    +0.052 HD
ENDBRANCH 210 211
ENDBRANCH 197 210
ENDBRANCH 190 193
ENDBRANCH 187 190
ENDBRANCH 181 187
ENDBRANCH 177 181
ENDBRANCH 171 177
ENDBRANCH  22 171
BRANCH  20 215
ATOM    215  O   UNL     1      -5.762  16.960  18.539  0.00  0.00    -0.391 OA
ATOM    216  H   UNL     1      -6.216  17.570  19.143  0.00  0.00    +0.210 HD
ENDBRANCH  20 215
BRANCH  18 217
ATOM    217  O   UNL     1      -4.616  15.633  22.211  0.00  0.00    -0.391 OA
ATOM    218  H   UNL     1      -4.546  14.986  21.485  0.00  0.00    +0.210 HD
ENDBRANCH  18 217
BRANCH  10 219
ATOM    219  O   UNL     1      -9.286  11.240  20.475  0.00  0.00    -0.391 OA
ATOM    220  H   UNL     1      -8.468  11.570  20.885  0.00  0.00    +0.210 HD
ENDBRANCH  10 219
BRANCH  37 221
ATOM    221  O   UNL     1     -12.331  19.404  27.354  0.00  0.00    -0.379 OA
BRANCH 221 222
ATOM    222  C   UNL     1     -13.591  20.060  27.372  0.00  0.00    +0.037 C 
ATOM    223  H   UNL     1     -13.830  20.366  26.350  0.00  0.00    +0.052 HD
ATOM    224  H   UNL     1     -14.368  19.372  27.714  0.00  0.00    +0.052 HD
ATOM    225  H   UNL     1     -13.573  20.951  28.007  0.00  0.00    +0.052 HD
ENDBRANCH 221 222
ENDBRANCH  37 221
BRANCH  16 226
ATOM    226  O   UNL     1      -7.585  18.510  23.157  0.00  0.00    -0.379 OA
BRANCH 226 227
ATOM    227  C   UNL     1      -7.557  18.894  24.526  0.00  0.00    +0.037 C 
ATOM    228  H   UNL     1      -7.364  18.004  25.131  0.00  0.00    +0.052 HD
ATOM    229  H   UNL     1      -6.756  19.617  24.707  0.00  0.00    +0.052 HD
ATOM    230  H   UNL     1      -8.519  19.319  24.829  0.00  0.00    +0.052 HD
ENDBRANCH 226 227
ENDBRANCH  16 226
TORSDOF 40
ENDMDL
MODEL 7
REMARK VINA RESULT:      -5.0     10.655     21.341
REMARK  Name = Swinholide A_conf3
REMARK  40 active torsions:
REMARK  status: ('A' for Active; 'I' for Inactive)
REMARK    1  A    between atoms: C_1  and  C_2
REMARK    2  A    between atoms: C_4  and  C_10
REMARK    3  A    between atoms: C_6  and  O_8
REMARK    4  A    between atoms: O_8  and  C_9
REMARK    5  A    between atoms: C_10  and  C_11
REMARK    6  A    between atoms: C_11  and  C_12
REMARK    7  A    between atoms: C_12  and  C_13
REMARK    8  A    between atoms: C_12  and  C_98
REMARK    9  A    between atoms: C_13  and  O_14
REMARK   10  A    between atoms: C_13  and  C_15
REMARK   11  A    between atoms: C_15  and  C_16
REMARK   12  A    between atoms: C_15  and  C_97
REMARK   13  A    between atoms: C_22  and  C_96
REMARK   14  A    between atoms: C_25  and  O_95
REMARK   15  A    between atoms: C_31  and  O_90
REMARK   16  A    between atoms: C_32  and  C_89
REMARK   17  A    between atoms: C_33  and  O_88
REMARK   18  A    between atoms: C_35  and  O_87
REMARK   19  A    between atoms: C_36  and  C_86
REMARK   20  A    between atoms: C_37  and  C_69
REMARK   21  A    between atoms: C_43  and  C_68
REMARK   22  A    between atoms: C_46  and  O_67
REMARK   23  A    between atoms: C_52  and  O_62
REMARK   24  A    between atoms: C_53  and  C_61
REMARK   25  A    between atoms: C_54  and  O_60
REMARK   26  A    between atoms: C_56  and  O_59
REMARK   27  A    between atoms: C_57  and  C_58
REMARK   28  A    between atoms: O_62  and  C_63
REMARK   29  A    between atoms: C_69  and  C_70
REMARK   30  A    between atoms: C_69  and  C_85
REMARK   31  A    between atoms: C_70  and  O_71
REMARK   32  A    between atoms: C_70  and  C_72
REMARK   33  A    between atoms: C_72  and  C_73
REMARK   34  A    between atoms: C_72  and  C_84
REMARK   35  A    between atoms: C_73  and  C_74
REMARK   36  A    between atoms: C_74  and  C_75
REMARK   37  A    between atoms: C_77  and  C_83
REMARK   38  A    between atoms: C_79  and  O_81
REMARK   39  A    between atoms: O_81  and  C_82
REMARK   40  A    between atoms: O_90  and  C_91
REMARK                            x       y       z     vdW  Elec       q    Type
REMARK                         _______ _______ _______ _____ _____    ______ ____
ROOT
ATOM      1  C   UNL     1      -7.701   8.744   3.623  0.00  0.00    +0.113 C 
ATOM      2  O   UNL     1      -8.191   8.735   4.990  0.00  0.00    -0.458 OA
ATOM      3  C   UNL     1      -7.820   7.646   5.716  0.00  0.00    +0.332 C 
ATOM      4  O   UNL     1      -7.048   6.769   5.354  0.00  0.00    -0.246 OA
ATOM      5  C   UNL     1      -8.461   7.561   7.032  0.00  0.00    +0.023 C 
ATOM      6  C   UNL     1      -8.957   8.577   7.753  0.00  0.00    -0.052 C 
ATOM      7  C   UNL     1      -9.456   8.376   9.110  0.00  0.00    -0.054 C 
ATOM      8  C   UNL     1      -8.753   7.625   9.983  0.00  0.00    -0.079 C 
ATOM      9  C   UNL     1      -9.120   7.226  11.381  0.00  0.00    -0.008 C 
ATOM     10  C   UNL     1     -10.138   6.074  11.535  0.00  0.00    +0.061 C 
ATOM     11  C   UNL     1     -10.318   5.111  10.355  0.00  0.00    +0.003 C 
ATOM     12  C   UNL     1      -9.306   3.973  10.144  0.00  0.00    +0.080 C 
ATOM     13  O   UNL     1      -9.781   3.312   8.953  0.00  0.00    -0.369 OA
ATOM     14  C   UNL     1      -8.847   2.432   8.303  0.00  0.00    +0.065 C 
ATOM     15  C   UNL     1      -8.593   1.195   9.182  0.00  0.00    +0.000 C 
ATOM     16  C   UNL     1      -7.843   0.035   8.497  0.00  0.00    +0.066 C 
ATOM     17  C   UNL     1      -7.825  -1.212   9.428  0.00  0.00    +0.009 C 
ATOM     18  C   UNL     1      -6.742  -1.185  10.547  0.00  0.00    +0.063 C 
ATOM     19  C   UNL     1      -7.229  -1.788  11.886  0.00  0.00    -0.000 C 
ATOM     20  C   UNL     1      -8.380  -0.972  12.518  0.00  0.00    +0.064 C 
ATOM     21  C   UNL     1      -8.206  -0.743  14.044  0.00  0.00    +0.020 C 
ATOM     22  C   UNL     1      -8.864   0.583  14.571  0.00  0.00    +0.113 C 
ATOM     23  O   UNL     1      -9.766   1.153  13.605  0.00  0.00    -0.458 OA
ATOM     24  C   UNL     1     -11.045   0.703  13.618  0.00  0.00    +0.332 C 
ATOM     25  O   UNL     1     -11.576   0.036  14.490  0.00  0.00    -0.246 OA
ATOM     26  C   UNL     1     -11.687   1.149  12.365  0.00  0.00    +0.023 C 
ATOM     27  C   UNL     1     -12.950   0.789  12.092  0.00  0.00    -0.052 C 
ATOM     28  C   UNL     1     -13.668   1.130  10.871  0.00  0.00    -0.054 C 
ATOM     29  C   UNL     1     -13.081   1.039   9.660  0.00  0.00    -0.079 C 
ATOM     30  C   UNL     1     -13.719   1.299   8.321  0.00  0.00    -0.008 C 
ATOM     31  C   UNL     1     -13.537   2.759   7.863  0.00  0.00    +0.061 C 
ATOM     32  C   UNL     1     -12.494   2.890   6.743  0.00  0.00    +0.003 C 
ATOM     33  C   UNL     1     -12.076   4.347   6.473  0.00  0.00    +0.080 C 
ATOM     34  O   UNL     1     -10.806   4.383   5.790  0.00  0.00    -0.369 OA
ATOM     35  C   UNL     1     -10.886   4.255   4.357  0.00  0.00    +0.065 C 
ATOM     36  C   UNL     1      -9.433   4.227   3.838  0.00  0.00    +0.000 C 
ATOM     37  C   UNL     1      -9.286   4.159   2.303  0.00  0.00    +0.066 C 
ATOM     38  C   UNL     1      -7.796   4.187   1.847  0.00  0.00    +0.009 C 
ATOM     39  C   UNL     1      -6.998   5.472   2.207  0.00  0.00    +0.063 C 
ATOM     40  C   UNL     1      -7.054   6.711   1.288  0.00  0.00    -0.000 C 
ATOM     41  C   UNL     1      -8.289   7.622   1.331  0.00  0.00    +0.064 C 
ATOM     42  C   UNL     1      -8.779   8.050   2.733  0.00  0.00    +0.020 C 
ATOM     43  C   UNL     1     -11.673   5.448   3.794  0.00  0.00    -0.008 C 
ATOM     44  C   UNL     1     -12.957   5.662   4.525  0.00  0.00    -0.083 C 
ATOM     45  C   UNL     1     -13.128   5.156   5.752  0.00  0.00    -0.059 C 
ATOM     46  C   UNL     1      -7.600   3.223   7.883  0.00  0.00    -0.008 C 
ATOM     47  C   UNL     1      -7.073   4.063   9.001  0.00  0.00    -0.083 C 
ATOM     48  C   UNL     1      -7.863   4.389  10.034  0.00  0.00    -0.059 C 
ATOM     49  H   UNL     1      -6.807   8.112   3.579  0.00  0.00    +0.074 HD
ATOM     50  H   UNL     1      -8.437   6.552   7.434  0.00  0.00    +0.069 HD
ATOM     51  H   UNL     1      -8.994   9.587   7.353  0.00  0.00    +0.062 HD
ATOM     52  H   UNL     1      -7.793   7.221   9.661  0.00  0.00    +0.058 HD
ATOM     53  H   UNL     1      -9.490   8.102  11.930  0.00  0.00    +0.033 HD
ATOM     54  H   UNL     1      -8.192   6.964  11.905  0.00  0.00    +0.033 HD
ATOM     55  H   UNL     1     -11.117   6.544  11.704  0.00  0.00    +0.060 HD
ATOM     56  H   UNL     1     -10.455   5.667   9.419  0.00  0.00    +0.032 HD
ATOM     57  H   UNL     1     -11.291   4.613  10.498  0.00  0.00    +0.032 HD
ATOM     58  H   UNL     1      -9.398   3.266  10.975  0.00  0.00    +0.064 HD
ATOM     59  H   UNL     1      -9.349   2.102   7.387  0.00  0.00    +0.060 HD
ATOM     60  H   UNL     1      -9.577   0.836   9.510  0.00  0.00    +0.032 HD
ATOM     61  H   UNL     1      -8.076   1.492  10.094  0.00  0.00    +0.032 HD
ATOM     62  H   UNL     1      -6.816   0.332   8.249  0.00  0.00    +0.060 HD
ATOM     63  H   UNL     1      -8.819  -1.273   9.887  0.00  0.00    +0.035 HD
ATOM     64  H   UNL     1      -5.882  -1.777  10.207  0.00  0.00    +0.060 HD
ATOM     65  H   UNL     1      -6.366  -1.789  12.563  0.00  0.00    +0.032 HD
ATOM     66  H   UNL     1      -7.530  -2.831  11.733  0.00  0.00    +0.032 HD
ATOM     67  H   UNL     1      -8.425  -0.007  12.017  0.00  0.00    +0.060 HD
ATOM     68  H   UNL     1      -7.132  -0.678  14.253  0.00  0.00    +0.036 HD
ATOM     69  H   UNL     1      -9.447   0.363  15.476  0.00  0.00    +0.074 HD
ATOM     70  H   UNL     1     -11.084   1.727  11.679  0.00  0.00    +0.069 HD
ATOM     71  H   UNL     1     -13.508   0.199  12.821  0.00  0.00    +0.062 HD
ATOM     72  H   UNL     1     -12.039   0.725   9.595  0.00  0.00    +0.058 HD
ATOM     73  H   UNL     1     -13.272   0.606   7.594  0.00  0.00    +0.033 HD
ATOM     74  H   UNL     1     -14.779   1.023   8.350  0.00  0.00    +0.033 HD
ATOM     75  H   UNL     1     -13.247   3.394   8.709  0.00  0.00    +0.060 HD
ATOM     76  H   UNL     1     -11.602   2.315   7.009  0.00  0.00    +0.032 HD
ATOM     77  H   UNL     1     -12.883   2.443   5.818  0.00  0.00    +0.032 HD
ATOM     78  H   UNL     1     -11.887   4.837   7.436  0.00  0.00    +0.064 HD
ATOM     79  H   UNL     1     -11.381   3.307   4.112  0.00  0.00    +0.060 HD
ATOM     80  H   UNL     1      -8.914   5.097   4.246  0.00  0.00    +0.032 HD
ATOM     81  H   UNL     1      -8.937   3.355   4.289  0.00  0.00    +0.032 HD
ATOM     82  H   UNL     1      -9.829   4.986   1.844  0.00  0.00    +0.060 HD
ATOM     83  H   UNL     1      -7.310   3.355   2.381  0.00  0.00    +0.035 HD
ATOM     84  H   UNL     1      -7.218   5.772   3.226  0.00  0.00    +0.060 HD
ATOM     85  H   UNL     1      -6.884   6.392   0.251  0.00  0.00    +0.032 HD
ATOM     86  H   UNL     1      -6.179   7.335   1.520  0.00  0.00    +0.032 HD
ATOM     87  H   UNL     1      -8.053   8.521   0.748  0.00  0.00    +0.060 HD
ATOM     88  H   UNL     1      -9.048   7.129   3.259  0.00  0.00    +0.036 HD
ATOM     89  H   UNL     1     -11.889   5.303   2.731  0.00  0.00    +0.033 HD
ATOM     90  H   UNL     1     -11.091   6.365   3.900  0.00  0.00    +0.033 HD
ATOM     91  H   UNL     1     -13.738   6.253   4.056  0.00  0.00    +0.057 HD
ATOM     92  H   UNL     1     -14.069   5.324   6.267  0.00  0.00    +0.059 HD
ATOM     93  H   UNL     1      -7.860   3.898   7.058  0.00  0.00    +0.033 HD
ATOM     94  H   UNL     1      -6.820   2.552   7.515  0.00  0.00    +0.033 HD
ATOM     95  H   UNL     1      -6.036   4.385   8.968  0.00  0.00    +0.057 HD
ATOM     96  H   UNL     1      -7.439   4.930  10.872  0.00  0.00    +0.059 HD
ENDROOT
BRANCH  28  97
ATOM     97  C   UNL     1     -15.100   1.533  11.105  0.00  0.00    -0.040 C 
ATOM     98  H   UNL     1     -15.729   0.707  11.447  0.00  0.00    +0.028 HD
ATOM     99  H   UNL     1     -15.158   2.329  11.856  0.00  0.00    +0.028 HD
ATOM    100  H   UNL     1     -15.546   1.901  10.174  0.00  0.00    +0.028 HD
ENDBRANCH  28  97
BRANCH  21 101
ATOM    101  C   UNL     1      -8.693  -1.937  14.878  0.00  0.00    -0.057 C 
ATOM    102  H   UNL     1      -9.765  -2.115  14.751  0.00  0.00    +0.023 HD
ATOM    103  H   UNL     1      -8.513  -1.760  15.944  0.00  0.00    +0.023 HD
ATOM    104  H   UNL     1      -8.158  -2.852  14.604  0.00  0.00    +0.023 HD
ENDBRANCH  21 101
BRANCH  42 105
ATOM    105  C   UNL     1     -10.117   8.805   2.654  0.00  0.00    -0.057 C 
ATOM    106  H   UNL     1     -10.917   8.213   3.111  0.00  0.00    +0.023 HD
ATOM    107  H   UNL     1     -10.078   9.761   3.187  0.00  0.00    +0.023 HD
ATOM    108  H   UNL     1     -10.428   8.980   1.623  0.00  0.00    +0.023 HD
ENDBRANCH  42 105
BRANCH  17 109
ATOM    109  C   UNL     1      -7.690  -2.534   8.651  0.00  0.00    -0.058 C 
ATOM    110  H   UNL     1      -8.007  -3.386   9.258  0.00  0.00    +0.023 HD
ATOM    111  H   UNL     1      -6.657  -2.706   8.329  0.00  0.00    +0.023 HD
ATOM    112  H   UNL     1      -8.304  -2.519   7.743  0.00  0.00    +0.023 HD
ENDBRANCH  17 109
BRANCH  38 113
ATOM    113  C   UNL     1      -7.631   3.826   0.362  0.00  0.00    -0.058 C 
ATOM    114  H   UNL     1      -6.577   3.747   0.083  0.00  0.00    +0.023 HD
ATOM    115  H   UNL     1      -8.120   2.872   0.132  0.00  0.00    +0.023 HD
ATOM    116  H   UNL     1      -8.097   4.580  -0.280  0.00  0.00    +0.023 HD
ENDBRANCH  38 113
BRANCH   7 117
ATOM    117  C   UNL     1     -10.770   9.032   9.418  0.00  0.00    -0.040 C 
ATOM    118  H   UNL     1     -10.605  10.044   9.795  0.00  0.00    +0.028 HD
ATOM    119  H   UNL     1     -11.343   8.490  10.174  0.00  0.00    +0.028 HD
ATOM    120  H   UNL     1     -11.396   9.094   8.521  0.00  0.00    +0.028 HD
ENDBRANCH   7 117
BRANCH   1 121
ATOM    121  C   UNL     1      -7.168  10.153   3.223  0.00  0.00    +0.020 C 
ATOM    122  H   UNL     1      -7.230  10.204   2.129  0.00  0.00    +0.036 HD
BRANCH 121 123
ATOM    123  C   UNL     1      -7.975  11.345   3.732  0.00  0.00    -0.057 C 
ATOM    124  H   UNL     1      -8.147  11.294   4.809  0.00  0.00    +0.023 HD
ATOM    125  H   UNL     1      -7.470  12.287   3.497  0.00  0.00    +0.023 HD
ATOM    126  H   UNL     1      -8.938  11.417   3.224  0.00  0.00    +0.023 HD
ENDBRANCH 121 123
BRANCH 121 127
ATOM    127  C   UNL     1      -5.652  10.289   3.589  0.00  0.00    +0.064 C 
ATOM    128  H   UNL     1      -5.582  11.080   4.346  0.00  0.00    +0.060 HD
BRANCH 127 129
ATOM    129  C   UNL     1      -4.659  10.604   2.421  0.00  0.00    -0.017 C 
ATOM    130  H   UNL     1      -4.064   9.711   2.214  0.00  0.00    +0.032 HD
BRANCH 129 131
ATOM    131  C   UNL     1      -5.469  10.892   1.145  0.00  0.00    -0.060 C 
ATOM    132  H   UNL     1      -5.481  11.963   0.916  0.00  0.00    +0.023 HD
ATOM    133  H   UNL     1      -6.507  10.560   1.258  0.00  0.00    +0.023 HD
ATOM    134  H   UNL     1      -5.056  10.362   0.282  0.00  0.00    +0.023 HD
ENDBRANCH 129 131
BRANCH 129 135
ATOM    135  C   UNL     1      -3.705  11.787   2.709  0.00  0.00    -0.046 C 
ATOM    136  H   UNL     1      -3.798  12.549   1.931  0.00  0.00    +0.027 HD
ATOM    137  H   UNL     1      -2.665  11.437   2.658  0.00  0.00    +0.027 HD
BRANCH 135 138
ATOM    138  C   UNL     1      -3.882  12.484   4.070  0.00  0.00    -0.026 C 
ATOM    139  H   UNL     1      -2.871  12.651   4.467  0.00  0.00    +0.029 HD
ATOM    140  H   UNL     1      -4.380  11.810   4.777  0.00  0.00    +0.029 HD
BRANCH 138 143
ATOM    141  C   UNL     1      -6.817  14.748   4.489  0.00  0.00    +0.059 C 
ATOM    142  O   UNL     1      -5.868  13.695   4.701  0.00  0.00    -0.373 OA
ATOM    143  C   UNL     1      -4.617  13.834   4.027  0.00  0.00    +0.061 C 
ATOM    144  C   UNL     1      -4.820  14.281   2.577  0.00  0.00    -0.000 C 
ATOM    145  C   UNL     1      -5.567  15.619   2.503  0.00  0.00    +0.063 C 
ATOM    146  C   UNL     1      -6.207  15.985   3.842  0.00  0.00    -0.000 C 
ATOM    147  H   UNL     1      -7.598  14.342   3.836  0.00  0.00    +0.059 HD
ATOM    148  H   UNL     1      -4.014  14.578   4.560  0.00  0.00    +0.060 HD
ATOM    149  H   UNL     1      -3.856  14.326   2.061  0.00  0.00    +0.032 HD
ATOM    150  H   UNL     1      -5.435  13.529   2.065  0.00  0.00    +0.032 HD
ATOM    151  H   UNL     1      -6.360  15.551   1.745  0.00  0.00    +0.060 HD
ATOM    152  H   UNL     1      -6.964  16.764   3.687  0.00  0.00    +0.032 HD
ATOM    153  H   UNL     1      -5.456  16.427   4.505  0.00  0.00    +0.032 HD
BRANCH 141 154
ATOM    154  C   UNL     1      -7.445  15.086   5.834  0.00  0.00    -0.039 C 
ATOM    155  H   UNL     1      -7.677  14.180   6.403  0.00  0.00    +0.025 HD
ATOM    156  H   UNL     1      -6.770  15.708   6.430  0.00  0.00    +0.025 HD
ATOM    157  H   UNL     1      -8.369  15.658   5.700  0.00  0.00    +0.025 HD
ENDBRANCH 141 154
BRANCH 145 158
ATOM    158  O   UNL     1      -4.678  16.685   2.150  0.00  0.00    -0.380 OA
BRANCH 158 159
ATOM    159  C   UNL     1      -4.847  17.847   2.952  0.00  0.00    +0.037 C 
ATOM    160  H   UNL     1      -5.591  18.488   2.469  0.00  0.00    +0.052 HD
ATOM    161  H   UNL     1      -5.207  17.593   3.953  0.00  0.00    +0.052 HD
ATOM    162  H   UNL     1      -3.904  18.398   3.021  0.00  0.00    +0.052 HD
ENDBRANCH 158 159
ENDBRANCH 145 158
ENDBRANCH 138 143
ENDBRANCH 135 138
ENDBRANCH 129 135
ENDBRANCH 127 129
BRANCH 127 163
ATOM    163  O   UNL     1      -5.261   9.086   4.263  0.00  0.00    -0.391 OA
ATOM    164  H   UNL     1      -4.307   9.156   4.445  0.00  0.00    +0.210 HD
ENDBRANCH 127 163
ENDBRANCH 121 127
ENDBRANCH   1 121
BRANCH  41 165
ATOM    165  O   UNL     1      -9.346   6.957   0.633  0.00  0.00    -0.391 OA
ATOM    166  H   UNL     1      -9.830   6.419   1.281  0.00  0.00    +0.210 HD
ENDBRANCH  41 165
BRANCH  39 167
ATOM    167  O   UNL     1      -5.600   5.098   2.228  0.00  0.00    -0.391 OA
ATOM    168  H   UNL     1      -5.459   4.507   1.469  0.00  0.00    +0.210 HD
ENDBRANCH  39 167
BRANCH  31 169
ATOM    169  O   UNL     1     -14.802   3.245   7.400  0.00  0.00    -0.391 OA
ATOM    170  H   UNL     1     -15.472   2.579   7.638  0.00  0.00    +0.210 HD
ENDBRANCH  31 169
BRANCH  22 171
ATOM    171  C   UNL     1      -7.805   1.671  14.999  0.00  0.00    +0.020 C 
ATOM    172  H   UNL     1      -6.915   1.117  15.325  0.00  0.00    +0.036 HD
BRANCH 171 173
ATOM    173  C   UNL     1      -7.445   2.481  13.736  0.00  0.00    -0.057 C 
ATOM    174  H   UNL     1      -8.318   2.638  13.094  0.00  0.00    +0.023 HD
ATOM    175  H   UNL     1      -7.039   3.465  13.989  0.00  0.00    +0.023 HD
ATOM    176  H   UNL     1      -6.721   1.967  13.104  0.00  0.00    +0.023 HD
ENDBRANCH 171 173
BRANCH 171 177
ATOM    177  C   UNL     1      -8.246   2.583  16.192  0.00  0.00    +0.064 C 
ATOM    178  H   UNL     1      -8.777   1.964  16.925  0.00  0.00    +0.060 HD
BRANCH 177 179
ATOM    179  O   UNL     1      -7.070   3.086  16.827  0.00  0.00    -0.391 OA
ATOM    180  H   UNL     1      -6.981   2.666  17.708  0.00  0.00    +0.210 HD
ENDBRANCH 177 179
BRANCH 177 181
ATOM    181  C   UNL     1      -9.128   3.835  15.878  0.00  0.00    -0.017 C 
ATOM    182  H   UNL     1      -8.934   4.133  14.838  0.00  0.00    +0.032 HD
BRANCH 181 183
ATOM    183  C   UNL     1     -10.631   3.599  16.013  0.00  0.00    -0.060 C 
ATOM    184  H   UNL     1     -10.976   2.891  15.254  0.00  0.00    +0.023 HD
ATOM    185  H   UNL     1     -11.214   4.504  15.823  0.00  0.00    +0.023 HD
ATOM    186  H   UNL     1     -10.891   3.231  17.009  0.00  0.00    +0.023 HD
ENDBRANCH 181 183
BRANCH 181 187
ATOM    187  C   UNL     1      -8.657   5.025  16.770  0.00  0.00    -0.046 C 
ATOM    188  H   UNL     1      -7.806   4.697  17.380  0.00  0.00    +0.027 HD
ATOM    189  H   UNL     1      -9.460   5.290  17.470  0.00  0.00    +0.027 HD
BRANCH 187 190
ATOM    190  C   UNL     1      -8.236   6.284  15.998  0.00  0.00    -0.026 C 
ATOM    191  H   UNL     1      -7.531   6.014  15.203  0.00  0.00    +0.029 HD
ATOM    192  H   UNL     1      -9.130   6.713  15.526  0.00  0.00    +0.029 HD
BRANCH 190 193
ATOM    193  C   UNL     1      -7.603   7.356  16.897  0.00  0.00    +0.061 C 
ATOM    194  O   UNL     1      -8.406   7.494  18.074  0.00  0.00    -0.373 OA
ATOM    195  C   UNL     1      -7.914   8.455  19.014  0.00  0.00    +0.059 C 
ATOM    196  C   UNL     1      -7.769   9.837  18.368  0.00  0.00    -0.000 C 
ATOM    197  C   UNL     1      -7.000   9.807  17.046  0.00  0.00    +0.063 C 
ATOM    198  C   UNL     1      -7.537   8.691  16.151  0.00  0.00    -0.000 C 
ATOM    199  H   UNL     1      -6.598   7.019  17.174  0.00  0.00    +0.060 HD
ATOM    200  H   UNL     1      -8.694   8.538  19.783  0.00  0.00    +0.059 HD
ATOM    201  H   UNL     1      -7.322  10.535  19.081  0.00  0.00    +0.032 HD
ATOM    202  H   UNL     1      -8.780  10.207  18.146  0.00  0.00    +0.032 HD
ATOM    203  H   UNL     1      -7.130  10.761  16.520  0.00  0.00    +0.060 HD
ATOM    204  H   UNL     1      -6.906   8.586  15.260  0.00  0.00    +0.032 HD
ATOM    205  H   UNL     1      -8.544   8.974  15.819  0.00  0.00    +0.032 HD
BRANCH 195 206
ATOM    206  C   UNL     1      -6.660   7.961  19.731  0.00  0.00    -0.039 C 
ATOM    207  H   UNL     1      -5.875   7.732  19.001  0.00  0.00    +0.025 HD
ATOM    208  H   UNL     1      -6.872   7.056  20.308  0.00  0.00    +0.025 HD
ATOM    209  H   UNL     1      -6.237   8.704  20.412  0.00  0.00    +0.025 HD
ENDBRANCH 195 206
BRANCH 197 210
ATOM    210  O   UNL     1      -5.602   9.579  17.247  0.00  0.00    -0.380 OA
BRANCH 210 211
ATOM    211  C   UNL     1      -4.821   9.776  16.077  0.00  0.00    +0.037 C 
ATOM    212  H   UNL     1      -5.482  10.121  15.279  0.00  0.00    +0.052 HD
ATOM    213  H   UNL     1      -4.060  10.543  16.252  0.00  0.00    +0.052 HD
ATOM    214  H   UNL     1      -4.347   8.845  15.753  0.00  0.00    +0.052 HD
ENDBRANCH 210 211
ENDBRANCH 197 210
ENDBRANCH 190 193
ENDBRANCH 187 190
ENDBRANCH 181 187
ENDBRANCH 177 181
ENDBRANCH 171 177
ENDBRANCH  22 171
BRANCH  20 215
ATOM    215  O   UNL     1      -9.623  -1.612  12.223  0.00  0.00    -0.391 OA
ATOM    216  H   UNL     1     -10.292  -0.936  12.024  0.00  0.00    +0.210 HD
ENDBRANCH  20 215
BRANCH  18 217
ATOM    217  O   UNL     1      -6.225   0.123  10.808  0.00  0.00    -0.391 OA
ATOM    218  H   UNL     1      -5.370   0.003  11.263  0.00  0.00    +0.210 HD
ENDBRANCH  18 217
BRANCH  10 219
ATOM    219  O   UNL     1      -9.830   5.358  12.733  0.00  0.00    -0.391 OA
ATOM    220  H   UNL     1      -8.873   5.427  12.893  0.00  0.00    +0.210 HD
ENDBRANCH  10 219
BRANCH  37 221
ATOM    221  O   UNL     1      -9.863   2.900   1.907  0.00  0.00    -0.379 OA
BRANCH 221 222
ATOM    222  C   UNL     1     -10.963   3.037   1.016  0.00  0.00    +0.037 C 
ATOM    223  H   UNL     1     -10.577   3.016  -0.006  0.00  0.00    +0.052 HD
ATOM    224  H   UNL     1     -11.653   2.198   1.139  0.00  0.00    +0.052 HD
ATOM    225  H   UNL     1     -11.491   3.982   1.171  0.00  0.00    +0.052 HD
ENDBRANCH 221 222
ENDBRANCH  37 221
BRANCH  16 226
ATOM    226  O   UNL     1      -8.577  -0.287   7.303  0.00  0.00    -0.379 OA
BRANCH 226 227
ATOM    227  C   UNL     1      -7.821  -0.111   6.111  0.00  0.00    +0.037 C 
ATOM    228  H   UNL     1      -8.509   0.146   5.301  0.00  0.00    +0.052 HD
ATOM    229  H   UNL     1      -7.102   0.706   6.228  0.00  0.00    +0.052 HD
ATOM    230  H   UNL     1      -7.298  -1.035   5.844  0.00  0.00    +0.052 HD
ENDBRANCH 226 227
ENDBRANCH  16 226
TORSDOF 40
ENDMDL
MODEL 8
REMARK VINA RESULT:      -5.0      4.826      8.778
REMARK  Name = Swinholide A_conf3
REMARK  40 active torsions:
REMARK  status: ('A' for Active; 'I' for Inactive)
REMARK    1  A    between atoms: C_1  and  C_2
REMARK    2  A    between atoms: C_4  and  C_10
REMARK    3  A    between atoms: C_6  and  O_8
REMARK    4  A    between atoms: O_8  and  C_9
REMARK    5  A    between atoms: C_10  and  C_11
REMARK    6  A    between atoms: C_11  and  C_12
REMARK    7  A    between atoms: C_12  and  C_13
REMARK    8  A    between atoms: C_12  and  C_98
REMARK    9  A    between atoms: C_13  and  O_14
REMARK   10  A    between atoms: C_13  and  C_15
REMARK   11  A    between atoms: C_15  and  C_16
REMARK   12  A    between atoms: C_15  and  C_97
REMARK   13  A    between atoms: C_22  and  C_96
REMARK   14  A    between atoms: C_25  and  O_95
REMARK   15  A    between atoms: C_31  and  O_90
REMARK   16  A    between atoms: C_32  and  C_89
REMARK   17  A    between atoms: C_33  and  O_88
REMARK   18  A    between atoms: C_35  and  O_87
REMARK   19  A    between atoms: C_36  and  C_86
REMARK   20  A    between atoms: C_37  and  C_69
REMARK   21  A    between atoms: C_43  and  C_68
REMARK   22  A    between atoms: C_46  and  O_67
REMARK   23  A    between atoms: C_52  and  O_62
REMARK   24  A    between atoms: C_53  and  C_61
REMARK   25  A    between atoms: C_54  and  O_60
REMARK   26  A    between atoms: C_56  and  O_59
REMARK   27  A    between atoms: C_57  and  C_58
REMARK   28  A    between atoms: O_62  and  C_63
REMARK   29  A    between atoms: C_69  and  C_70
REMARK   30  A    between atoms: C_69  and  C_85
REMARK   31  A    between atoms: C_70  and  O_71
REMARK   32  A    between atoms: C_70  and  C_72
REMARK   33  A    between atoms: C_72  and  C_73
REMARK   34  A    between atoms: C_72  and  C_84
REMARK   35  A    between atoms: C_73  and  C_74
REMARK   36  A    between atoms: C_74  and  C_75
REMARK   37  A    between atoms: C_77  and  C_83
REMARK   38  A    between atoms: C_79  and  O_81
REMARK   39  A    between atoms: O_81  and  C_82
REMARK   40  A    between atoms: O_90  and  C_91
REMARK                            x       y       z     vdW  Elec       q    Type
REMARK                         _______ _______ _______ _____ _____    ______ ____
ROOT
ATOM      1  C   UNL     1      -9.919  19.120  30.056  0.00  0.00    +0.113 C 
ATOM      2  O   UNL     1      -9.776  17.938  29.225  0.00  0.00    -0.458 OA
ATOM      3  C   UNL     1      -9.015  18.116  28.112  0.00  0.00    +0.332 C 
ATOM      4  O   UNL     1      -8.380  19.123  27.830  0.00  0.00    -0.246 OA
ATOM      5  C   UNL     1      -9.021  16.972  27.196  0.00  0.00    +0.023 C 
ATOM      6  C   UNL     1      -9.270  15.692  27.508  0.00  0.00    -0.052 C 
ATOM      7  C   UNL     1      -9.119  14.625  26.523  0.00  0.00    -0.054 C 
ATOM      8  C   UNL     1      -8.034  14.595  25.722  0.00  0.00    -0.079 C 
ATOM      9  C   UNL     1      -7.725  13.649  24.601  0.00  0.00    -0.008 C 
ATOM     10  C   UNL     1      -8.448  13.895  23.258  0.00  0.00    +0.061 C 
ATOM     11  C   UNL     1      -9.007  15.298  22.990  0.00  0.00    +0.003 C 
ATOM     12  C   UNL     1      -8.063  16.409  22.501  0.00  0.00    +0.080 C 
ATOM     13  O   UNL     1      -8.925  17.561  22.386  0.00  0.00    -0.369 OA
ATOM     14  C   UNL     1      -8.266  18.837  22.294  0.00  0.00    +0.065 C 
ATOM     15  C   UNL     1      -7.529  18.950  20.948  0.00  0.00    +0.000 C 
ATOM     16  C   UNL     1      -7.020  20.359  20.586  0.00  0.00    +0.066 C 
ATOM     17  C   UNL     1      -6.471  20.370  19.129  0.00  0.00    +0.009 C 
ATOM     18  C   UNL     1      -5.026  19.816  18.964  0.00  0.00    +0.063 C 
ATOM     19  C   UNL     1      -4.826  18.996  17.667  0.00  0.00    -0.000 C 
ATOM     20  C   UNL     1      -5.680  17.708  17.644  0.00  0.00    +0.064 C 
ATOM     21  C   UNL     1      -4.899  16.461  17.148  0.00  0.00    +0.020 C 
ATOM     22  C   UNL     1      -5.411  15.104  17.752  0.00  0.00    +0.113 C 
ATOM     23  O   UNL     1      -6.695  15.251  18.387  0.00  0.00    -0.458 OA
ATOM     24  C   UNL     1      -7.789  15.125  17.596  0.00  0.00    +0.332 C 
ATOM     25  O   UNL     1      -7.822  14.687  16.458  0.00  0.00    -0.246 OA
ATOM     26  C   UNL     1      -8.949  15.639  18.353  0.00  0.00    +0.023 C 
ATOM     27  C   UNL     1     -10.160  15.686  17.779  0.00  0.00    -0.052 C 
ATOM     28  C   UNL     1     -11.361  16.212  18.412  0.00  0.00    -0.054 C 
ATOM     29  C   UNL     1     -11.340  17.362  19.117  0.00  0.00    -0.079 C 
ATOM     30  C   UNL     1     -12.511  18.050  19.768  0.00  0.00    -0.008 C 
ATOM     31  C   UNL     1     -12.702  17.613  21.233  0.00  0.00    +0.061 C 
ATOM     32  C   UNL     1     -12.256  18.699  22.224  0.00  0.00    +0.003 C 
ATOM     33  C   UNL     1     -12.155  18.190  23.673  0.00  0.00    +0.080 C 
ATOM     34  O   UNL     1     -11.308  19.063  24.451  0.00  0.00    -0.369 OA
ATOM     35  C   UNL     1     -11.977  20.209  25.014  0.00  0.00    +0.065 C 
ATOM     36  C   UNL     1     -10.889  21.046  25.720  0.00  0.00    +0.000 C 
ATOM     37  C   UNL     1     -11.404  22.301  26.457  0.00  0.00    +0.066 C 
ATOM     38  C   UNL     1     -10.262  23.069  27.189  0.00  0.00    +0.009 C 
ATOM     39  C   UNL     1      -9.533  22.289  28.318  0.00  0.00    +0.063 C 
ATOM     40  C   UNL     1     -10.109  22.263  29.751  0.00  0.00    -0.000 C 
ATOM     41  C   UNL     1     -11.300  21.345  30.063  0.00  0.00    +0.064 C 
ATOM     42  C   UNL     1     -11.190  19.884  29.571  0.00  0.00    +0.020 C 
ATOM     43  C   UNL     1     -13.054  19.723  25.996  0.00  0.00    -0.008 C 
ATOM     44  C   UNL     1     -13.919  18.665  25.395  0.00  0.00    -0.083 C 
ATOM     45  C   UNL     1     -13.495  17.969  24.334  0.00  0.00    -0.059 C 
ATOM     46  C   UNL     1      -7.412  19.067  23.548  0.00  0.00    -0.008 C 
ATOM     47  C   UNL     1      -6.554  17.884  23.861  0.00  0.00    -0.083 C 
ATOM     48  C   UNL     1      -6.860  16.676  23.365  0.00  0.00    -0.059 C 
ATOM     49  H   UNL     1      -9.066  19.778  29.858  0.00  0.00    +0.074 HD
ATOM     50  H   UNL     1      -8.718  17.252  26.190  0.00  0.00    +0.069 HD
ATOM     51  H   UNL     1      -9.585  15.407  28.508  0.00  0.00    +0.062 HD
ATOM     52  H   UNL     1      -7.264  15.354  25.866  0.00  0.00    +0.058 HD
ATOM     53  H   UNL     1      -7.919  12.617  24.923  0.00  0.00    +0.033 HD
ATOM     54  H   UNL     1      -6.639  13.670  24.439  0.00  0.00    +0.033 HD
ATOM     55  H   UNL     1      -9.307  13.210  23.236  0.00  0.00    +0.060 HD
ATOM     56  H   UNL     1      -9.589  15.654  23.849  0.00  0.00    +0.032 HD
ATOM     57  H   UNL     1      -9.765  15.191  22.197  0.00  0.00    +0.032 HD
ATOM     58  H   UNL     1      -7.715  16.153  21.495  0.00  0.00    +0.064 HD
ATOM     59  H   UNL     1      -9.071  19.579  22.305  0.00  0.00    +0.060 HD
ATOM     60  H   UNL     1      -8.234  18.618  20.175  0.00  0.00    +0.032 HD
ATOM     61  H   UNL     1      -6.708  18.233  20.917  0.00  0.00    +0.032 HD
ATOM     62  H   UNL     1      -6.235  20.678  21.283  0.00  0.00    +0.060 HD
ATOM     63  H   UNL     1      -7.162  19.764  18.531  0.00  0.00    +0.035 HD
ATOM     64  H   UNL     1      -4.333  20.667  18.931  0.00  0.00    +0.060 HD
ATOM     65  H   UNL     1      -3.763  18.732  17.622  0.00  0.00    +0.032 HD
ATOM     66  H   UNL     1      -5.048  19.625  16.797  0.00  0.00    +0.032 HD
ATOM     67  H   UNL     1      -6.039  17.523  18.655  0.00  0.00    +0.060 HD
ATOM     68  H   UNL     1      -3.854  16.578  17.452  0.00  0.00    +0.036 HD
ATOM     69  H   UNL     1      -5.525  14.368  16.945  0.00  0.00    +0.074 HD
ATOM     70  H   UNL     1      -8.761  16.008  19.353  0.00  0.00    +0.069 HD
ATOM     71  H   UNL     1     -10.286  15.304  16.765  0.00  0.00    +0.062 HD
ATOM     72  H   UNL     1     -10.397  17.897  19.236  0.00  0.00    +0.058 HD
ATOM     73  H   UNL     1     -12.344  19.134  19.704  0.00  0.00    +0.033 HD
ATOM     74  H   UNL     1     -13.421  17.876  19.182  0.00  0.00    +0.033 HD
ATOM     75  H   UNL     1     -12.151  16.687  21.433  0.00  0.00    +0.060 HD
ATOM     76  H   UNL     1     -11.279  19.088  21.921  0.00  0.00    +0.032 HD
ATOM     77  H   UNL     1     -12.950  19.550  22.182  0.00  0.00    +0.032 HD
ATOM     78  H   UNL     1     -11.629  17.228  23.667  0.00  0.00    +0.064 HD
ATOM     79  H   UNL     1     -12.422  20.796  24.201  0.00  0.00    +0.060 HD
ATOM     80  H   UNL     1     -10.344  20.385  26.398  0.00  0.00    +0.032 HD
ATOM     81  H   UNL     1     -10.157  21.347  24.957  0.00  0.00    +0.032 HD
ATOM     82  H   UNL     1     -12.177  22.018  27.171  0.00  0.00    +0.060 HD
ATOM     83  H   UNL     1      -9.507  23.281  26.415  0.00  0.00    +0.035 HD
ATOM     84  H   UNL     1      -9.330  21.273  27.996  0.00  0.00    +0.060 HD
ATOM     85  H   UNL     1     -10.363  23.288  30.050  0.00  0.00    +0.032 HD
ATOM     86  H   UNL     1      -9.293  21.982  30.431  0.00  0.00    +0.032 HD
ATOM     87  H   UNL     1     -11.435  21.343  31.152  0.00  0.00    +0.060 HD
ATOM     88  H   UNL     1     -11.108  19.933  28.480  0.00  0.00    +0.036 HD
ATOM     89  H   UNL     1     -13.684  20.555  26.323  0.00  0.00    +0.033 HD
ATOM     90  H   UNL     1     -12.586  19.284  26.880  0.00  0.00    +0.033 HD
ATOM     91  H   UNL     1     -14.885  18.457  25.844  0.00  0.00    +0.057 HD
ATOM     92  H   UNL     1     -14.140  17.204  23.911  0.00  0.00    +0.059 HD
ATOM     93  H   UNL     1      -8.070  19.234  24.410  0.00  0.00    +0.033 HD
ATOM     94  H   UNL     1      -6.794  19.962  23.438  0.00  0.00    +0.033 HD
ATOM     95  H   UNL     1      -5.672  18.027  24.477  0.00  0.00    +0.057 HD
ATOM     96  H   UNL     1      -6.181  15.849  23.538  0.00  0.00    +0.059 HD
ENDROOT
BRANCH  28  97
ATOM     97  C   UNL     1     -12.592  15.384  18.155  0.00  0.00    -0.040 C 
ATOM     98  H   UNL     1     -12.493  14.350  18.495  0.00  0.00    +0.028 HD
ATOM     99  H   UNL     1     -13.461  15.819  18.660  0.00  0.00    +0.028 HD
ATOM    100  H   UNL     1     -12.801  15.341  17.080  0.00  0.00    +0.028 HD
ENDBRANCH  28  97
BRANCH  21 101
ATOM    101  C   UNL     1      -4.852  16.367  15.616  0.00  0.00    -0.057 C 
ATOM    102  H   UNL     1      -3.870  16.046  15.256  0.00  0.00    +0.023 HD
ATOM    103  H   UNL     1      -5.066  17.341  15.164  0.00  0.00    +0.023 HD
ATOM    104  H   UNL     1      -5.602  15.662  15.243  0.00  0.00    +0.023 HD
ENDBRANCH  21 101
BRANCH  42 105
ATOM    105  C   UNL     1     -12.507  19.119  29.782  0.00  0.00    -0.057 C 
ATOM    106  H   UNL     1     -12.522  18.208  29.174  0.00  0.00    +0.023 HD
ATOM    107  H   UNL     1     -12.640  18.813  30.825  0.00  0.00    +0.023 HD
ATOM    108  H   UNL     1     -13.374  19.702  29.464  0.00  0.00    +0.023 HD
ENDBRANCH  42 105
BRANCH  17 109
ATOM    109  C   UNL     1      -6.536  21.763  18.478  0.00  0.00    -0.058 C 
ATOM    110  H   UNL     1      -7.569  22.109  18.381  0.00  0.00    +0.023 HD
ATOM    111  H   UNL     1      -6.078  21.762  17.483  0.00  0.00    +0.023 HD
ATOM    112  H   UNL     1      -5.989  22.501  19.076  0.00  0.00    +0.023 HD
ENDBRANCH  17 109
BRANCH  38 113
ATOM    113  C   UNL     1     -10.707  24.460  27.669  0.00  0.00    -0.058 C 
ATOM    114  H   UNL     1      -9.863  25.153  27.729  0.00  0.00    +0.023 HD
ATOM    115  H   UNL     1     -11.457  24.888  26.995  0.00  0.00    +0.023 HD
ATOM    116  H   UNL     1     -11.170  24.404  28.660  0.00  0.00    +0.023 HD
ENDBRANCH  38 113
BRANCH   7 117
ATOM    117  C   UNL     1     -10.240  13.629  26.475  0.00  0.00    -0.040 C 
ATOM    118  H   UNL     1     -11.181  14.107  26.757  0.00  0.00    +0.028 HD
ATOM    119  H   UNL     1     -10.084  12.788  27.155  0.00  0.00    +0.028 HD
ATOM    120  H   UNL     1     -10.352  13.213  25.467  0.00  0.00    +0.028 HD
ENDBRANCH   7 117
BRANCH   1 121
ATOM    121  C   UNL     1      -9.764  18.772  31.567  0.00  0.00    +0.020 C 
ATOM    122  H   UNL     1     -10.431  19.455  32.108  0.00  0.00    +0.036 HD
BRANCH 121 123
ATOM    123  C   UNL     1     -10.199  17.368  31.980  0.00  0.00    -0.057 C 
ATOM    124  H   UNL     1     -10.974  17.388  32.748  0.00  0.00    +0.023 HD
ATOM    125  H   UNL     1     -10.569  16.805  31.117  0.00  0.00    +0.023 HD
ATOM    126  H   UNL     1      -9.354  16.783  32.346  0.00  0.00    +0.023 HD
ENDBRANCH 121 123
BRANCH 121 127
ATOM    127  C   UNL     1      -8.312  19.089  32.056  0.00  0.00    +0.064 C 
ATOM    128  H   UNL     1      -8.389  19.352  33.119  0.00  0.00    +0.060 HD
BRANCH 127 129
ATOM    129  C   UNL     1      -7.531  20.216  31.301  0.00  0.00    -0.017 C 
ATOM    130  H   UNL     1      -8.100  20.506  30.415  0.00  0.00    +0.032 HD
BRANCH 129 131
ATOM    131  C   UNL     1      -7.464  21.461  32.201  0.00  0.00    -0.060 C 
ATOM    132  H   UNL     1      -6.771  21.312  33.036  0.00  0.00    +0.023 HD
ATOM    133  H   UNL     1      -8.450  21.695  32.620  0.00  0.00    +0.023 HD
ATOM    134  H   UNL     1      -7.140  22.343  31.640  0.00  0.00    +0.023 HD
ENDBRANCH 129 131
BRANCH 129 135
ATOM    135  C   UNL     1      -6.102  19.809  30.869  0.00  0.00    -0.046 C 
ATOM    136  H   UNL     1      -6.138  18.947  30.199  0.00  0.00    +0.027 HD
ATOM    137  H   UNL     1      -5.537  19.475  31.751  0.00  0.00    +0.027 HD
BRANCH 135 138
ATOM    138  C   UNL     1      -5.265  20.902  30.182  0.00  0.00    -0.026 C 
ATOM    139  H   UNL     1      -4.330  20.984  30.754  0.00  0.00    +0.029 HD
ATOM    140  H   UNL     1      -5.765  21.874  30.274  0.00  0.00    +0.029 HD
BRANCH 138 143
ATOM    141  C   UNL     1      -5.818  21.034  26.495  0.00  0.00    +0.059 C 
ATOM    142  O   UNL     1      -5.789  21.396  27.882  0.00  0.00    -0.373 OA
ATOM    143  C   UNL     1      -4.912  20.632  28.710  0.00  0.00    +0.061 C 
ATOM    144  C   UNL     1      -5.029  19.137  28.402  0.00  0.00    -0.000 C 
ATOM    145  C   UNL     1      -4.699  18.840  26.934  0.00  0.00    +0.063 C 
ATOM    146  C   UNL     1      -4.674  20.113  26.090  0.00  0.00    -0.000 C 
ATOM    147  H   UNL     1      -6.774  20.527  26.322  0.00  0.00    +0.059 HD
ATOM    148  H   UNL     1      -3.883  20.965  28.530  0.00  0.00    +0.060 HD
ATOM    149  H   UNL     1      -4.394  18.563  29.085  0.00  0.00    +0.032 HD
ATOM    150  H   UNL     1      -6.068  18.827  28.578  0.00  0.00    +0.032 HD
ATOM    151  H   UNL     1      -5.458  18.161  26.521  0.00  0.00    +0.060 HD
ATOM    152  H   UNL     1      -4.736  19.851  25.026  0.00  0.00    +0.032 HD
ATOM    153  H   UNL     1      -3.714  20.625  26.216  0.00  0.00    +0.032 HD
BRANCH 141 154
ATOM    154  C   UNL     1      -5.804  22.319  25.678  0.00  0.00    -0.039 C 
ATOM    155  H   UNL     1      -6.317  23.130  26.204  0.00  0.00    +0.025 HD
ATOM    156  H   UNL     1      -4.776  22.633  25.471  0.00  0.00    +0.025 HD
ATOM    157  H   UNL     1      -6.291  22.171  24.709  0.00  0.00    +0.025 HD
ENDBRANCH 141 154
BRANCH 145 158
ATOM    158  O   UNL     1      -3.412  18.223  26.812  0.00  0.00    -0.380 OA
BRANCH 158 159
ATOM    159  C   UNL     1      -2.336  19.099  27.127  0.00  0.00    +0.037 C 
ATOM    160  H   UNL     1      -2.399  19.966  26.462  0.00  0.00    +0.052 HD
ATOM    161  H   UNL     1      -2.396  19.450  28.161  0.00  0.00    +0.052 HD
ATOM    162  H   UNL     1      -1.379  18.598  26.955  0.00  0.00    +0.052 HD
ENDBRANCH 158 159
ENDBRANCH 145 158
ENDBRANCH 138 143
ENDBRANCH 135 138
ENDBRANCH 129 135
ENDBRANCH 127 129
BRANCH 127 163
ATOM    163  O   UNL     1      -7.568  17.864  32.025  0.00  0.00    -0.391 OA
ATOM    164  H   UNL     1      -8.072  17.209  32.540  0.00  0.00    +0.210 HD
ENDBRANCH 127 163
ENDBRANCH 121 127
ENDBRANCH   1 121
BRANCH  41 165
ATOM    165  O   UNL     1     -12.474  21.952  29.515  0.00  0.00    -0.391 OA
ATOM    166  H   UNL     1     -12.393  21.922  28.547  0.00  0.00    +0.210 HD
ENDBRANCH  41 165
BRANCH  39 167
ATOM    167  O   UNL     1      -8.227  22.896  28.464  0.00  0.00    -0.391 OA
ATOM    168  H   UNL     1      -7.951  23.177  27.574  0.00  0.00    +0.210 HD
ENDBRANCH  39 167
BRANCH  31 169
ATOM    169  O   UNL     1     -14.088  17.319  21.437  0.00  0.00    -0.391 OA
ATOM    170  H   UNL     1     -14.519  18.144  21.730  0.00  0.00    +0.210 HD
ENDBRANCH  31 169
BRANCH  22 171
ATOM    171  C   UNL     1      -4.397  14.461  18.775  0.00  0.00    +0.020 C 
ATOM    172  H   UNL     1      -4.955  14.320  19.709  0.00  0.00    +0.036 HD
BRANCH 171 173
ATOM    173  C   UNL     1      -4.007  13.074  18.221  0.00  0.00    -0.057 C 
ATOM    174  H   UNL     1      -4.600  12.809  17.340  0.00  0.00    +0.023 HD
ATOM    175  H   UNL     1      -2.951  13.035  17.934  0.00  0.00    +0.023 HD
ATOM    176  H   UNL     1      -4.193  12.273  18.936  0.00  0.00    +0.023 HD
ENDBRANCH 171 173
BRANCH 171 177
ATOM    177  C   UNL     1      -3.150  15.346  19.108  0.00  0.00    +0.064 C 
ATOM    178  H   UNL     1      -3.240  16.293  18.562  0.00  0.00    +0.060 HD
BRANCH 177 179
ATOM    179  O   UNL     1      -3.179  15.651  20.502  0.00  0.00    -0.391 OA
ATOM    180  H   UNL     1      -3.002  14.832  21.010  0.00  0.00    +0.210 HD
ENDBRANCH 177 179
BRANCH 177 181
ATOM    181  C   UNL     1      -1.729  14.755  18.832  0.00  0.00    -0.017 C 
ATOM    182  H   UNL     1      -1.806  13.660  18.869  0.00  0.00    +0.032 HD
BRANCH 181 183
ATOM    183  C   UNL     1      -1.144  15.127  17.471  0.00  0.00    -0.060 C 
ATOM    184  H   UNL     1      -0.228  14.562  17.282  0.00  0.00    +0.023 HD
ATOM    185  H   UNL     1      -0.831  16.174  17.423  0.00  0.00    +0.023 HD
ATOM    186  H   UNL     1      -1.862  14.952  16.664  0.00  0.00    +0.023 HD
ENDBRANCH 181 183
BRANCH 181 187
ATOM    187  C   UNL     1      -0.773  15.167  19.993  0.00  0.00    -0.046 C 
ATOM    188  H   UNL     1      -0.382  14.260  20.470  0.00  0.00    +0.027 HD
ATOM    189  H   UNL     1      -1.347  15.701  20.761  0.00  0.00    +0.027 HD
BRANCH 187 190
ATOM    190  C   UNL     1       0.419  16.037  19.569  0.00  0.00    -0.026 C 
ATOM    191  H   UNL     1       0.351  16.267  18.499  0.00  0.00    +0.029 HD
ATOM    192  H   UNL     1       0.369  16.983  20.123  0.00  0.00    +0.029 HD
BRANCH 190 193
ATOM    193  C   UNL     1       1.777  15.379  19.861  0.00  0.00    +0.061 C 
ATOM    194  O   UNL     1       2.233  14.728  18.670  0.00  0.00    -0.373 OA
ATOM    195  C   UNL     1       3.505  14.087  18.800  0.00  0.00    +0.059 C 
ATOM    196  C   UNL     1       3.494  13.058  19.934  0.00  0.00    -0.000 C 
ATOM    197  C   UNL     1       2.940  13.613  21.247  0.00  0.00    +0.063 C 
ATOM    198  C   UNL     1       1.630  14.358  20.992  0.00  0.00    -0.000 C 
ATOM    199  H   UNL     1       2.483  16.168  20.144  0.00  0.00    +0.060 HD
ATOM    200  H   UNL     1       3.651  13.533  17.863  0.00  0.00    +0.059 HD
ATOM    201  H   UNL     1       4.494  12.636  20.063  0.00  0.00    +0.032 HD
ATOM    202  H   UNL     1       2.835  12.234  19.628  0.00  0.00    +0.032 HD
ATOM    203  H   UNL     1       2.735  12.788  21.942  0.00  0.00    +0.060 HD
ATOM    204  H   UNL     1       1.299  14.863  21.907  0.00  0.00    +0.032 HD
ATOM    205  H   UNL     1       0.865  13.619  20.718  0.00  0.00    +0.032 HD
BRANCH 195 206
ATOM    206  C   UNL     1       4.648  15.097  18.879  0.00  0.00    -0.039 C 
ATOM    207  H   UNL     1       4.513  15.877  18.120  0.00  0.00    +0.025 HD
ATOM    208  H   UNL     1       5.612  14.609  18.708  0.00  0.00    +0.025 HD
ATOM    209  H   UNL     1       4.697  15.612  19.841  0.00  0.00    +0.025 HD
ENDBRANCH 195 206
BRANCH 197 210
ATOM    210  O   UNL     1       3.852  14.524  21.869  0.00  0.00    -0.380 OA
BRANCH 210 211
ATOM    211  C   UNL     1       3.814  14.484  23.289  0.00  0.00    +0.037 C 
ATOM    212  H   UNL     1       4.813  14.723  23.663  0.00  0.00    +0.052 HD
ATOM    213  H   UNL     1       3.113  15.230  23.672  0.00  0.00    +0.052 HD
ATOM    214  H   UNL     1       3.540  13.489  23.651  0.00  0.00    +0.052 HD
ENDBRANCH 210 211
ENDBRANCH 197 210
ENDBRANCH 190 193
ENDBRANCH 187 190
ENDBRANCH 181 187
ENDBRANCH 177 181
ENDBRANCH 171 177
ENDBRANCH  22 171
BRANCH  20 215
ATOM    215  O   UNL     1      -6.853  17.938  16.861  0.00  0.00    -0.391 OA
ATOM    216  H   UNL     1      -7.599  17.453  17.250  0.00  0.00    +0.210 HD
ENDBRANCH  20 215
BRANCH  18 217
ATOM    217  O   UNL     1      -4.592  19.016  20.068  0.00  0.00    -0.391 OA
ATOM    218  H   UNL     1      -4.112  18.253  19.694  0.00  0.00    +0.210 HD
ENDBRANCH  18 217
BRANCH  10 219
ATOM    219  O   UNL     1      -7.583  13.481  22.198  0.00  0.00    -0.391 OA
ATOM    220  H   UNL     1      -8.131  13.122  21.479  0.00  0.00    +0.210 HD
ENDBRANCH  10 219
BRANCH  37 221
ATOM    221  O   UNL     1     -11.953  23.159  25.438  0.00  0.00    -0.379 OA
BRANCH 221 222
ATOM    222  C   UNL     1     -13.342  23.412  25.600  0.00  0.00    +0.037 C 
ATOM    223  H   UNL     1     -13.798  23.459  24.608  0.00  0.00    +0.052 HD
ATOM    224  H   UNL     1     -13.812  22.594  26.154  0.00  0.00    +0.052 HD
ATOM    225  H   UNL     1     -13.521  24.362  26.112  0.00  0.00    +0.052 HD
ENDBRANCH 221 222
ENDBRANCH  37 221
BRANCH  16 226
ATOM    226  O   UNL     1      -8.152  21.243  20.661  0.00  0.00    -0.379 OA
BRANCH 226 227
ATOM    227  C   UNL     1      -7.994  22.282  21.620  0.00  0.00    +0.037 C 
ATOM    228  H   UNL     1      -8.614  22.047  22.489  0.00  0.00    +0.052 HD
ATOM    229  H   UNL     1      -6.951  22.351  21.945  0.00  0.00    +0.052 HD
ATOM    230  H   UNL     1      -8.321  23.242  21.208  0.00  0.00    +0.052 HD
ENDBRANCH 226 227
ENDBRANCH  16 226
TORSDOF 40
ENDMDL
MODEL 9
REMARK VINA RESULT:      -4.9      5.339     12.553
REMARK  Name = Swinholide A_conf3
REMARK  40 active torsions:
REMARK  status: ('A' for Active; 'I' for Inactive)
REMARK    1  A    between atoms: C_1  and  C_2
REMARK    2  A    between atoms: C_4  and  C_10
REMARK    3  A    between atoms: C_6  and  O_8
REMARK    4  A    between atoms: O_8  and  C_9
REMARK    5  A    between atoms: C_10  and  C_11
REMARK    6  A    between atoms: C_11  and  C_12
REMARK    7  A    between atoms: C_12  and  C_13
REMARK    8  A    between atoms: C_12  and  C_98
REMARK    9  A    between atoms: C_13  and  O_14
REMARK   10  A    between atoms: C_13  and  C_15
REMARK   11  A    between atoms: C_15  and  C_16
REMARK   12  A    between atoms: C_15  and  C_97
REMARK   13  A    between atoms: C_22  and  C_96
REMARK   14  A    between atoms: C_25  and  O_95
REMARK   15  A    between atoms: C_31  and  O_90
REMARK   16  A    between atoms: C_32  and  C_89
REMARK   17  A    between atoms: C_33  and  O_88
REMARK   18  A    between atoms: C_35  and  O_87
REMARK   19  A    between atoms: C_36  and  C_86
REMARK   20  A    between atoms: C_37  and  C_69
REMARK   21  A    between atoms: C_43  and  C_68
REMARK   22  A    between atoms: C_46  and  O_67
REMARK   23  A    between atoms: C_52  and  O_62
REMARK   24  A    between atoms: C_53  and  C_61
REMARK   25  A    between atoms: C_54  and  O_60
REMARK   26  A    between atoms: C_56  and  O_59
REMARK   27  A    between atoms: C_57  and  C_58
REMARK   28  A    between atoms: O_62  and  C_63
REMARK   29  A    between atoms: C_69  and  C_70
REMARK   30  A    between atoms: C_69  and  C_85
REMARK   31  A    between atoms: C_70  and  O_71
REMARK   32  A    between atoms: C_70  and  C_72
REMARK   33  A    between atoms: C_72  and  C_73
REMARK   34  A    between atoms: C_72  and  C_84
REMARK   35  A    between atoms: C_73  and  C_74
REMARK   36  A    between atoms: C_74  and  C_75
REMARK   37  A    between atoms: C_77  and  C_83
REMARK   38  A    between atoms: C_79  and  O_81
REMARK   39  A    between atoms: O_81  and  C_82
REMARK   40  A    between atoms: O_90  and  C_91
REMARK                            x       y       z     vdW  Elec       q    Type
REMARK                         _______ _______ _______ _____ _____    ______ ____
ROOT
ATOM      1  C   UNL     1      -6.301  14.148  19.556  0.00  0.00    +0.113 C 
ATOM      2  O   UNL     1      -6.348  12.709  19.369  0.00  0.00    -0.458 OA
ATOM      3  C   UNL     1      -7.104  12.299  18.316  0.00  0.00    +0.332 C 
ATOM      4  O   UNL     1      -7.635  13.026  17.486  0.00  0.00    -0.246 OA
ATOM      5  C   UNL     1      -7.286  10.847  18.241  0.00  0.00    +0.023 C 
ATOM      6  C   UNL     1      -6.477   9.907  18.752  0.00  0.00    -0.052 C 
ATOM      7  C   UNL     1      -6.703   8.487  18.498  0.00  0.00    -0.054 C 
ATOM      8  C   UNL     1      -7.003   8.065  17.253  0.00  0.00    -0.079 C 
ATOM      9  C   UNL     1      -7.350   6.680  16.793  0.00  0.00    -0.008 C 
ATOM     10  C   UNL     1      -8.787   6.188  17.078  0.00  0.00    +0.061 C 
ATOM     11  C   UNL     1      -9.871   7.244  17.329  0.00  0.00    +0.003 C 
ATOM     12  C   UNL     1     -10.525   7.959  16.134  0.00  0.00    +0.080 C 
ATOM     13  O   UNL     1     -11.454   8.873  16.751  0.00  0.00    -0.369 OA
ATOM     14  C   UNL     1     -11.955   9.928  15.912  0.00  0.00    +0.065 C 
ATOM     15  C   UNL     1     -12.876   9.343  14.827  0.00  0.00    +0.000 C 
ATOM     16  C   UNL     1     -13.709  10.371  14.036  0.00  0.00    +0.066 C 
ATOM     17  C   UNL     1     -14.728   9.636  13.116  0.00  0.00    +0.009 C 
ATOM     18  C   UNL     1     -14.140   9.098  11.778  0.00  0.00    +0.063 C 
ATOM     19  C   UNL     1     -14.728   7.730  11.356  0.00  0.00    -0.000 C 
ATOM     20  C   UNL     1     -14.374   6.602  12.353  0.00  0.00    +0.064 C 
ATOM     21  C   UNL     1     -13.919   5.289  11.659  0.00  0.00    +0.020 C 
ATOM     22  C   UNL     1     -12.916   4.430  12.511  0.00  0.00    +0.113 C 
ATOM     23  O   UNL     1     -12.872   4.865  13.883  0.00  0.00    -0.458 OA
ATOM     24  C   UNL     1     -13.790   4.334  14.726  0.00  0.00    +0.332 C 
ATOM     25  O   UNL     1     -14.509   3.371  14.512  0.00  0.00    -0.246 OA
ATOM     26  C   UNL     1     -13.788   5.148  15.959  0.00  0.00    +0.023 C 
ATOM     27  C   UNL     1     -14.653   4.874  16.947  0.00  0.00    -0.052 C 
ATOM     28  C   UNL     1     -14.771   5.634  18.184  0.00  0.00    -0.054 C 
ATOM     29  C   UNL     1     -14.759   6.983  18.186  0.00  0.00    -0.079 C 
ATOM     30  C   UNL     1     -14.934   7.891  19.375  0.00  0.00    -0.008 C 
ATOM     31  C   UNL     1     -13.587   8.269  20.021  0.00  0.00    +0.061 C 
ATOM     32  C   UNL     1     -13.180   9.717  19.706  0.00  0.00    +0.003 C 
ATOM     33  C   UNL     1     -11.720  10.029  20.080  0.00  0.00    +0.080 C 
ATOM     34  O   UNL     1     -11.257  11.190  19.358  0.00  0.00    -0.369 OA
ATOM     35  C   UNL     1     -11.572  12.452  19.978  0.00  0.00    +0.065 C 
ATOM     36  C   UNL     1     -11.076  13.549  19.012  0.00  0.00    +0.000 C 
ATOM     37  C   UNL     1     -11.257  14.997  19.517  0.00  0.00    +0.066 C 
ATOM     38  C   UNL     1     -10.687  16.049  18.517  0.00  0.00    +0.009 C 
ATOM     39  C   UNL     1      -9.159  15.973  18.248  0.00  0.00    +0.063 C 
ATOM     40  C   UNL     1      -8.161  16.681  19.190  0.00  0.00    -0.000 C 
ATOM     41  C   UNL     1      -7.823  16.038  20.543  0.00  0.00    +0.064 C 
ATOM     42  C   UNL     1      -7.467  14.534  20.520  0.00  0.00    +0.020 C 
ATOM     43  C   UNL     1     -10.868  12.526  21.341  0.00  0.00    -0.008 C 
ATOM     44  C   UNL     1     -11.103  11.298  22.157  0.00  0.00    -0.083 C 
ATOM     45  C   UNL     1     -11.489  10.161  21.567  0.00  0.00    -0.059 C 
ATOM     46  C   UNL     1     -10.786  10.785  15.407  0.00  0.00    -0.008 C 
ATOM     47  C   UNL     1      -9.681   9.945  14.851  0.00  0.00    -0.083 C 
ATOM     48  C   UNL     1      -9.582   8.650  15.186  0.00  0.00    -0.059 C 
ATOM     49  H   UNL     1      -6.523  14.623  18.594  0.00  0.00    +0.074 HD
ATOM     50  H   UNL     1      -8.147  10.573  17.637  0.00  0.00    +0.069 HD
ATOM     51  H   UNL     1      -5.621  10.173  19.366  0.00  0.00    +0.062 HD
ATOM     52  H   UNL     1      -7.022   8.800  16.448  0.00  0.00    +0.058 HD
ATOM     53  H   UNL     1      -6.639   5.960  17.218  0.00  0.00    +0.033 HD
ATOM     54  H   UNL     1      -7.156   6.631  15.714  0.00  0.00    +0.033 HD
ATOM     55  H   UNL     1      -8.732   5.578  17.990  0.00  0.00    +0.060 HD
ATOM     56  H   UNL     1      -9.529   7.984  18.064  0.00  0.00    +0.032 HD
ATOM     57  H   UNL     1     -10.697   6.733  17.849  0.00  0.00    +0.032 HD
ATOM     58  H   UNL     1     -11.108   7.226  15.567  0.00  0.00    +0.064 HD
ATOM     59  H   UNL     1     -12.562  10.558  16.570  0.00  0.00    +0.060 HD
ATOM     60  H   UNL     1     -13.558   8.649  15.336  0.00  0.00    +0.032 HD
ATOM     61  H   UNL     1     -12.293   8.724  14.144  0.00  0.00    +0.032 HD
ATOM     62  H   UNL     1     -13.057  11.015  13.433  0.00  0.00    +0.060 HD
ATOM     63  H   UNL     1     -15.128   8.799  13.699  0.00  0.00    +0.035 HD
ATOM     64  H   UNL     1     -14.373   9.820  10.985  0.00  0.00    +0.060 HD
ATOM     65  H   UNL     1     -14.304   7.496  10.372  0.00  0.00    +0.032 HD
ATOM     66  H   UNL     1     -15.814   7.817  11.237  0.00  0.00    +0.032 HD
ATOM     67  H   UNL     1     -13.573   6.959  12.997  0.00  0.00    +0.060 HD
ATOM     68  H   UNL     1     -13.406   5.561  10.731  0.00  0.00    +0.036 HD
ATOM     69  H   UNL     1     -13.244   3.382  12.508  0.00  0.00    +0.074 HD
ATOM     70  H   UNL     1     -13.100   5.981  15.999  0.00  0.00    +0.069 HD
ATOM     71  H   UNL     1     -15.328   4.022  16.847  0.00  0.00    +0.062 HD
ATOM     72  H   UNL     1     -14.635   7.516  17.243  0.00  0.00    +0.058 HD
ATOM     73  H   UNL     1     -15.469   8.789  19.038  0.00  0.00    +0.033 HD
ATOM     74  H   UNL     1     -15.606   7.426  20.106  0.00  0.00    +0.033 HD
ATOM     75  H   UNL     1     -12.796   7.586  19.688  0.00  0.00    +0.060 HD
ATOM     76  H   UNL     1     -13.315   9.908  18.637  0.00  0.00    +0.032 HD
ATOM     77  H   UNL     1     -13.849  10.413  20.229  0.00  0.00    +0.032 HD
ATOM     78  H   UNL     1     -11.087   9.209  19.720  0.00  0.00    +0.064 HD
ATOM     79  H   UNL     1     -12.661  12.530  20.093  0.00  0.00    +0.060 HD
ATOM     80  H   UNL     1     -10.029  13.341  18.777  0.00  0.00    +0.032 HD
ATOM     81  H   UNL     1     -11.617  13.424  18.064  0.00  0.00    +0.032 HD
ATOM     82  H   UNL     1     -10.775  15.111  20.489  0.00  0.00    +0.060 HD
ATOM     83  H   UNL     1     -11.187  15.843  17.558  0.00  0.00    +0.035 HD
ATOM     84  H   UNL     1      -8.856  14.940  18.116  0.00  0.00    +0.060 HD
ATOM     85  H   UNL     1      -8.503  17.709  19.361  0.00  0.00    +0.032 HD
ATOM     86  H   UNL     1      -7.216  16.802  18.641  0.00  0.00    +0.032 HD
ATOM     87  H   UNL     1      -6.979  16.596  20.968  0.00  0.00    +0.060 HD
ATOM     88  H   UNL     1      -8.351  14.015  20.137  0.00  0.00    +0.036 HD
ATOM     89  H   UNL     1     -11.209  13.399  21.906  0.00  0.00    +0.033 HD
ATOM     90  H   UNL     1      -9.789  12.613  21.202  0.00  0.00    +0.033 HD
ATOM     91  H   UNL     1     -10.933  11.337  23.228  0.00  0.00    +0.057 HD
ATOM     92  H   UNL     1     -11.654   9.278  22.178  0.00  0.00    +0.059 HD
ATOM     93  H   UNL     1     -10.371  11.362  16.243  0.00  0.00    +0.033 HD
ATOM     94  H   UNL     1     -11.126  11.503  14.657  0.00  0.00    +0.033 HD
ATOM     95  H   UNL     1      -8.978  10.398  14.160  0.00  0.00    +0.057 HD
ATOM     96  H   UNL     1      -8.823   8.040  14.710  0.00  0.00    +0.059 HD
ENDROOT
BRANCH  28  97
ATOM     97  C   UNL     1     -14.952   4.774  19.406  0.00  0.00    -0.040 C 
ATOM     98  H   UNL     1     -15.861   4.168  19.377  0.00  0.00    +0.028 HD
ATOM     99  H   UNL     1     -14.102   4.092  19.526  0.00  0.00    +0.028 HD
ATOM    100  H   UNL     1     -15.022   5.400  20.302  0.00  0.00    +0.028 HD
ENDBRANCH  28  97
BRANCH  21 101
ATOM    101  C   UNL     1     -15.102   4.420  11.210  0.00  0.00    -0.057 C 
ATOM    102  H   UNL     1     -14.844   3.357  11.186  0.00  0.00    +0.023 HD
ATOM    103  H   UNL     1     -15.427   4.703  10.203  0.00  0.00    +0.023 HD
ATOM    104  H   UNL     1     -15.960   4.550  11.879  0.00  0.00    +0.023 HD
ENDBRANCH  21 101
BRANCH  42 105
ATOM    105  C   UNL     1      -7.326  13.968  21.943  0.00  0.00    -0.057 C 
ATOM    106  H   UNL     1      -7.620  14.720  22.684  0.00  0.00    +0.023 HD
ATOM    107  H   UNL     1      -7.965  13.093  22.100  0.00  0.00    +0.023 HD
ATOM    108  H   UNL     1      -6.292  13.707  22.179  0.00  0.00    +0.023 HD
ENDBRANCH  42 105
BRANCH  17 109
ATOM    109  C   UNL     1     -15.965  10.494  12.794  0.00  0.00    -0.058 C 
ATOM    110  H   UNL     1     -16.637  10.561  13.654  0.00  0.00    +0.023 HD
ATOM    111  H   UNL     1     -16.528  10.084  11.949  0.00  0.00    +0.023 HD
ATOM    112  H   UNL     1     -15.674  11.513  12.514  0.00  0.00    +0.023 HD
ENDBRANCH  17 109
BRANCH  38 113
ATOM    113  C   UNL     1     -11.122  17.481  18.865  0.00  0.00    -0.058 C 
ATOM    114  H   UNL     1     -12.171  17.656  18.609  0.00  0.00    +0.023 HD
ATOM    115  H   UNL     1     -10.991  17.684  19.935  0.00  0.00    +0.023 HD
ATOM    116  H   UNL     1     -10.514  18.218  18.330  0.00  0.00    +0.023 HD
ENDBRANCH  38 113
BRANCH   7 117
ATOM    117  C   UNL     1      -6.597   7.592  19.698  0.00  0.00    -0.040 C 
ATOM    118  H   UNL     1      -5.799   6.861  19.552  0.00  0.00    +0.028 HD
ATOM    119  H   UNL     1      -7.519   7.037  19.890  0.00  0.00    +0.028 HD
ATOM    120  H   UNL     1      -6.375   8.172  20.600  0.00  0.00    +0.028 HD
ENDBRANCH   7 117
BRANCH   1 121
ATOM    121  C   UNL     1      -4.853  14.631  19.873  0.00  0.00    +0.020 C 
ATOM    122  H   UNL     1      -4.956  15.615  20.347  0.00  0.00    +0.036 HD
BRANCH 121 123
ATOM    123  C   UNL     1      -4.065  13.781  20.867  0.00  0.00    -0.057 C 
ATOM    124  H   UNL     1      -3.045  14.146  20.999  0.00  0.00    +0.023 HD
ATOM    125  H   UNL     1      -4.563  13.759  21.841  0.00  0.00    +0.023 HD
ATOM    126  H   UNL     1      -4.028  12.737  20.554  0.00  0.00    +0.023 HD
ENDBRANCH 121 123
BRANCH 121 127
ATOM    127  C   UNL     1      -4.050  14.857  18.549  0.00  0.00    +0.064 C 
ATOM    128  H   UNL     1      -3.442  13.957  18.393  0.00  0.00    +0.060 HD
BRANCH 127 129
ATOM    129  C   UNL     1      -3.129  16.121  18.476  0.00  0.00    -0.017 C 
ATOM    130  H   UNL     1      -3.023  16.419  17.431  0.00  0.00    +0.032 HD
BRANCH 129 131
ATOM    131  C   UNL     1      -3.832  17.287  19.192  0.00  0.00    -0.060 C 
ATOM    132  H   UNL     1      -3.126  17.865  19.798  0.00  0.00    +0.023 HD
ATOM    133  H   UNL     1      -4.623  16.920  19.855  0.00  0.00    +0.023 HD
ATOM    134  H   UNL     1      -4.306  17.967  18.477  0.00  0.00    +0.023 HD
ENDBRANCH 129 131
BRANCH 129 135
ATOM    135  C   UNL     1      -1.723  15.909  19.085  0.00  0.00    -0.046 C 
ATOM    136  H   UNL     1      -1.803  15.602  20.131  0.00  0.00    +0.027 HD
ATOM    137  H   UNL     1      -1.185  16.867  19.099  0.00  0.00    +0.027 HD
BRANCH 135 138
ATOM    138  C   UNL     1      -0.819  14.892  18.366  0.00  0.00    -0.026 C 
ATOM    139  H   UNL     1      -0.929  15.086  17.289  0.00  0.00    +0.029 HD
ATOM    140  H   UNL     1      -1.192  13.874  18.532  0.00  0.00    +0.029 HD
BRANCH 138 143
ATOM    141  C   UNL     1       2.381  13.620  19.799  0.00  0.00    +0.059 C 
ATOM    142  O   UNL     1       1.113  13.672  19.133  0.00  0.00    -0.373 OA
ATOM    143  C   UNL     1       0.673  14.969  18.724  0.00  0.00    +0.061 C 
ATOM    144  C   UNL     1       0.900  16.000  19.832  0.00  0.00    -0.000 C 
ATOM    145  C   UNL     1       2.381  16.086  20.223  0.00  0.00    +0.063 C 
ATOM    146  C   UNL     1       3.183  14.909  19.669  0.00  0.00    -0.000 C 
ATOM    147  H   UNL     1       2.173  13.425  20.858  0.00  0.00    +0.059 HD
ATOM    148  H   UNL     1       1.234  15.261  17.829  0.00  0.00    +0.060 HD
ATOM    149  H   UNL     1       0.506  16.974  19.523  0.00  0.00    +0.032 HD
ATOM    150  H   UNL     1       0.340  15.684  20.722  0.00  0.00    +0.032 HD
ATOM    151  H   UNL     1       2.469  16.083  21.319  0.00  0.00    +0.060 HD
ATOM    152  H   UNL     1       4.141  14.834  20.199  0.00  0.00    +0.032 HD
ATOM    153  H   UNL     1       3.436  15.091  18.619  0.00  0.00    +0.032 HD
BRANCH 141 154
ATOM    154  C   UNL     1       3.153  12.434  19.237  0.00  0.00    -0.039 C 
ATOM    155  H   UNL     1       2.625  11.493  19.422  0.00  0.00    +0.025 HD
ATOM    156  H   UNL     1       3.300  12.546  18.158  0.00  0.00    +0.025 HD
ATOM    157  H   UNL     1       4.149  12.367  19.688  0.00  0.00    +0.025 HD
ENDBRANCH 141 154
BRANCH 145 158
ATOM    158  O   UNL     1       2.978  17.285  19.714  0.00  0.00    -0.380 OA
BRANCH 158 159
ATOM    159  C   UNL     1       4.362  17.399  20.023  0.00  0.00    +0.037 C 
ATOM    160  H   UNL     1       4.614  18.463  20.063  0.00  0.00    +0.052 HD
ATOM    161  H   UNL     1       4.593  16.951  20.993  0.00  0.00    +0.052 HD
ATOM    162  H   UNL     1       4.964  16.928  19.239  0.00  0.00    +0.052 HD
ENDBRANCH 158 159
ENDBRANCH 145 158
ENDBRANCH 138 143
ENDBRANCH 135 138
ENDBRANCH 129 135
ENDBRANCH 127 129
BRANCH 127 163
ATOM    163  O   UNL     1      -4.992  14.866  17.468  0.00  0.00    -0.391 OA
ATOM    164  H   UNL     1      -5.380  15.759  17.433  0.00  0.00    +0.210 HD
ENDBRANCH 127 163
ENDBRANCH 121 127
ENDBRANCH   1 121
BRANCH  41 165
ATOM    165  O   UNL     1      -8.931  16.258  21.420  0.00  0.00    -0.391 OA
ATOM    166  H   UNL     1      -8.728  17.045  21.953  0.00  0.00    +0.210 HD
ENDBRANCH  41 165
BRANCH  39 167
ATOM    167  O   UNL     1      -8.935  16.587  16.956  0.00  0.00    -0.391 OA
ATOM    168  H   UNL     1      -7.972  16.614  16.824  0.00  0.00    +0.210 HD
ENDBRANCH  39 167
BRANCH  31 169
ATOM    169  O   UNL     1     -13.705   8.101  21.438  0.00  0.00    -0.391 OA
ATOM    170  H   UNL     1     -14.654   8.152  21.656  0.00  0.00    +0.210 HD
ENDBRANCH  31 169
BRANCH  22 171
ATOM    171  C   UNL     1     -11.454   4.421  11.921  0.00  0.00    +0.020 C 
ATOM    172  H   UNL     1     -10.861   3.779  12.585  0.00  0.00    +0.036 HD
BRANCH 171 173
ATOM    173  C   UNL     1     -11.526   3.756  10.530  0.00  0.00    -0.057 C 
ATOM    174  H   UNL     1     -10.692   3.066  10.368  0.00  0.00    +0.023 HD
ATOM    175  H   UNL     1     -12.454   3.190  10.400  0.00  0.00    +0.023 HD
ATOM    176  H   UNL     1     -11.454   4.479   9.719  0.00  0.00    +0.023 HD
ENDBRANCH 171 173
BRANCH 171 177
ATOM    177  C   UNL     1     -10.752   5.820  11.880  0.00  0.00    +0.064 C 
ATOM    178  H   UNL     1     -11.043   6.328  10.952  0.00  0.00    +0.060 HD
BRANCH 177 179
ATOM    179  O   UNL     1     -11.247   6.599  12.969  0.00  0.00    -0.391 OA
ATOM    180  H   UNL     1     -11.550   7.466  12.627  0.00  0.00    +0.210 HD
ENDBRANCH 177 179
BRANCH 177 181
ATOM    181  C   UNL     1      -9.194   5.868  11.997  0.00  0.00    -0.017 C 
ATOM    182  H   UNL     1      -8.931   6.702  12.661  0.00  0.00    +0.032 HD
BRANCH 181 183
ATOM    183  C   UNL     1      -8.565   4.604  12.579  0.00  0.00    -0.060 C 
ATOM    184  H   UNL     1      -8.915   4.439  13.602  0.00  0.00    +0.023 HD
ATOM    185  H   UNL     1      -7.478   4.685  12.675  0.00  0.00    +0.023 HD
ATOM    186  H   UNL     1      -8.786   3.726  11.966  0.00  0.00    +0.023 HD
ENDBRANCH 181 183
BRANCH 181 187
ATOM    187  C   UNL     1      -8.590   6.212  10.601  0.00  0.00    -0.046 C 
ATOM    188  H   UNL     1      -9.373   6.104   9.839  0.00  0.00    +0.027 HD
ATOM    189  H   UNL     1      -7.811   5.479  10.355  0.00  0.00    +0.027 HD
BRANCH 187 190
ATOM    190  C   UNL     1      -7.999   7.624  10.483  0.00  0.00    -0.026 C 
ATOM    191  H   UNL     1      -7.995   8.109  11.466  0.00  0.00    +0.029 HD
ATOM    192  H   UNL     1      -6.958   7.534  10.146  0.00  0.00    +0.029 HD
BRANCH 190 193
ATOM    193  C   UNL     1      -8.756   8.510   9.481  0.00  0.00    +0.061 C 
ATOM    194  O   UNL     1     -10.002   8.898  10.068  0.00  0.00    -0.373 OA
ATOM    195  C   UNL     1     -10.803   9.749   9.242  0.00  0.00    +0.059 C 
ATOM    196  C   UNL     1     -11.094   9.092   7.889  0.00  0.00    -0.000 C 
ATOM    197  C   UNL     1      -9.841   8.552   7.198  0.00  0.00    +0.063 C 
ATOM    198  C   UNL     1      -9.007   7.736   8.185  0.00  0.00    -0.000 C 
ATOM    199  H   UNL     1      -8.146   9.400   9.286  0.00  0.00    +0.060 HD
ATOM    200  H   UNL     1     -11.762   9.847   9.766  0.00  0.00    +0.059 HD
ATOM    201  H   UNL     1     -11.642   9.788   7.248  0.00  0.00    +0.032 HD
ATOM    202  H   UNL     1     -11.757   8.235   8.073  0.00  0.00    +0.032 HD
ATOM    203  H   UNL     1     -10.129   7.895   6.367  0.00  0.00    +0.060 HD
ATOM    204  H   UNL     1      -8.050   7.456   7.729  0.00  0.00    +0.032 HD
ATOM    205  H   UNL     1      -9.555   6.812   8.413  0.00  0.00    +0.032 HD
BRANCH 195 206
ATOM    206  C   UNL     1     -10.224  11.159   9.145  0.00  0.00    -0.039 C 
ATOM    207  H   UNL     1      -9.899  11.501  10.134  0.00  0.00    +0.025 HD
ATOM    208  H   UNL     1     -10.972  11.861   8.763  0.00  0.00    +0.025 HD
ATOM    209  H   UNL     1      -9.346  11.216   8.497  0.00  0.00    +0.025 HD
ENDBRANCH 195 206
BRANCH 197 210
ATOM    210  O   UNL     1      -9.017   9.605   6.689  0.00  0.00    -0.380 OA
BRANCH 210 211
ATOM    211  C   UNL     1      -9.561  10.248   5.544  0.00  0.00    +0.037 C 
ATOM    212  H   UNL     1      -8.985   9.934   4.670  0.00  0.00    +0.052 HD
ATOM    213  H   UNL     1     -10.603   9.947   5.397  0.00  0.00    +0.052 HD
ATOM    214  H   UNL     1      -9.493  11.335   5.629  0.00  0.00    +0.052 HD
ENDBRANCH 210 211
ENDBRANCH 197 210
ENDBRANCH 190 193
ENDBRANCH 187 190
ENDBRANCH 181 187
ENDBRANCH 177 181
ENDBRANCH 171 177
ENDBRANCH  22 171
BRANCH  20 215
ATOM    215  O   UNL     1     -15.487   6.378  13.220  0.00  0.00    -0.391 OA
ATOM    216  H   UNL     1     -15.745   5.443  13.176  0.00  0.00    +0.210 HD
ENDBRANCH  20 215
BRANCH  18 217
ATOM    217  O   UNL     1     -12.714   8.988  11.786  0.00  0.00    -0.391 OA
ATOM    218  H   UNL     1     -12.360   9.897  11.751  0.00  0.00    +0.210 HD
ENDBRANCH  18 217
BRANCH  10 219
ATOM    219  O   UNL     1      -9.176   5.300  16.028  0.00  0.00    -0.391 OA
ATOM    220  H   UNL     1      -8.420   4.727  15.817  0.00  0.00    +0.210 HD
ENDBRANCH  10 219
BRANCH  37 221
ATOM    221  O   UNL     1     -12.678  15.198  19.635  0.00  0.00    -0.379 OA
BRANCH 221 222
ATOM    222  C   UNL     1     -13.098  15.508  20.957  0.00  0.00    +0.037 C 
ATOM    223  H   UNL     1     -12.862  14.654  21.597  0.00  0.00    +0.052 HD
ATOM    224  H   UNL     1     -12.551  16.377  21.331  0.00  0.00    +0.052 HD
ATOM    225  H   UNL     1     -14.175  15.693  21.004  0.00  0.00    +0.052 HD
ENDBRANCH 221 222
ENDBRANCH  37 221
BRANCH  16 226
ATOM    226  O   UNL     1     -14.435  11.150  15.003  0.00  0.00    -0.379 OA
BRANCH 226 227
ATOM    227  C   UNL     1     -14.121  12.537  14.959  0.00  0.00    +0.037 C 
ATOM    228  H   UNL     1     -13.165  12.658  14.442  0.00  0.00    +0.052 HD
ATOM    229  H   UNL     1     -14.887  13.088  14.405  0.00  0.00    +0.052 HD
ATOM    230  H   UNL     1     -14.024  12.944  15.970  0.00  0.00    +0.052 HD
ENDBRANCH 226 227
ENDBRANCH  16 226
TORSDOF 40
ENDMDL
MODEL 10
REMARK VINA RESULT:      -4.9      2.581      3.981
REMARK  Name = Swinholide A_conf3
REMARK  40 active torsions:
REMARK  status: ('A' for Active; 'I' for Inactive)
REMARK    1  A    between atoms: C_1  and  C_2
REMARK    2  A    between atoms: C_4  and  C_10
REMARK    3  A    between atoms: C_6  and  O_8
REMARK    4  A    between atoms: O_8  and  C_9
REMARK    5  A    between atoms: C_10  and  C_11
REMARK    6  A    between atoms: C_11  and  C_12
REMARK    7  A    between atoms: C_12  and  C_13
REMARK    8  A    between atoms: C_12  and  C_98
REMARK    9  A    between atoms: C_13  and  O_14
REMARK   10  A    between atoms: C_13  and  C_15
REMARK   11  A    between atoms: C_15  and  C_16
REMARK   12  A    between atoms: C_15  and  C_97
REMARK   13  A    between atoms: C_22  and  C_96
REMARK   14  A    between atoms: C_25  and  O_95
REMARK   15  A    between atoms: C_31  and  O_90
REMARK   16  A    between atoms: C_32  and  C_89
REMARK   17  A    between atoms: C_33  and  O_88
REMARK   18  A    between atoms: C_35  and  O_87
REMARK   19  A    between atoms: C_36  and  C_86
REMARK   20  A    between atoms: C_37  and  C_69
REMARK   21  A    between atoms: C_43  and  C_68
REMARK   22  A    between atoms: C_46  and  O_67
REMARK   23  A    between atoms: C_52  and  O_62
REMARK   24  A    between atoms: C_53  and  C_61
REMARK   25  A    between atoms: C_54  and  O_60
REMARK   26  A    between atoms: C_56  and  O_59
REMARK   27  A    between atoms: C_57  and  C_58
REMARK   28  A    between atoms: O_62  and  C_63
REMARK   29  A    between atoms: C_69  and  C_70
REMARK   30  A    between atoms: C_69  and  C_85
REMARK   31  A    between atoms: C_70  and  O_71
REMARK   32  A    between atoms: C_70  and  C_72
REMARK   33  A    between atoms: C_72  and  C_73
REMARK   34  A    between atoms: C_72  and  C_84
REMARK   35  A    between atoms: C_73  and  C_74
REMARK   36  A    between atoms: C_74  and  C_75
REMARK   37  A    between atoms: C_77  and  C_83
REMARK   38  A    between atoms: C_79  and  O_81
REMARK   39  A    between atoms: O_81  and  C_82
REMARK   40  A    between atoms: O_90  and  C_91
REMARK                            x       y       z     vdW  Elec       q    Type
REMARK                         _______ _______ _______ _____ _____    ______ ____
ROOT
ATOM      1  C   UNL     1     -12.408  10.287  29.244  0.00  0.00    +0.113 C 
ATOM      2  O   UNL     1     -12.201  10.170  27.812  0.00  0.00    -0.458 OA
ATOM      3  C   UNL     1     -11.207  10.954  27.317  0.00  0.00    +0.332 C 
ATOM      4  O   UNL     1     -10.435  11.638  27.976  0.00  0.00    -0.246 OA
ATOM      5  C   UNL     1     -11.124  10.960  25.854  0.00  0.00    +0.023 C 
ATOM      6  C   UNL     1     -11.552  10.001  25.020  0.00  0.00    -0.052 C 
ATOM      7  C   UNL     1     -11.294  10.069  23.584  0.00  0.00    -0.054 C 
ATOM      8  C   UNL     1     -10.070  10.417  23.135  0.00  0.00    -0.079 C 
ATOM      9  C   UNL     1      -9.618  10.626  21.721  0.00  0.00    -0.008 C 
ATOM     10  C   UNL     1     -10.012  11.962  21.051  0.00  0.00    +0.061 C 
ATOM     11  C   UNL     1     -10.367  13.144  21.961  0.00  0.00    +0.003 C 
ATOM     12  C   UNL     1      -9.242  13.978  22.595  0.00  0.00    +0.080 C 
ATOM     13  O   UNL     1      -9.948  14.960  23.383  0.00  0.00    -0.369 OA
ATOM     14  C   UNL     1      -9.169  15.656  24.372  0.00  0.00    +0.065 C 
ATOM     15  C   UNL     1      -8.154  16.584  23.682  0.00  0.00    +0.000 C 
ATOM     16  C   UNL     1      -7.450  17.601  24.602  0.00  0.00    +0.066 C 
ATOM     17  C   UNL     1      -6.604  18.594  23.751  0.00  0.00    +0.009 C 
ATOM     18  C   UNL     1      -5.215  18.057  23.299  0.00  0.00    +0.063 C 
ATOM     19  C   UNL     1      -4.820  18.503  21.870  0.00  0.00    -0.000 C 
ATOM     20  C   UNL     1      -5.766  17.930  20.790  0.00  0.00    +0.064 C 
ATOM     21  C   UNL     1      -5.017  17.374  19.548  0.00  0.00    +0.020 C 
ATOM     22  C   UNL     1      -5.770  16.206  18.817  0.00  0.00    +0.113 C 
ATOM     23  O   UNL     1      -7.140  16.101  19.245  0.00  0.00    -0.458 OA
ATOM     24  C   UNL     1      -8.047  16.874  18.599  0.00  0.00    +0.332 C 
ATOM     25  O   UNL     1      -7.877  17.482  17.555  0.00  0.00    -0.246 OA
ATOM     26  C   UNL     1      -9.288  16.871  19.399  0.00  0.00    +0.023 C 
ATOM     27  C   UNL     1     -10.339  17.609  19.013  0.00  0.00    -0.052 C 
ATOM     28  C   UNL     1     -11.594  17.718  19.745  0.00  0.00    -0.054 C 
ATOM     29  C   UNL     1     -11.616  17.874  21.085  0.00  0.00    -0.079 C 
ATOM     30  C   UNL     1     -12.830  18.060  21.957  0.00  0.00    -0.008 C 
ATOM     31  C   UNL     1     -13.370  16.722  22.497  0.00  0.00    +0.061 C 
ATOM     32  C   UNL     1     -13.047  16.525  23.986  0.00  0.00    +0.003 C 
ATOM     33  C   UNL     1     -13.305  15.089  24.476  0.00  0.00    +0.080 C 
ATOM     34  O   UNL     1     -12.567  14.836  25.690  0.00  0.00    -0.369 OA
ATOM     35  C   UNL     1     -13.230  15.253  26.900  0.00  0.00    +0.065 C 
ATOM     36  C   UNL     1     -12.246  14.979  28.056  0.00  0.00    +0.000 C 
ATOM     37  C   UNL     1     -12.787  15.296  29.467  0.00  0.00    +0.066 C 
ATOM     38  C   UNL     1     -11.761  14.947  30.587  0.00  0.00    +0.009 C 
ATOM     39  C   UNL     1     -11.366  13.448  30.705  0.00  0.00    +0.063 C 
ATOM     40  C   UNL     1     -12.235  12.471  31.527  0.00  0.00    -0.000 C 
ATOM     41  C   UNL     1     -13.545  11.945  30.923  0.00  0.00    +0.064 C 
ATOM     42  C   UNL     1     -13.469  11.407  29.476  0.00  0.00    +0.020 C 
ATOM     43  C   UNL     1     -14.533  14.453  27.054  0.00  0.00    -0.008 C 
ATOM     44  C   UNL     1     -15.345  14.465  25.800  0.00  0.00    -0.083 C 
ATOM     45  C   UNL     1     -14.771  14.754  24.627  0.00  0.00    -0.059 C 
ATOM     46  C   UNL     1      -8.584  14.648  25.371  0.00  0.00    -0.008 C 
ATOM     47  C   UNL     1      -7.927  13.498  24.679  0.00  0.00    -0.083 C 
ATOM     48  C   UNL     1      -8.231  13.211  23.405  0.00  0.00    -0.059 C 
ATOM     49  H   UNL     1     -11.475  10.645  29.693  0.00  0.00    +0.074 HD
ATOM     50  H   UNL     1     -10.588  11.828  25.478  0.00  0.00    +0.069 HD
ATOM     51  H   UNL     1     -12.098   9.136  25.388  0.00  0.00    +0.062 HD
ATOM     52  H   UNL     1      -9.282  10.594  23.867  0.00  0.00    +0.058 HD
ATOM     53  H   UNL     1      -9.972   9.798  21.092  0.00  0.00    +0.033 HD
ATOM     54  H   UNL     1      -8.526  10.517  21.702  0.00  0.00    +0.033 HD
ATOM     55  H   UNL     1     -10.906  11.756  20.447  0.00  0.00    +0.060 HD
ATOM     56  H   UNL     1     -11.084  12.837  22.734  0.00  0.00    +0.032 HD
ATOM     57  H   UNL     1     -10.945  13.854  21.348  0.00  0.00    +0.032 HD
ATOM     58  H   UNL     1      -8.712  14.511  21.799  0.00  0.00    +0.064 HD
ATOM     59  H   UNL     1      -9.885  16.280  24.917  0.00  0.00    +0.060 HD
ATOM     60  H   UNL     1      -8.706  17.130  22.905  0.00  0.00    +0.032 HD
ATOM     61  H   UNL     1      -7.416  15.988  23.145  0.00  0.00    +0.032 HD
ATOM     62  H   UNL     1      -6.806  17.087  25.326  0.00  0.00    +0.060 HD
ATOM     63  H   UNL     1      -7.205  18.837  22.867  0.00  0.00    +0.035 HD
ATOM     64  H   UNL     1      -4.455  18.442  23.990  0.00  0.00    +0.060 HD
ATOM     65  H   UNL     1      -3.802  18.137  21.697  0.00  0.00    +0.032 HD
ATOM     66  H   UNL     1      -4.792  19.597  21.821  0.00  0.00    +0.032 HD
ATOM     67  H   UNL     1      -6.348  17.129  21.241  0.00  0.00    +0.060 HD
ATOM     68  H   UNL     1      -4.054  16.978  19.888  0.00  0.00    +0.036 HD
ATOM     69  H   UNL     1      -5.777  16.400  17.735  0.00  0.00    +0.074 HD
ATOM     70  H   UNL     1      -9.285  16.291  20.312  0.00  0.00    +0.069 HD
ATOM     71  H   UNL     1     -10.281  18.179  18.085  0.00  0.00    +0.062 HD
ATOM     72  H   UNL     1     -10.675  17.895  21.635  0.00  0.00    +0.058 HD
ATOM     73  H   UNL     1     -12.553  18.729  22.783  0.00  0.00    +0.033 HD
ATOM     74  H   UNL     1     -13.606  18.606  21.408  0.00  0.00    +0.033 HD
ATOM     75  H   UNL     1     -12.963  15.883  21.920  0.00  0.00    +0.060 HD
ATOM     76  H   UNL     1     -11.996  16.771  24.165  0.00  0.00    +0.032 HD
ATOM     77  H   UNL     1     -13.634  17.230  24.591  0.00  0.00    +0.032 HD
ATOM     78  H   UNL     1     -12.882  14.391  23.745  0.00  0.00    +0.064 HD
ATOM     79  H   UNL     1     -13.436  16.330  26.840  0.00  0.00    +0.060 HD
ATOM     80  H   UNL     1     -11.923  13.938  27.981  0.00  0.00    +0.032 HD
ATOM     81  H   UNL     1     -11.343  15.577  27.870  0.00  0.00    +0.032 HD
ATOM     82  H   UNL     1     -13.718  14.753  29.634  0.00  0.00    +0.060 HD
ATOM     83  H   UNL     1     -10.842  15.495  30.326  0.00  0.00    +0.035 HD
ATOM     84  H   UNL     1     -11.194  13.031  29.719  0.00  0.00    +0.060 HD
ATOM     85  H   UNL     1     -12.450  12.923  32.503  0.00  0.00    +0.032 HD
ATOM     86  H   UNL     1     -11.613  11.598  31.769  0.00  0.00    +0.032 HD
ATOM     87  H   UNL     1     -13.909  11.144  31.580  0.00  0.00    +0.060 HD
ATOM     88  H   UNL     1     -13.151  12.250  28.853  0.00  0.00    +0.036 HD
ATOM     89  H   UNL     1     -15.138  14.852  27.873  0.00  0.00    +0.033 HD
ATOM     90  H   UNL     1     -14.307  13.408  27.275  0.00  0.00    +0.033 HD
ATOM     91  H   UNL     1     -16.400  14.213  25.854  0.00  0.00    +0.057 HD
ATOM     92  H   UNL     1     -15.379  14.757  23.727  0.00  0.00    +0.059 HD
ATOM     93  H   UNL     1      -9.393  14.241  25.990  0.00  0.00    +0.033 HD
ATOM     94  H   UNL     1      -7.877  15.136  26.046  0.00  0.00    +0.033 HD
ATOM     95  H   UNL     1      -7.188  12.916  25.220  0.00  0.00    +0.057 HD
ATOM     96  H   UNL     1      -7.685  12.424  22.897  0.00  0.00    +0.059 HD
ENDROOT
BRANCH  28  97
ATOM     97  C   UNL     1     -12.813  17.688  18.862  0.00  0.00    -0.040 C 
ATOM     98  H   UNL     1     -13.572  18.419  19.150  0.00  0.00    +0.028 HD
ATOM     99  H   UNL     1     -12.538  17.886  17.820  0.00  0.00    +0.028 HD
ATOM    100  H   UNL     1     -13.292  16.703  18.912  0.00  0.00    +0.028 HD
ENDBRANCH  28  97
BRANCH  21 101
ATOM    101  C   UNL     1      -4.652  18.474  18.540  0.00  0.00    -0.057 C 
ATOM    102  H   UNL     1      -4.047  19.264  18.997  0.00  0.00    +0.023 HD
ATOM    103  H   UNL     1      -5.557  18.943  18.138  0.00  0.00    +0.023 HD
ATOM    104  H   UNL     1      -4.095  18.060  17.693  0.00  0.00    +0.023 HD
ENDBRANCH  21 101
BRANCH  42 105
ATOM    105  C   UNL     1     -14.867  11.079  28.924  0.00  0.00    -0.057 C 
ATOM    106  H   UNL     1     -15.425  10.465  29.639  0.00  0.00    +0.023 HD
ATOM    107  H   UNL     1     -15.458  11.984  28.745  0.00  0.00    +0.023 HD
ATOM    108  H   UNL     1     -14.816  10.494  28.004  0.00  0.00    +0.023 HD
ENDBRANCH  42 105
BRANCH  17 109
ATOM    109  C   UNL     1      -6.399  19.950  24.449  0.00  0.00    -0.058 C 
ATOM    110  H   UNL     1      -7.044  20.047  25.327  0.00  0.00    +0.023 HD
ATOM    111  H   UNL     1      -6.610  20.785  23.773  0.00  0.00    +0.023 HD
ATOM    112  H   UNL     1      -5.360  20.068  24.779  0.00  0.00    +0.023 HD
ENDBRANCH  17 109
BRANCH  38 113
ATOM    113  C   UNL     1     -12.167  15.525  31.952  0.00  0.00    -0.058 C 
ATOM    114  H   UNL     1     -11.654  16.470  32.156  0.00  0.00    +0.023 HD
ATOM    115  H   UNL     1     -13.248  15.703  32.000  0.00  0.00    +0.023 HD
ATOM    116  H   UNL     1     -11.928  14.828  32.762  0.00  0.00    +0.023 HD
ENDBRANCH  38 113
BRANCH   7 117
ATOM    117  C   UNL     1     -12.466   9.753  22.703  0.00  0.00    -0.040 C 
ATOM    118  H   UNL     1     -12.161   9.080  21.899  0.00  0.00    +0.028 HD
ATOM    119  H   UNL     1     -12.894  10.645  22.238  0.00  0.00    +0.028 HD
ATOM    120  H   UNL     1     -13.267   9.271  23.274  0.00  0.00    +0.028 HD
ENDBRANCH   7 117
BRANCH   1 121
ATOM    121  C   UNL     1     -12.613   8.889  29.903  0.00  0.00    +0.020 C 
ATOM    122  H   UNL     1     -13.482   8.988  30.565  0.00  0.00    +0.036 HD
BRANCH 121 123
ATOM    123  C   UNL     1     -12.953   7.744  28.953  0.00  0.00    -0.057 C 
ATOM    124  H   UNL     1     -12.061   7.318  28.489  0.00  0.00    +0.023 HD
ATOM    125  H   UNL     1     -13.494   6.950  29.477  0.00  0.00    +0.023 HD
ATOM    126  H   UNL     1     -13.637   8.070  28.168  0.00  0.00    +0.023 HD
ENDBRANCH 121 123
BRANCH 121 127
ATOM    127  C   UNL     1     -11.395   8.532  30.819  0.00  0.00    +0.064 C 
ATOM    128  H   UNL     1     -11.715   8.716  31.852  0.00  0.00    +0.060 HD
BRANCH 127 129
ATOM    129  C   UNL     1     -10.051   9.288  30.553  0.00  0.00    -0.017 C 
ATOM    130  H   UNL     1     -10.256  10.162  29.930  0.00  0.00    +0.032 HD
BRANCH 129 131
ATOM    131  C   UNL     1      -9.510   9.824  31.889  0.00  0.00    -0.060 C 
ATOM    132  H   UNL     1      -8.625  10.450  31.739  0.00  0.00    +0.023 HD
ATOM    133  H   UNL     1      -9.231   9.000  32.557  0.00  0.00    +0.023 HD
ATOM    134  H   UNL     1     -10.264  10.418  32.416  0.00  0.00    +0.023 HD
ENDBRANCH 129 131
BRANCH 129 135
ATOM    135  C   UNL     1      -8.969   8.423  29.864  0.00  0.00    -0.046 C 
ATOM    136  H   UNL     1      -9.116   7.367  30.105  0.00  0.00    +0.027 HD
ATOM    137  H   UNL     1      -7.982   8.684  30.270  0.00  0.00    +0.027 HD
BRANCH 135 138
ATOM    138  C   UNL     1      -8.877   8.546  28.333  0.00  0.00    -0.026 C 
ATOM    139  H   UNL     1      -7.810   8.472  28.079  0.00  0.00    +0.029 HD
ATOM    140  H   UNL     1      -9.198   9.545  28.014  0.00  0.00    +0.029 HD
BRANCH 138 143
ATOM    141  C   UNL     1     -10.100   5.092  27.635  0.00  0.00    +0.059 C 
ATOM    142  O   UNL     1      -9.708   6.283  28.328  0.00  0.00    -0.373 OA
ATOM    143  C   UNL     1      -9.640   7.473  27.540  0.00  0.00    +0.061 C 
ATOM    144  C   UNL     1      -8.946   7.207  26.202  0.00  0.00    -0.000 C 
ATOM    145  C   UNL     1      -9.677   6.126  25.396  0.00  0.00    +0.063 C 
ATOM    146  C   UNL     1     -10.685   5.363  26.255  0.00  0.00    -0.000 C 
ATOM    147  H   UNL     1      -9.200   4.474  27.534  0.00  0.00    +0.059 HD
ATOM    148  H   UNL     1     -10.661   7.830  27.360  0.00  0.00    +0.060 HD
ATOM    149  H   UNL     1      -8.852   8.140  25.637  0.00  0.00    +0.032 HD
ATOM    150  H   UNL     1      -7.931   6.840  26.404  0.00  0.00    +0.032 HD
ATOM    151  H   UNL     1      -8.944   5.410  24.999  0.00  0.00    +0.060 HD
ATOM    152  H   UNL     1     -10.964   4.429  25.752  0.00  0.00    +0.032 HD
ATOM    153  H   UNL     1     -11.611   5.942  26.345  0.00  0.00    +0.032 HD
BRANCH 141 154
ATOM    154  C   UNL     1     -11.094   4.347  28.516  0.00  0.00    -0.039 C 
ATOM    155  H   UNL     1     -10.933   3.265  28.469  0.00  0.00    +0.025 HD
ATOM    156  H   UNL     1     -11.002   4.668  29.558  0.00  0.00    +0.025 HD
ATOM    157  H   UNL     1     -12.124   4.559  28.208  0.00  0.00    +0.025 HD
ENDBRANCH 141 154
BRANCH 145 158
ATOM    158  O   UNL     1     -10.400   6.703  24.302  0.00  0.00    -0.380 OA
BRANCH 158 159
ATOM    159  C   UNL     1     -11.760   6.290  24.246  0.00  0.00    +0.037 C 
ATOM    160  H   UNL     1     -11.827   5.284  24.674  0.00  0.00    +0.052 HD
ATOM    161  H   UNL     1     -12.404   6.956  24.826  0.00  0.00    +0.052 HD
ATOM    162  H   UNL     1     -12.100   6.249  23.207  0.00  0.00    +0.052 HD
ENDBRANCH 158 159
ENDBRANCH 145 158
ENDBRANCH 138 143
ENDBRANCH 135 138
ENDBRANCH 129 135
ENDBRANCH 127 129
BRANCH 127 163
ATOM    163  O   UNL     1     -11.192   7.115  30.734  0.00  0.00    -0.391 OA
ATOM    164  H   UNL     1     -11.395   6.850  29.820  0.00  0.00    +0.210 HD
ENDBRANCH 127 163
ENDBRANCH 121 127
ENDBRANCH   1 121
BRANCH  41 165
ATOM    165  O   UNL     1     -14.514  12.995  30.998  0.00  0.00    -0.391 OA
ATOM    166  H   UNL     1     -14.490  13.473  30.152  0.00  0.00    +0.210 HD
ENDBRANCH  41 165
BRANCH  39 167
ATOM    167  O   UNL     1     -10.070  13.411  31.350  0.00  0.00    -0.391 OA
ATOM    168  H   UNL     1      -9.920  12.488  31.618  0.00  0.00    +0.210 HD
ENDBRANCH  39 167
BRANCH  31 169
ATOM    169  O   UNL     1     -14.789  16.700  22.308  0.00  0.00    -0.391 OA
ATOM    170  H   UNL     1     -15.072  17.618  22.139  0.00  0.00    +0.210 HD
ENDBRANCH  31 169
BRANCH  22 171
ATOM    171  C   UNL     1      -5.062  14.808  18.994  0.00  0.00    +0.020 C 
ATOM    172  H   UNL     1      -5.113  14.574  20.066  0.00  0.00    +0.036 HD
BRANCH 171 173
ATOM    173  C   UNL     1      -5.903  13.768  18.224  0.00  0.00    -0.057 C 
ATOM    174  H   UNL     1      -6.740  13.399  18.826  0.00  0.00    +0.023 HD
ATOM    175  H   UNL     1      -6.317  14.185  17.301  0.00  0.00    +0.023 HD
ATOM    176  H   UNL     1      -5.329  12.878  17.966  0.00  0.00    +0.023 HD
ENDBRANCH 171 173
BRANCH 171 177
ATOM    177  C   UNL     1      -3.551  14.779  18.585  0.00  0.00    +0.064 C 
ATOM    178  H   UNL     1      -3.255  13.735  18.423  0.00  0.00    +0.060 HD
BRANCH 177 179
ATOM    179  O   UNL     1      -3.414  15.461  17.338  0.00  0.00    -0.391 OA
ATOM    180  H   UNL     1      -2.477  15.721  17.220  0.00  0.00    +0.210 HD
ENDBRANCH 177 179
BRANCH 177 181
ATOM    181  C   UNL     1      -2.512  15.439  19.547  0.00  0.00    -0.017 C 
ATOM    182  H   UNL     1      -2.610  16.529  19.455  0.00  0.00    +0.032 HD
BRANCH 181 183
ATOM    183  C   UNL     1      -2.704  15.086  21.021  0.00  0.00    -0.060 C 
ATOM    184  H   UNL     1      -3.641  14.542  21.165  0.00  0.00    +0.023 HD
ATOM    185  H   UNL     1      -2.807  15.973  21.653  0.00  0.00    +0.023 HD
ATOM    186  H   UNL     1      -1.868  14.494  21.404  0.00  0.00    +0.023 HD
ENDBRANCH 181 183
BRANCH 181 187
ATOM    187  C   UNL     1      -1.073  15.086  19.061  0.00  0.00    -0.046 C 
ATOM    188  H   UNL     1      -0.982  15.348  18.000  0.00  0.00    +0.027 HD
ATOM    189  H   UNL     1      -0.926  14.000  19.129  0.00  0.00    +0.027 HD
BRANCH 187 190
ATOM    190  C   UNL     1       0.058  15.789  19.827  0.00  0.00    -0.026 C 
ATOM    191  H   UNL     1       0.353  16.702  19.298  0.00  0.00    +0.029 HD
ATOM    192  H   UNL     1      -0.323  16.078  20.815  0.00  0.00    +0.029 HD
BRANCH 190 193
ATOM    193  C   UNL     1       1.292  14.896  20.029  0.00  0.00    +0.061 C 
ATOM    194  O   UNL     1       2.174  15.542  20.952  0.00  0.00    -0.373 OA
ATOM    195  C   UNL     1       3.363  14.803  21.246  0.00  0.00    +0.059 C 
ATOM    196  C   UNL     1       4.151  14.489  19.970  0.00  0.00    -0.000 C 
ATOM    197  C   UNL     1       3.290  13.872  18.867  0.00  0.00    +0.063 C 
ATOM    198  C   UNL     1       2.003  14.677  18.691  0.00  0.00    -0.000 C 
ATOM    199  H   UNL     1       0.955  13.940  20.447  0.00  0.00    +0.060 HD
ATOM    200  H   UNL     1       3.984  15.476  21.852  0.00  0.00    +0.059 HD
ATOM    201  H   UNL     1       5.013  13.861  20.211  0.00  0.00    +0.032 HD
ATOM    202  H   UNL     1       4.543  15.439  19.581  0.00  0.00    +0.032 HD
ATOM    203  H   UNL     1       3.838  13.889  17.916  0.00  0.00    +0.060 HD
ATOM    204  H   UNL     1       1.330  14.165  17.993  0.00  0.00    +0.032 HD
ATOM    205  H   UNL     1       2.266  15.650  18.255  0.00  0.00    +0.032 HD
BRANCH 195 206
ATOM    206  C   UNL     1       3.076  13.586  22.123  0.00  0.00    -0.039 C 
ATOM    207  H   UNL     1       3.475  13.746  23.132  0.00  0.00    +0.025 HD
ATOM    208  H   UNL     1       3.539  12.687  21.705  0.00  0.00    +0.025 HD
ATOM    209  H   UNL     1       2.008  13.389  22.245  0.00  0.00    +0.025 HD
ENDBRANCH 195 206
BRANCH 197 210
ATOM    210  O   UNL     1       2.928  12.520  19.166  0.00  0.00    -0.380 OA
BRANCH 210 211
ATOM    211  C   UNL     1       1.929  11.995  18.301  0.00  0.00    +0.037 C 
ATOM    212  H   UNL     1       1.322  11.288  18.871  0.00  0.00    +0.052 HD
ATOM    213  H   UNL     1       1.279  12.797  17.939  0.00  0.00    +0.052 HD
ATOM    214  H   UNL     1       2.375  11.464  17.456  0.00  0.00    +0.052 HD
ENDBRANCH 210 211
ENDBRANCH 197 210
ENDBRANCH 190 193
ENDBRANCH 187 190
ENDBRANCH 181 187
ENDBRANCH 177 181
ENDBRANCH 171 177
ENDBRANCH  22 171
BRANCH  20 215
ATOM    215  O   UNL     1      -6.718  18.931  20.423  0.00  0.00    -0.391 OA
ATOM    216  H   UNL     1      -6.516  19.754  20.897  0.00  0.00    +0.210 HD
ENDBRANCH  20 215
BRANCH  18 217
ATOM    217  O   UNL     1      -5.104  16.632  23.368  0.00  0.00    -0.391 OA
ATOM    218  H   UNL     1      -5.884  16.265  22.911  0.00  0.00    +0.210 HD
ENDBRANCH  18 217
BRANCH  10 219
ATOM    219  O   UNL     1      -8.983  12.323  20.128  0.00  0.00    -0.391 OA
ATOM    220  H   UNL     1      -8.865  11.591  19.499  0.00  0.00    +0.210 HD
ENDBRANCH  10 219
BRANCH  37 221
ATOM    221  O   UNL     1     -13.024  16.716  29.488  0.00  0.00    -0.379 OA
BRANCH 221 222
ATOM    222  C   UNL     1     -14.380  17.060  29.736  0.00  0.00    +0.037 C 
ATOM    223  H   UNL     1     -14.734  16.463  30.581  0.00  0.00    +0.052 HD
ATOM    224  H   UNL     1     -14.457  18.116  30.007  0.00  0.00    +0.052 HD
ATOM    225  H   UNL     1     -15.014  16.848  28.869  0.00  0.00    +0.052 HD
ENDBRANCH 221 222
ENDBRANCH  37 221
BRANCH  16 226
ATOM    226  O   UNL     1      -8.485  18.335  25.279  0.00  0.00    -0.379 OA
BRANCH 226 227
ATOM    227  C   UNL     1      -8.437  18.203  26.694  0.00  0.00    +0.037 C 
ATOM    228  H   UNL     1      -8.543  17.144  26.946  0.00  0.00    +0.052 HD
ATOM    229  H   UNL     1      -7.477  18.557  27.082  0.00  0.00    +0.052 HD
ATOM    230  H   UNL     1      -9.257  18.756  27.163  0.00  0.00    +0.052 HD
ENDBRANCH 226 227
ENDBRANCH  16 226
TORSDOF 40
ENDMDL
