MODEL 1
REMARK VINA RESULT:      -5.5      0.000      0.000
REMARK  Name = Swinholide A_conf2
REMARK  40 active torsions:
REMARK  status: ('A' for Active; 'I' for Inactive)
REMARK    1  A    between atoms: C_1  and  C_2
REMARK    2  A    between atoms: C_4  and  C_10
REMARK    3  A    between atoms: C_6  and  O_8
REMARK    4  A    between atoms: O_8  and  C_9
REMARK    5  A    between atoms: C_10  and  C_11
REMARK    6  A    between atoms: C_11  and  C_12
REMARK    7  A    between atoms: C_12  and  C_13
REMARK    8  A    between atoms: C_12  and  C_98
REMARK    9  A    between atoms: C_13  and  O_14
REMARK   10  A    between atoms: C_13  and  C_15
REMARK   11  A    between atoms: C_15  and  C_16
REMARK   12  A    between atoms: C_15  and  C_97
REMARK   13  A    between atoms: C_22  and  C_96
REMARK   14  A    between atoms: C_25  and  O_95
REMARK   15  A    between atoms: C_31  and  O_90
REMARK   16  A    between atoms: C_32  and  C_89
REMARK   17  A    between atoms: C_33  and  O_88
REMARK   18  A    between atoms: C_35  and  O_87
REMARK   19  A    between atoms: C_36  and  C_86
REMARK   20  A    between atoms: C_37  and  C_69
REMARK   21  A    between atoms: C_43  and  C_68
REMARK   22  A    between atoms: C_46  and  O_67
REMARK   23  A    between atoms: C_52  and  O_62
REMARK   24  A    between atoms: C_53  and  C_61
REMARK   25  A    between atoms: C_54  and  O_60
REMARK   26  A    between atoms: C_56  and  O_59
REMARK   27  A    between atoms: C_57  and  C_58
REMARK   28  A    between atoms: O_62  and  C_63
REMARK   29  A    between atoms: C_69  and  C_70
REMARK   30  A    between atoms: C_69  and  C_85
REMARK   31  A    between atoms: C_70  and  O_71
REMARK   32  A    between atoms: C_70  and  C_72
REMARK   33  A    between atoms: C_72  and  C_73
REMARK   34  A    between atoms: C_72  and  C_84
REMARK   35  A    between atoms: C_73  and  C_74
REMARK   36  A    between atoms: C_74  and  C_75
REMARK   37  A    between atoms: C_77  and  C_83
REMARK   38  A    between atoms: C_79  and  O_81
REMARK   39  A    between atoms: O_81  and  C_82
REMARK   40  A    between atoms: O_90  and  C_91
REMARK                            x       y       z     vdW  Elec       q    Type
REMARK                         _______ _______ _______ _____ _____    ______ ____
ROOT
ATOM      1  C   UNL     1     -11.076   8.118  17.206  0.00  0.00    +0.113 C 
ATOM      2  O   UNL     1     -11.691   9.148  16.389  0.00  0.00    -0.458 OA
ATOM      3  C   UNL     1     -10.844  10.032  15.809  0.00  0.00    +0.332 C 
ATOM      4  O   UNL     1      -9.627  10.034  15.872  0.00  0.00    -0.246 OA
ATOM      5  C   UNL     1     -11.644  11.055  15.100  0.00  0.00    +0.023 C 
ATOM      6  C   UNL     1     -11.014  11.987  14.368  0.00  0.00    -0.052 C 
ATOM      7  C   UNL     1     -11.638  13.111  13.679  0.00  0.00    -0.054 C 
ATOM      8  C   UNL     1     -12.879  13.042  13.158  0.00  0.00    -0.079 C 
ATOM      9  C   UNL     1     -13.579  14.122  12.373  0.00  0.00    -0.008 C 
ATOM     10  C   UNL     1     -14.824  14.708  13.070  0.00  0.00    +0.061 C 
ATOM     11  C   UNL     1     -14.461  15.577  14.285  0.00  0.00    +0.003 C 
ATOM     12  C   UNL     1     -15.645  16.368  14.881  0.00  0.00    +0.080 C 
ATOM     13  O   UNL     1     -15.423  16.630  16.285  0.00  0.00    -0.369 OA
ATOM     14  C   UNL     1     -14.521  17.723  16.542  0.00  0.00    +0.065 C 
ATOM     15  C   UNL     1     -14.293  17.762  18.064  0.00  0.00    +0.000 C 
ATOM     16  C   UNL     1     -13.441  18.949  18.566  0.00  0.00    +0.066 C 
ATOM     17  C   UNL     1     -13.003  18.811  20.064  0.00  0.00    +0.009 C 
ATOM     18  C   UNL     1     -12.216  17.514  20.376  0.00  0.00    +0.063 C 
ATOM     19  C   UNL     1     -11.718  17.431  21.841  0.00  0.00    -0.000 C 
ATOM     20  C   UNL     1     -10.800  16.210  22.012  0.00  0.00    +0.064 C 
ATOM     21  C   UNL     1     -10.691  15.694  23.471  0.00  0.00    +0.020 C 
ATOM     22  C   UNL     1     -10.096  14.252  23.555  0.00  0.00    +0.113 C 
ATOM     23  O   UNL     1      -8.761  14.373  22.991  0.00  0.00    -0.458 OA
ATOM     24  C   UNL     1      -7.713  13.765  23.586  0.00  0.00    +0.332 C 
ATOM     25  O   UNL     1      -7.762  12.953  24.510  0.00  0.00    -0.246 OA
ATOM     26  C   UNL     1      -6.435  14.193  22.975  0.00  0.00    +0.023 C 
ATOM     27  C   UNL     1      -6.358  14.972  21.876  0.00  0.00    -0.052 C 
ATOM     28  C   UNL     1      -5.153  15.431  21.190  0.00  0.00    -0.054 C 
ATOM     29  C   UNL     1      -5.305  16.122  20.040  0.00  0.00    -0.079 C 
ATOM     30  C   UNL     1      -4.240  16.628  19.109  0.00  0.00    -0.008 C 
ATOM     31  C   UNL     1      -4.456  16.322  17.613  0.00  0.00    +0.061 C 
ATOM     32  C   UNL     1      -4.456  14.835  17.201  0.00  0.00    +0.003 C 
ATOM     33  C   UNL     1      -5.752  14.001  17.244  0.00  0.00    +0.080 C 
ATOM     34  O   UNL     1      -6.123  13.730  18.599  0.00  0.00    -0.369 OA
ATOM     35  C   UNL     1      -7.394  13.095  18.769  0.00  0.00    +0.065 C 
ATOM     36  C   UNL     1      -7.439  11.653  18.232  0.00  0.00    +0.000 C 
ATOM     37  C   UNL     1      -6.556  10.699  19.073  0.00  0.00    +0.066 C 
ATOM     38  C   UNL     1      -7.062   9.232  18.969  0.00  0.00    +0.009 C 
ATOM     39  C   UNL     1      -8.235   8.929  19.947  0.00  0.00    +0.063 C 
ATOM     40  C   UNL     1      -9.010   7.644  19.552  0.00  0.00    -0.000 C 
ATOM     41  C   UNL     1     -10.535   7.654  19.721  0.00  0.00    +0.064 C 
ATOM     42  C   UNL     1     -11.325   8.506  18.696  0.00  0.00    +0.020 C 
ATOM     43  C   UNL     1      -8.512  13.989  18.205  0.00  0.00    -0.008 C 
ATOM     44  C   UNL     1      -8.154  14.601  16.884  0.00  0.00    -0.083 C 
ATOM     45  C   UNL     1      -6.890  14.590  16.452  0.00  0.00    -0.059 C 
ATOM     46  C   UNL     1     -15.110  19.037  16.009  0.00  0.00    -0.008 C 
ATOM     47  C   UNL     1     -15.681  18.869  14.633  0.00  0.00    -0.083 C 
ATOM     48  C   UNL     1     -15.936  17.653  14.139  0.00  0.00    -0.059 C 
ATOM     49  H   UNL     1      -9.995   8.154  17.074  0.00  0.00    +0.074 HD
ATOM     50  H   UNL     1     -12.715  11.027  15.233  0.00  0.00    +0.069 HD
ATOM     51  H   UNL     1      -9.926  11.959  14.305  0.00  0.00    +0.062 HD
ATOM     52  H   UNL     1     -13.446  12.115  13.244  0.00  0.00    +0.058 HD
ATOM     53  H   UNL     1     -13.882  13.680  11.415  0.00  0.00    +0.033 HD
ATOM     54  H   UNL     1     -12.906  14.937  12.091  0.00  0.00    +0.033 HD
ATOM     55  H   UNL     1     -15.479  13.896  13.394  0.00  0.00    +0.060 HD
ATOM     56  H   UNL     1     -14.026  14.940  15.063  0.00  0.00    +0.032 HD
ATOM     57  H   UNL     1     -13.671  16.285  14.006  0.00  0.00    +0.032 HD
ATOM     58  H   UNL     1     -16.544  15.745  14.852  0.00  0.00    +0.064 HD
ATOM     59  H   UNL     1     -13.563  17.506  16.053  0.00  0.00    +0.060 HD
ATOM     60  H   UNL     1     -15.259  17.762  18.584  0.00  0.00    +0.032 HD
ATOM     61  H   UNL     1     -13.817  16.809  18.326  0.00  0.00    +0.032 HD
ATOM     62  H   UNL     1     -14.058  19.856  18.481  0.00  0.00    +0.060 HD
ATOM     63  H   UNL     1     -12.328  19.647  20.275  0.00  0.00    +0.035 HD
ATOM     64  H   UNL     1     -12.865  16.644  20.218  0.00  0.00    +0.060 HD
ATOM     65  H   UNL     1     -12.580  17.350  22.516  0.00  0.00    +0.032 HD
ATOM     66  H   UNL     1     -11.170  18.344  22.093  0.00  0.00    +0.032 HD
ATOM     67  H   UNL     1     -11.207  15.417  21.386  0.00  0.00    +0.060 HD
ATOM     68  H   UNL     1     -11.706  15.681  23.880  0.00  0.00    +0.036 HD
ATOM     69  H   UNL     1     -10.025  13.961  24.610  0.00  0.00    +0.074 HD
ATOM     70  H   UNL     1      -5.555  13.802  23.470  0.00  0.00    +0.069 HD
ATOM     71  H   UNL     1      -7.291  15.279  21.403  0.00  0.00    +0.062 HD
ATOM     72  H   UNL     1      -6.320  16.318  19.686  0.00  0.00    +0.058 HD
ATOM     73  H   UNL     1      -4.206  17.719  19.234  0.00  0.00    +0.033 HD
ATOM     74  H   UNL     1      -3.255  16.250  19.386  0.00  0.00    +0.033 HD
ATOM     75  H   UNL     1      -3.575  16.753  17.121  0.00  0.00    +0.060 HD
ATOM     76  H   UNL     1      -3.691  14.317  17.794  0.00  0.00    +0.032 HD
ATOM     77  H   UNL     1      -4.111  14.802  16.163  0.00  0.00    +0.032 HD
ATOM     78  H   UNL     1      -5.492  13.041  16.785  0.00  0.00    +0.064 HD
ATOM     79  H   UNL     1      -7.565  13.044  19.852  0.00  0.00    +0.060 HD
ATOM     80  H   UNL     1      -7.124  11.616  17.184  0.00  0.00    +0.032 HD
ATOM     81  H   UNL     1      -8.485  11.325  18.245  0.00  0.00    +0.032 HD
ATOM     82  H   UNL     1      -6.562  10.998  20.129  0.00  0.00    +0.060 HD
ATOM     83  H   UNL     1      -7.413   9.086  17.939  0.00  0.00    +0.035 HD
ATOM     84  H   UNL     1      -7.809   8.771  20.948  0.00  0.00    +0.060 HD
ATOM     85  H   UNL     1      -8.609   6.836  20.185  0.00  0.00    +0.032 HD
ATOM     86  H   UNL     1      -8.749   7.339  18.537  0.00  0.00    +0.032 HD
ATOM     87  H   UNL     1     -10.905   6.626  19.663  0.00  0.00    +0.060 HD
ATOM     88  H   UNL     1     -10.996   9.550  18.788  0.00  0.00    +0.036 HD
ATOM     89  H   UNL     1      -9.448  13.427  18.113  0.00  0.00    +0.033 HD
ATOM     90  H   UNL     1      -8.693  14.821  18.897  0.00  0.00    +0.033 HD
ATOM     91  H   UNL     1      -8.936  15.089  16.312  0.00  0.00    +0.057 HD
ATOM     92  H   UNL     1      -6.646  15.042  15.491  0.00  0.00    +0.059 HD
ATOM     93  H   UNL     1     -15.906  19.399  16.666  0.00  0.00    +0.033 HD
ATOM     94  H   UNL     1     -14.331  19.808  15.981  0.00  0.00    +0.033 HD
ATOM     95  H   UNL     1     -15.906  19.758  14.058  0.00  0.00    +0.057 HD
ATOM     96  H   UNL     1     -16.356  17.562  13.141  0.00  0.00    +0.059 HD
ENDROOT
BRANCH  28  97
ATOM     97  C   UNL     1      -3.820  15.085  21.803  0.00  0.00    -0.040 C 
ATOM     98  H   UNL     1      -3.796  14.029  22.088  0.00  0.00    +0.028 HD
ATOM     99  H   UNL     1      -3.601  15.642  22.719  0.00  0.00    +0.028 HD
ATOM    100  H   UNL     1      -3.004  15.281  21.099  0.00  0.00    +0.028 HD
ENDBRANCH  28  97
BRANCH  21 101
ATOM    101  C   UNL     1      -9.883  16.641  24.369  0.00  0.00    -0.057 C 
ATOM    102  H   UNL     1      -8.959  16.959  23.881  0.00  0.00    +0.023 HD
ATOM    103  H   UNL     1     -10.465  17.539  24.591  0.00  0.00    +0.023 HD
ATOM    104  H   UNL     1      -9.614  16.184  25.326  0.00  0.00    +0.023 HD
ENDBRANCH  21 101
BRANCH  42 105
ATOM    105  C   UNL     1     -12.812   8.574  19.088  0.00  0.00    -0.057 C 
ATOM    106  H   UNL     1     -12.998   8.079  20.043  0.00  0.00    +0.023 HD
ATOM    107  H   UNL     1     -13.458   8.142  18.320  0.00  0.00    +0.023 HD
ATOM    108  H   UNL     1     -13.115   9.616  19.218  0.00  0.00    +0.023 HD
ENDBRANCH  42 105
BRANCH  17 109
ATOM    109  C   UNL     1     -14.212  18.970  20.994  0.00  0.00    -0.058 C 
ATOM    110  H   UNL     1     -15.093  18.474  20.589  0.00  0.00    +0.023 HD
ATOM    111  H   UNL     1     -14.469  20.027  21.109  0.00  0.00    +0.023 HD
ATOM    112  H   UNL     1     -14.014  18.565  21.986  0.00  0.00    +0.023 HD
ENDBRANCH  17 109
BRANCH  38 113
ATOM    113  C   UNL     1      -5.949   8.194  19.202  0.00  0.00    -0.058 C 
ATOM    114  H   UNL     1      -5.325   8.047  18.313  0.00  0.00    +0.023 HD
ATOM    115  H   UNL     1      -5.292   8.506  20.029  0.00  0.00    +0.023 HD
ATOM    116  H   UNL     1      -6.365   7.216  19.462  0.00  0.00    +0.023 HD
ENDBRANCH  38 113
BRANCH   7 117
ATOM    117  C   UNL     1     -10.765  14.334  13.568  0.00  0.00    -0.040 C 
ATOM    118  H   UNL     1     -10.827  14.928  14.484  0.00  0.00    +0.028 HD
ATOM    119  H   UNL     1     -11.073  14.969  12.732  0.00  0.00    +0.028 HD
ATOM    120  H   UNL     1      -9.715  14.074  13.390  0.00  0.00    +0.028 HD
ENDBRANCH   7 117
BRANCH   1 121
ATOM    121  C   UNL     1     -11.524   6.707  16.725  0.00  0.00    +0.020 C 
ATOM    122  H   UNL     1     -12.050   6.206  17.544  0.00  0.00    +0.036 HD
BRANCH 121 123
ATOM    123  C   UNL     1     -12.508   6.737  15.540  0.00  0.00    -0.057 C 
ATOM    124  H   UNL     1     -13.540   6.908  15.858  0.00  0.00    +0.023 HD
ATOM    125  H   UNL     1     -12.240   7.519  14.824  0.00  0.00    +0.023 HD
ATOM    126  H   UNL     1     -12.466   5.806  14.971  0.00  0.00    +0.023 HD
ENDBRANCH 121 123
BRANCH 121 127
ATOM    127  C   UNL     1     -10.316   5.796  16.319  0.00  0.00    +0.064 C 
ATOM    128  H   UNL     1      -9.936   5.303  17.223  0.00  0.00    +0.060 HD
BRANCH 127 129
ATOM    129  C   UNL     1      -9.112   6.526  15.657  0.00  0.00    -0.017 C 
ATOM    130  H   UNL     1      -9.243   7.607  15.755  0.00  0.00    +0.032 HD
BRANCH 129 131
ATOM    131  C   UNL     1      -7.786   6.139  16.321  0.00  0.00    -0.060 C 
ATOM    132  H   UNL     1      -7.078   6.971  16.353  0.00  0.00    +0.023 HD
ATOM    133  H   UNL     1      -7.945   5.792  17.349  0.00  0.00    +0.023 HD
ATOM    134  H   UNL     1      -7.295   5.331  15.766  0.00  0.00    +0.023 HD
ENDBRANCH 129 131
BRANCH 129 135
ATOM    135  C   UNL     1      -8.979   6.235  14.139  0.00  0.00    -0.046 C 
ATOM    136  H   UNL     1      -7.912   6.128  13.912  0.00  0.00    +0.027 HD
ATOM    137  H   UNL     1      -9.445   5.274  13.892  0.00  0.00    +0.027 HD
BRANCH 135 138
ATOM    138  C   UNL     1      -9.564   7.326  13.232  0.00  0.00    -0.026 C 
ATOM    139  H   UNL     1     -10.385   7.835  13.745  0.00  0.00    +0.029 HD
ATOM    140  H   UNL     1      -8.791   8.081  13.040  0.00  0.00    +0.029 HD
BRANCH 138 143
ATOM    141  C   UNL     1      -8.194   7.208  10.503  0.00  0.00    +0.059 C 
ATOM    142  O   UNL     1      -9.073   6.233  11.075  0.00  0.00    -0.373 OA
ATOM    143  C   UNL     1     -10.109   6.764  11.908  0.00  0.00    +0.061 C 
ATOM    144  C   UNL     1     -10.942   7.783  11.129  0.00  0.00    -0.000 C 
ATOM    145  C   UNL     1     -10.070   8.870  10.504  0.00  0.00    +0.063 C 
ATOM    146  C   UNL     1      -8.971   8.218   9.669  0.00  0.00    -0.000 C 
ATOM    147  H   UNL     1      -7.648   7.712  11.307  0.00  0.00    +0.059 HD
ATOM    148  H   UNL     1     -10.760   5.915  12.155  0.00  0.00    +0.060 HD
ATOM    149  H   UNL     1     -11.480   7.260  10.324  0.00  0.00    +0.032 HD
ATOM    150  H   UNL     1     -11.715   8.228  11.766  0.00  0.00    +0.032 HD
ATOM    151  H   UNL     1      -9.629   9.482  11.301  0.00  0.00    +0.060 HD
ATOM    152  H   UNL     1      -8.292   8.975   9.258  0.00  0.00    +0.032 HD
ATOM    153  H   UNL     1      -9.436   7.721   8.804  0.00  0.00    +0.032 HD
BRANCH 141 154
ATOM    154  C   UNL     1      -7.182   6.458   9.651  0.00  0.00    -0.039 C 
ATOM    155  H   UNL     1      -6.515   7.144   9.121  0.00  0.00    +0.025 HD
ATOM    156  H   UNL     1      -6.573   5.793  10.276  0.00  0.00    +0.025 HD
ATOM    157  H   UNL     1      -7.686   5.819   8.917  0.00  0.00    +0.025 HD
ENDBRANCH 141 154
BRANCH 145 158
ATOM    158  O   UNL     1     -10.926   9.701   9.714  0.00  0.00    -0.380 OA
BRANCH 158 159
ATOM    159  C   UNL     1     -11.593  10.704  10.470  0.00  0.00    +0.037 C 
ATOM    160  H   UNL     1     -11.741  11.573   9.823  0.00  0.00    +0.052 HD
ATOM    161  H   UNL     1     -10.984  11.014  11.320  0.00  0.00    +0.052 HD
ATOM    162  H   UNL     1     -12.574  10.362  10.811  0.00  0.00    +0.052 HD
ENDBRANCH 158 159
ENDBRANCH 145 158
ENDBRANCH 138 143
ENDBRANCH 135 138
ENDBRANCH 129 135
ENDBRANCH 127 129
BRANCH 127 163
ATOM    163  O   UNL     1     -10.775   4.759  15.454  0.00  0.00    -0.391 OA
ATOM    164  H   UNL     1     -11.015   3.993  15.999  0.00  0.00    +0.210 HD
ENDBRANCH 127 163
ENDBRANCH 121 127
ENDBRANCH   1 121
BRANCH  41 165
ATOM    165  O   UNL     1     -10.823   8.125  21.048  0.00  0.00    -0.391 OA
ATOM    166  H   UNL     1     -10.069   7.875  21.612  0.00  0.00    +0.210 HD
ENDBRANCH  41 165
BRANCH  39 167
ATOM    167  O   UNL     1      -9.094  10.045  20.084  0.00  0.00    -0.391 OA
ATOM    168  H   UNL     1      -8.596  10.736  20.572  0.00  0.00    +0.210 HD
ENDBRANCH  39 167
BRANCH  31 169
ATOM    169  O   UNL     1      -5.551  17.039  17.052  0.00  0.00    -0.391 OA
ATOM    170  H   UNL     1      -5.293  17.973  16.953  0.00  0.00    +0.210 HD
ENDBRANCH  31 169
BRANCH  22 171
ATOM    171  C   UNL     1     -10.888  13.154  22.772  0.00  0.00    +0.020 C 
ATOM    172  H   UNL     1     -11.916  13.509  22.676  0.00  0.00    +0.036 HD
BRANCH 171 173
ATOM    173  C   UNL     1     -10.402  13.050  21.313  0.00  0.00    -0.057 C 
ATOM    174  H   UNL     1     -10.694  12.091  20.870  0.00  0.00    +0.023 HD
ATOM    175  H   UNL     1     -10.841  13.841  20.693  0.00  0.00    +0.023 HD
ATOM    176  H   UNL     1      -9.315  13.158  21.242  0.00  0.00    +0.023 HD
ENDBRANCH 171 173
BRANCH 171 177
ATOM    177  C   UNL     1     -10.896  11.707  23.376  0.00  0.00    +0.064 C 
ATOM    178  H   UNL     1     -11.703  11.128  22.904  0.00  0.00    +0.060 HD
BRANCH 177 179
ATOM    179  O   UNL     1      -9.698  11.010  23.041  0.00  0.00    -0.391 OA
ATOM    180  H   UNL     1      -9.165  10.928  23.852  0.00  0.00    +0.210 HD
ENDBRANCH 177 179
BRANCH 177 181
ATOM    181  C   UNL     1     -11.117  11.658  24.928  0.00  0.00    -0.017 C 
ATOM    182  H   UNL     1     -10.632  12.542  25.366  0.00  0.00    +0.032 HD
BRANCH 181 183
ATOM    183  C   UNL     1     -12.614  11.686  25.278  0.00  0.00    -0.060 C 
ATOM    184  H   UNL     1     -12.992  12.710  25.194  0.00  0.00    +0.023 HD
ATOM    185  H   UNL     1     -12.822  11.326  26.289  0.00  0.00    +0.023 HD
ATOM    186  H   UNL     1     -13.196  11.040  24.617  0.00  0.00    +0.023 HD
ENDBRANCH 181 183
BRANCH 181 187
ATOM    187  C   UNL     1     -10.446  10.400  25.556  0.00  0.00    -0.046 C 
ATOM    188  H   UNL     1      -9.463  10.256  25.101  0.00  0.00    +0.027 HD
ATOM    189  H   UNL     1     -11.061   9.529  25.301  0.00  0.00    +0.027 HD
BRANCH 187 190
ATOM    190  C   UNL     1     -10.271  10.470  27.086  0.00  0.00    -0.026 C 
ATOM    191  H   UNL     1     -11.080   9.896  27.548  0.00  0.00    +0.029 HD
ATOM    192  H   UNL     1     -10.393  11.512  27.405  0.00  0.00    +0.029 HD
BRANCH 190 193
ATOM    193  C   UNL     1      -8.969   9.912  27.702  0.00  0.00    +0.061 C 
ATOM    194  O   UNL     1      -8.451   8.784  26.998  0.00  0.00    -0.373 OA
ATOM    195  C   UNL     1      -8.959   7.510  27.377  0.00  0.00    +0.059 C 
ATOM    196  C   UNL     1      -8.785   7.259  28.868  0.00  0.00    -0.000 C 
ATOM    197  C   UNL     1      -9.466   8.369  29.676  0.00  0.00    +0.063 C 
ATOM    198  C   UNL     1      -8.945   9.730  29.220  0.00  0.00    -0.000 C 
ATOM    199  H   UNL     1      -8.228  10.697  27.494  0.00  0.00    +0.060 HD
ATOM    200  H   UNL     1     -10.015   7.448  27.097  0.00  0.00    +0.059 HD
ATOM    201  H   UNL     1      -9.201   6.282  29.136  0.00  0.00    +0.032 HD
ATOM    202  H   UNL     1      -7.724   7.232  29.141  0.00  0.00    +0.032 HD
ATOM    203  H   UNL     1     -10.548   8.313  29.533  0.00  0.00    +0.060 HD
ATOM    204  H   UNL     1      -7.899   9.801  29.552  0.00  0.00    +0.032 HD
ATOM    205  H   UNL     1      -9.471  10.545  29.732  0.00  0.00    +0.032 HD
BRANCH 195 206
ATOM    206  C   UNL     1      -8.196   6.461  26.578  0.00  0.00    -0.039 C 
ATOM    207  H   UNL     1      -7.166   6.776  26.402  0.00  0.00    +0.025 HD
ATOM    208  H   UNL     1      -8.181   5.505  27.105  0.00  0.00    +0.025 HD
ATOM    209  H   UNL     1      -8.672   6.279  25.611  0.00  0.00    +0.025 HD
ENDBRANCH 195 206
BRANCH 197 210
ATOM    210  O   UNL     1      -9.209   8.273  31.083  0.00  0.00    -0.380 OA
BRANCH 210 211
ATOM    211  C   UNL     1      -9.270   9.513  31.770  0.00  0.00    +0.037 C 
ATOM    212  H   UNL     1      -8.998  10.327  31.098  0.00  0.00    +0.052 HD
ATOM    213  H   UNL     1     -10.303   9.677  32.090  0.00  0.00    +0.052 HD
ATOM    214  H   UNL     1      -8.626   9.512  32.652  0.00  0.00    +0.052 HD
ENDBRANCH 210 211
ENDBRANCH 197 210
ENDBRANCH 190 193
ENDBRANCH 187 190
ENDBRANCH 181 187
ENDBRANCH 177 181
ENDBRANCH 171 177
ENDBRANCH  22 171
BRANCH  20 215
ATOM    215  O   UNL     1      -9.532  16.565  21.444  0.00  0.00    -0.391 OA
ATOM    216  H   UNL     1      -9.676  16.904  20.544  0.00  0.00    +0.210 HD
ENDBRANCH  20 215
BRANCH  18 217
ATOM    217  O   UNL     1     -11.132  17.396  19.461  0.00  0.00    -0.391 OA
ATOM    218  H   UNL     1     -10.844  16.460  19.397  0.00  0.00    +0.210 HD
ENDBRANCH  18 217
BRANCH  10 219
ATOM    219  O   UNL     1     -15.548  15.467  12.100  0.00  0.00    -0.391 OA
ATOM    220  H   UNL     1     -15.573  16.392  12.405  0.00  0.00    +0.210 HD
ENDBRANCH  10 219
BRANCH  37 221
ATOM    221  O   UNL     1      -5.226  10.778  18.537  0.00  0.00    -0.379 OA
BRANCH 221 222
ATOM    222  C   UNL     1      -5.195  10.586  17.129  0.00  0.00    +0.037 C 
ATOM    223  H   UNL     1      -5.230  11.549  16.609  0.00  0.00    +0.052 HD
ATOM    224  H   UNL     1      -6.027   9.958  16.798  0.00  0.00    +0.052 HD
ATOM    225  H   UNL     1      -4.258  10.083  16.865  0.00  0.00    +0.052 HD
ENDBRANCH 221 222
ENDBRANCH  37 221
BRANCH  16 226
ATOM    226  O   UNL     1     -12.341  19.105  17.660  0.00  0.00    -0.379 OA
BRANCH 226 227
ATOM    227  C   UNL     1     -11.792  20.414  17.609  0.00  0.00    +0.037 C 
ATOM    228  H   UNL     1     -10.792  20.374  18.047  0.00  0.00    +0.052 HD
ATOM    229  H   UNL     1     -11.697  20.762  16.574  0.00  0.00    +0.052 HD
ATOM    230  H   UNL     1     -12.387  21.119  18.196  0.00  0.00    +0.052 HD
ENDBRANCH 226 227
ENDBRANCH  16 226
TORSDOF 40
ENDMDL
MODEL 2
REMARK VINA RESULT:      -5.5      3.468     10.549
REMARK  Name = Swinholide A_conf2
REMARK  40 active torsions:
REMARK  status: ('A' for Active; 'I' for Inactive)
REMARK    1  A    between atoms: C_1  and  C_2
REMARK    2  A    between atoms: C_4  and  C_10
REMARK    3  A    between atoms: C_6  and  O_8
REMARK    4  A    between atoms: O_8  and  C_9
REMARK    5  A    between atoms: C_10  and  C_11
REMARK    6  A    between atoms: C_11  and  C_12
REMARK    7  A    between atoms: C_12  and  C_13
REMARK    8  A    between atoms: C_12  and  C_98
REMARK    9  A    between atoms: C_13  and  O_14
REMARK   10  A    between atoms: C_13  and  C_15
REMARK   11  A    between atoms: C_15  and  C_16
REMARK   12  A    between atoms: C_15  and  C_97
REMARK   13  A    between atoms: C_22  and  C_96
REMARK   14  A    between atoms: C_25  and  O_95
REMARK   15  A    between atoms: C_31  and  O_90
REMARK   16  A    between atoms: C_32  and  C_89
REMARK   17  A    between atoms: C_33  and  O_88
REMARK   18  A    between atoms: C_35  and  O_87
REMARK   19  A    between atoms: C_36  and  C_86
REMARK   20  A    between atoms: C_37  and  C_69
REMARK   21  A    between atoms: C_43  and  C_68
REMARK   22  A    between atoms: C_46  and  O_67
REMARK   23  A    between atoms: C_52  and  O_62
REMARK   24  A    between atoms: C_53  and  C_61
REMARK   25  A    between atoms: C_54  and  O_60
REMARK   26  A    between atoms: C_56  and  O_59
REMARK   27  A    between atoms: C_57  and  C_58
REMARK   28  A    between atoms: O_62  and  C_63
REMARK   29  A    between atoms: C_69  and  C_70
REMARK   30  A    between atoms: C_69  and  C_85
REMARK   31  A    between atoms: C_70  and  O_71
REMARK   32  A    between atoms: C_70  and  C_72
REMARK   33  A    between atoms: C_72  and  C_73
REMARK   34  A    between atoms: C_72  and  C_84
REMARK   35  A    between atoms: C_73  and  C_74
REMARK   36  A    between atoms: C_74  and  C_75
REMARK   37  A    between atoms: C_77  and  C_83
REMARK   38  A    between atoms: C_79  and  O_81
REMARK   39  A    between atoms: O_81  and  C_82
REMARK   40  A    between atoms: O_90  and  C_91
REMARK                            x       y       z     vdW  Elec       q    Type
REMARK                         _______ _______ _______ _____ _____    ______ ____
ROOT
ATOM      1  C   UNL     1     -10.681  15.000  26.019  0.00  0.00    +0.113 C 
ATOM      2  O   UNL     1     -11.108  16.290  25.508  0.00  0.00    -0.458 OA
ATOM      3  C   UNL     1     -12.037  16.262  24.522  0.00  0.00    +0.332 C 
ATOM      4  O   UNL     1     -12.574  15.277  24.047  0.00  0.00    -0.246 OA
ATOM      5  C   UNL     1     -12.281  17.647  24.064  0.00  0.00    +0.023 C 
ATOM      6  C   UNL     1     -13.238  17.876  23.152  0.00  0.00    -0.052 C 
ATOM      7  C   UNL     1     -13.550  19.159  22.532  0.00  0.00    -0.054 C 
ATOM      8  C   UNL     1     -13.401  20.331  23.181  0.00  0.00    -0.079 C 
ATOM      9  C   UNL     1     -13.761  21.697  22.650  0.00  0.00    -0.008 C 
ATOM     10  C   UNL     1     -12.554  22.633  22.439  0.00  0.00    +0.061 C 
ATOM     11  C   UNL     1     -11.679  22.205  21.250  0.00  0.00    +0.003 C 
ATOM     12  C   UNL     1     -10.592  23.227  20.855  0.00  0.00    +0.080 C 
ATOM     13  O   UNL     1      -9.476  22.561  20.223  0.00  0.00    -0.369 OA
ATOM     14  C   UNL     1      -9.703  22.219  18.842  0.00  0.00    +0.065 C 
ATOM     15  C   UNL     1      -8.484  21.399  18.382  0.00  0.00    +0.000 C 
ATOM     16  C   UNL     1      -8.475  21.033  16.881  0.00  0.00    +0.066 C 
ATOM     17  C   UNL     1      -7.376  19.980  16.505  0.00  0.00    +0.009 C 
ATOM     18  C   UNL     1      -7.470  18.656  17.303  0.00  0.00    +0.063 C 
ATOM     19  C   UNL     1      -6.431  17.594  16.862  0.00  0.00    -0.000 C 
ATOM     20  C   UNL     1      -6.712  16.261  17.573  0.00  0.00    +0.064 C 
ATOM     21  C   UNL     1      -5.484  15.318  17.670  0.00  0.00    +0.020 C 
ATOM     22  C   UNL     1      -5.682  14.181  18.722  0.00  0.00    +0.113 C 
ATOM     23  O   UNL     1      -6.826  13.425  18.233  0.00  0.00    -0.458 OA
ATOM     24  C   UNL     1      -6.808  12.075  18.250  0.00  0.00    +0.332 C 
ATOM     25  O   UNL     1      -5.966  11.358  18.792  0.00  0.00    -0.246 OA
ATOM     26  C   UNL     1      -7.968  11.521  17.519  0.00  0.00    +0.023 C 
ATOM     27  C   UNL     1      -8.975  12.277  17.034  0.00  0.00    -0.052 C 
ATOM     28  C   UNL     1     -10.166  11.826  16.318  0.00  0.00    -0.054 C 
ATOM     29  C   UNL     1     -11.105  12.745  16.012  0.00  0.00    -0.079 C 
ATOM     30  C   UNL     1     -12.442  12.531  15.361  0.00  0.00    -0.008 C 
ATOM     31  C   UNL     1     -13.641  13.212  16.051  0.00  0.00    +0.061 C 
ATOM     32  C   UNL     1     -13.983  12.737  17.479  0.00  0.00    +0.003 C 
ATOM     33  C   UNL     1     -13.305  13.373  18.710  0.00  0.00    +0.080 C 
ATOM     34  O   UNL     1     -11.938  12.961  18.791  0.00  0.00    -0.369 OA
ATOM     35  C   UNL     1     -11.164  13.610  19.805  0.00  0.00    +0.065 C 
ATOM     36  C   UNL     1     -11.593  13.245  21.237  0.00  0.00    +0.000 C 
ATOM     37  C   UNL     1     -11.276  11.767  21.573  0.00  0.00    +0.066 C 
ATOM     38  C   UNL     1     -11.104  11.566  23.105  0.00  0.00    +0.009 C 
ATOM     39  C   UNL     1      -9.675  11.935  23.603  0.00  0.00    +0.063 C 
ATOM     40  C   UNL     1      -9.628  12.151  25.139  0.00  0.00    -0.000 C 
ATOM     41  C   UNL     1      -8.739  13.284  25.669  0.00  0.00    +0.064 C 
ATOM     42  C   UNL     1      -9.261  14.724  25.432  0.00  0.00    +0.020 C 
ATOM     43  C   UNL     1     -11.125  15.128  19.551  0.00  0.00    -0.008 C 
ATOM     44  C   UNL     1     -12.460  15.685  19.160  0.00  0.00    -0.083 C 
ATOM     45  C   UNL     1     -13.452  14.871  18.788  0.00  0.00    -0.059 C 
ATOM     46  C   UNL     1      -9.899  23.491  18.004  0.00  0.00    -0.008 C 
ATOM     47  C   UNL     1     -10.822  24.461  18.677  0.00  0.00    -0.083 C 
ATOM     48  C   UNL     1     -11.115  24.341  19.977  0.00  0.00    -0.059 C 
ATOM     49  H   UNL     1     -11.321  14.222  25.606  0.00  0.00    +0.074 HD
ATOM     50  H   UNL     1     -11.644  18.421  24.466  0.00  0.00    +0.069 HD
ATOM     51  H   UNL     1     -13.821  17.034  22.780  0.00  0.00    +0.062 HD
ATOM     52  H   UNL     1     -13.040  20.334  24.208  0.00  0.00    +0.058 HD
ATOM     53  H   UNL     1     -14.445  22.155  23.376  0.00  0.00    +0.033 HD
ATOM     54  H   UNL     1     -14.344  21.646  21.726  0.00  0.00    +0.033 HD
ATOM     55  H   UNL     1     -11.943  22.653  23.345  0.00  0.00    +0.060 HD
ATOM     56  H   UNL     1     -11.202  21.246  21.484  0.00  0.00    +0.032 HD
ATOM     57  H   UNL     1     -12.315  22.014  20.378  0.00  0.00    +0.032 HD
ATOM     58  H   UNL     1     -10.173  23.675  21.762  0.00  0.00    +0.064 HD
ATOM     59  H   UNL     1     -10.593  21.581  18.783  0.00  0.00    +0.060 HD
ATOM     60  H   UNL     1      -7.560  21.936  18.631  0.00  0.00    +0.032 HD
ATOM     61  H   UNL     1      -8.475  20.493  18.999  0.00  0.00    +0.032 HD
ATOM     62  H   UNL     1      -8.260  21.953  16.319  0.00  0.00    +0.060 HD
ATOM     63  H   UNL     1      -7.529  19.725  15.451  0.00  0.00    +0.035 HD
ATOM     64  H   UNL     1      -7.282  18.853  18.365  0.00  0.00    +0.060 HD
ATOM     65  H   UNL     1      -5.421  17.946  17.110  0.00  0.00    +0.032 HD
ATOM     66  H   UNL     1      -6.488  17.455  15.778  0.00  0.00    +0.032 HD
ATOM     67  H   UNL     1      -7.052  16.504  18.580  0.00  0.00    +0.060 HD
ATOM     68  H   UNL     1      -4.633  15.935  17.975  0.00  0.00    +0.036 HD
ATOM     69  H   UNL     1      -4.791  13.541  18.721  0.00  0.00    +0.074 HD
ATOM     70  H   UNL     1      -7.958  10.442  17.426  0.00  0.00    +0.069 HD
ATOM     71  H   UNL     1      -8.939  13.351  17.217  0.00  0.00    +0.062 HD
ATOM     72  H   UNL     1     -10.924  13.784  16.299  0.00  0.00    +0.058 HD
ATOM     73  H   UNL     1     -12.363  12.929  14.341  0.00  0.00    +0.033 HD
ATOM     74  H   UNL     1     -12.675  11.469  15.267  0.00  0.00    +0.033 HD
ATOM     75  H   UNL     1     -14.504  12.920  15.441  0.00  0.00    +0.060 HD
ATOM     76  H   UNL     1     -13.830  11.651  17.523  0.00  0.00    +0.032 HD
ATOM     77  H   UNL     1     -15.057  12.899  17.610  0.00  0.00    +0.032 HD
ATOM     78  H   UNL     1     -13.821  12.946  19.576  0.00  0.00    +0.064 HD
ATOM     79  H   UNL     1     -10.133  13.255  19.674  0.00  0.00    +0.060 HD
ATOM     80  H   UNL     1     -12.662  13.433  21.385  0.00  0.00    +0.032 HD
ATOM     81  H   UNL     1     -11.070  13.919  21.925  0.00  0.00    +0.032 HD
ATOM     82  H   UNL     1     -10.354  11.447  21.070  0.00  0.00    +0.060 HD
ATOM     83  H   UNL     1     -11.832  12.223  23.599  0.00  0.00    +0.035 HD
ATOM     84  H   UNL     1      -9.005  11.098  23.361  0.00  0.00    +0.060 HD
ATOM     85  H   UNL     1      -9.260  11.208  25.572  0.00  0.00    +0.032 HD
ATOM     86  H   UNL     1     -10.639  12.250  25.540  0.00  0.00    +0.032 HD
ATOM     87  H   UNL     1      -8.597  13.149  26.746  0.00  0.00    +0.060 HD
ATOM     88  H   UNL     1      -9.354  14.883  24.349  0.00  0.00    +0.036 HD
ATOM     89  H   UNL     1     -10.743  15.658  20.431  0.00  0.00    +0.033 HD
ATOM     90  H   UNL     1     -10.441  15.336  18.718  0.00  0.00    +0.033 HD
ATOM     91  H   UNL     1     -12.586  16.762  19.146  0.00  0.00    +0.057 HD
ATOM     92  H   UNL     1     -14.415  15.293  18.504  0.00  0.00    +0.059 HD
ATOM     93  H   UNL     1      -8.942  23.993  17.833  0.00  0.00    +0.033 HD
ATOM     94  H   UNL     1     -10.311  23.228  17.023  0.00  0.00    +0.033 HD
ATOM     95  H   UNL     1     -11.226  25.277  18.093  0.00  0.00    +0.057 HD
ATOM     96  H   UNL     1     -11.782  25.063  20.440  0.00  0.00    +0.059 HD
ENDROOT
BRANCH  28  97
ATOM     97  C   UNL     1     -10.273  10.359  15.988  0.00  0.00    -0.040 C 
ATOM     98  H   UNL     1     -10.712  10.224  14.994  0.00  0.00    +0.028 HD
ATOM     99  H   UNL     1     -10.918   9.801  16.673  0.00  0.00    +0.028 HD
ATOM    100  H   UNL     1      -9.287   9.881  16.007  0.00  0.00    +0.028 HD
ENDBRANCH  28  97
BRANCH  21 101
ATOM    101  C   UNL     1      -5.103  14.710  16.313  0.00  0.00    -0.057 C 
ATOM    102  H   UNL     1      -4.050  14.421  16.290  0.00  0.00    +0.023 HD
ATOM    103  H   UNL     1      -5.696  13.814  16.121  0.00  0.00    +0.023 HD
ATOM    104  H   UNL     1      -5.276  15.400  15.481  0.00  0.00    +0.023 HD
ENDBRANCH  21 101
BRANCH  42 105
ATOM    105  C   UNL     1      -8.197  15.755  25.846  0.00  0.00    -0.057 C 
ATOM    106  H   UNL     1      -8.643  16.606  26.363  0.00  0.00    +0.023 HD
ATOM    107  H   UNL     1      -7.616  16.109  24.992  0.00  0.00    +0.023 HD
ATOM    108  H   UNL     1      -7.495  15.302  26.551  0.00  0.00    +0.023 HD
ENDBRANCH  42 105
BRANCH  17 109
ATOM    109  C   UNL     1      -5.978  20.601  16.612  0.00  0.00    -0.058 C 
ATOM    110  H   UNL     1      -5.905  21.271  17.468  0.00  0.00    +0.023 HD
ATOM    111  H   UNL     1      -5.755  21.198  15.723  0.00  0.00    +0.023 HD
ATOM    112  H   UNL     1      -5.204  19.839  16.705  0.00  0.00    +0.023 HD
ENDBRANCH  17 109
BRANCH  38 113
ATOM    113  C   UNL     1     -11.428  10.133  23.565  0.00  0.00    -0.058 C 
ATOM    114  H   UNL     1     -12.073  10.117  24.451  0.00  0.00    +0.023 HD
ATOM    115  H   UNL     1     -11.938   9.573  22.765  0.00  0.00    +0.023 HD
ATOM    116  H   UNL     1     -10.519   9.583  23.824  0.00  0.00    +0.023 HD
ENDBRANCH  38 113
BRANCH   7 117
ATOM    117  C   UNL     1     -14.086  19.056  21.128  0.00  0.00    -0.040 C 
ATOM    118  H   UNL     1     -14.392  18.029  20.913  0.00  0.00    +0.028 HD
ATOM    119  H   UNL     1     -13.331  19.345  20.391  0.00  0.00    +0.028 HD
ATOM    120  H   UNL     1     -14.945  19.718  20.967  0.00  0.00    +0.028 HD
ENDBRANCH   7 117
BRANCH   1 121
ATOM    121  C   UNL     1     -10.866  14.942  27.563  0.00  0.00    +0.020 C 
ATOM    122  H   UNL     1      -9.920  14.633  28.019  0.00  0.00    +0.036 HD
BRANCH 121 123
ATOM    123  C   UNL     1     -11.226  16.298  28.198  0.00  0.00    -0.057 C 
ATOM    124  H   UNL     1     -12.304  16.479  28.216  0.00  0.00    +0.023 HD
ATOM    125  H   UNL     1     -10.853  16.364  29.225  0.00  0.00    +0.023 HD
ATOM    126  H   UNL     1     -10.741  17.120  27.668  0.00  0.00    +0.023 HD
ENDBRANCH 121 123
BRANCH 121 127
ATOM    127  C   UNL     1     -11.956  13.905  28.001  0.00  0.00    +0.064 C 
ATOM    128  H   UNL     1     -12.581  14.365  28.777  0.00  0.00    +0.060 HD
BRANCH 127 129
ATOM    129  C   UNL     1     -11.418  12.565  28.584  0.00  0.00    -0.017 C 
ATOM    130  H   UNL     1     -10.446  12.338  28.137  0.00  0.00    +0.032 HD
BRANCH 129 131
ATOM    131  C   UNL     1     -11.243  12.645  30.104  0.00  0.00    -0.060 C 
ATOM    132  H   UNL     1     -10.373  12.083  30.453  0.00  0.00    +0.023 HD
ATOM    133  H   UNL     1     -11.127  13.684  30.436  0.00  0.00    +0.023 HD
ATOM    134  H   UNL     1     -12.115  12.224  30.618  0.00  0.00    +0.023 HD
ENDBRANCH 129 131
BRANCH 129 135
ATOM    135  C   UNL     1     -12.335  11.353  28.280  0.00  0.00    -0.046 C 
ATOM    136  H   UNL     1     -12.493  10.809  29.219  0.00  0.00    +0.027 HD
ATOM    137  H   UNL     1     -13.325  11.695  27.952  0.00  0.00    +0.027 HD
BRANCH 135 138
ATOM    138  C   UNL     1     -11.770  10.376  27.240  0.00  0.00    -0.026 C 
ATOM    139  H   UNL     1     -12.496  10.229  26.436  0.00  0.00    +0.029 HD
ATOM    140  H   UNL     1     -10.874  10.818  26.786  0.00  0.00    +0.029 HD
BRANCH 138 143
ATOM    141  C   UNL     1      -9.397   9.570  28.989  0.00  0.00    +0.059 C 
ATOM    142  O   UNL     1     -10.746   9.098  29.087  0.00  0.00    -0.373 OA
ATOM    143  C   UNL     1     -11.445   8.998  27.842  0.00  0.00    +0.061 C 
ATOM    144  C   UNL     1     -10.675   8.095  26.876  0.00  0.00    -0.000 C 
ATOM    145  C   UNL     1      -9.227   8.551  26.706  0.00  0.00    +0.063 C 
ATOM    146  C   UNL     1      -8.571   8.671  28.079  0.00  0.00    -0.000 C 
ATOM    147  H   UNL     1      -9.405  10.598  28.612  0.00  0.00    +0.059 HD
ATOM    148  H   UNL     1     -12.400   8.507  28.073  0.00  0.00    +0.060 HD
ATOM    149  H   UNL     1     -10.674   7.070  27.273  0.00  0.00    +0.032 HD
ATOM    150  H   UNL     1     -11.178   8.041  25.904  0.00  0.00    +0.032 HD
ATOM    151  H   UNL     1      -9.211   9.520  26.192  0.00  0.00    +0.060 HD
ATOM    152  H   UNL     1      -7.547   9.057  27.991  0.00  0.00    +0.032 HD
ATOM    153  H   UNL     1      -8.483   7.665  28.515  0.00  0.00    +0.032 HD
BRANCH 141 154
ATOM    154  C   UNL     1      -8.826   9.596  30.399  0.00  0.00    -0.039 C 
ATOM    155  H   UNL     1      -8.850   8.604  30.861  0.00  0.00    +0.025 HD
ATOM    156  H   UNL     1      -7.789   9.951  30.386  0.00  0.00    +0.025 HD
ATOM    157  H   UNL     1      -9.386  10.293  31.034  0.00  0.00    +0.025 HD
ENDBRANCH 141 154
BRANCH 145 158
ATOM    158  O   UNL     1      -8.570   7.586  25.878  0.00  0.00    -0.380 OA
BRANCH 158 159
ATOM    159  C   UNL     1      -8.196   6.406  26.577  0.00  0.00    +0.037 C 
ATOM    160  H   UNL     1      -7.119   6.448  26.760  0.00  0.00    +0.052 HD
ATOM    161  H   UNL     1      -8.403   5.520  25.975  0.00  0.00    +0.052 HD
ATOM    162  H   UNL     1      -8.704   6.334  27.543  0.00  0.00    +0.052 HD
ENDBRANCH 158 159
ENDBRANCH 145 158
ENDBRANCH 138 143
ENDBRANCH 135 138
ENDBRANCH 129 135
ENDBRANCH 127 129
BRANCH 127 163
ATOM    163  O   UNL     1     -12.816  13.628  26.898  0.00  0.00    -0.391 OA
ATOM    164  H   UNL     1     -13.719  13.522  27.236  0.00  0.00    +0.210 HD
ENDBRANCH 127 163
ENDBRANCH 121 127
ENDBRANCH   1 121
BRANCH  41 165
ATOM    165  O   UNL     1      -7.446  13.145  25.060  0.00  0.00    -0.391 OA
ATOM    166  H   UNL     1      -6.809  13.622  25.622  0.00  0.00    +0.210 HD
ENDBRANCH  41 165
BRANCH  39 167
ATOM    167  O   UNL     1      -9.151  13.042  22.895  0.00  0.00    -0.391 OA
ATOM    168  H   UNL     1      -8.176  13.017  22.997  0.00  0.00    +0.210 HD
ENDBRANCH  39 167
BRANCH  31 169
ATOM    169  O   UNL     1     -13.608  14.633  15.947  0.00  0.00    -0.391 OA
ATOM    170  H   UNL     1     -12.692  14.933  16.090  0.00  0.00    +0.210 HD
ENDBRANCH  31 169
BRANCH  22 171
ATOM    171  C   UNL     1      -5.969  14.660  20.182  0.00  0.00    +0.020 C 
ATOM    172  H   UNL     1      -6.015  15.751  20.157  0.00  0.00    +0.036 HD
BRANCH 171 173
ATOM    173  C   UNL     1      -7.381  14.246  20.638  0.00  0.00    -0.057 C 
ATOM    174  H   UNL     1      -7.747  13.393  20.056  0.00  0.00    +0.023 HD
ATOM    175  H   UNL     1      -7.382  13.943  21.693  0.00  0.00    +0.023 HD
ATOM    176  H   UNL     1      -8.093  15.072  20.545  0.00  0.00    +0.023 HD
ENDBRANCH 171 173
BRANCH 171 177
ATOM    177  C   UNL     1      -4.958  14.213  21.295  0.00  0.00    +0.064 C 
ATOM    178  H   UNL     1      -5.521  13.948  22.202  0.00  0.00    +0.060 HD
BRANCH 177 179
ATOM    179  O   UNL     1      -4.284  13.014  20.917  0.00  0.00    -0.391 OA
ATOM    180  H   UNL     1      -4.768  12.266  21.308  0.00  0.00    +0.210 HD
ENDBRANCH 177 179
BRANCH 177 181
ATOM    181  C   UNL     1      -3.906  15.308  21.687  0.00  0.00    -0.017 C 
ATOM    182  H   UNL     1      -3.731  15.236  22.770  0.00  0.00    +0.032 HD
BRANCH 181 183
ATOM    183  C   UNL     1      -2.573  15.086  20.952  0.00  0.00    -0.060 C 
ATOM    184  H   UNL     1      -1.766  14.967  21.683  0.00  0.00    +0.023 HD
ATOM    185  H   UNL     1      -2.311  15.912  20.287  0.00  0.00    +0.023 HD
ATOM    186  H   UNL     1      -2.605  14.201  20.314  0.00  0.00    +0.023 HD
ENDBRANCH 181 183
BRANCH 181 187
ATOM    187  C   UNL     1      -4.443  16.740  21.396  0.00  0.00    -0.046 C 
ATOM    188  H   UNL     1      -5.019  16.723  20.467  0.00  0.00    +0.027 HD
ATOM    189  H   UNL     1      -3.579  17.397  21.238  0.00  0.00    +0.027 HD
BRANCH 187 190
ATOM    190  C   UNL     1      -5.332  17.325  22.511  0.00  0.00    -0.026 C 
ATOM    191  H   UNL     1      -4.684  17.638  23.334  0.00  0.00    +0.029 HD
ATOM    192  H   UNL     1      -5.979  16.528  22.897  0.00  0.00    +0.029 HD
BRANCH 190 193
ATOM    193  C   UNL     1      -6.204  18.557  22.185  0.00  0.00    +0.061 C 
ATOM    194  O   UNL     1      -6.874  19.092  23.326  0.00  0.00    -0.373 OA
ATOM    195  C   UNL     1      -8.133  18.517  23.653  0.00  0.00    +0.059 C 
ATOM    196  C   UNL     1      -9.094  18.567  22.473  0.00  0.00    -0.000 C 
ATOM    197  C   UNL     1      -8.482  17.861  21.259  0.00  0.00    +0.063 C 
ATOM    198  C   UNL     1      -7.109  18.458  20.956  0.00  0.00    -0.000 C 
ATOM    199  H   UNL     1      -5.469  19.336  21.940  0.00  0.00    +0.060 HD
ATOM    200  H   UNL     1      -7.980  17.484  23.981  0.00  0.00    +0.059 HD
ATOM    201  H   UNL     1     -10.048  18.102  22.745  0.00  0.00    +0.032 HD
ATOM    202  H   UNL     1      -9.321  19.603  22.195  0.00  0.00    +0.032 HD
ATOM    203  H   UNL     1      -8.389  16.793  21.467  0.00  0.00    +0.060 HD
ATOM    204  H   UNL     1      -7.278  19.477  20.579  0.00  0.00    +0.032 HD
ATOM    205  H   UNL     1      -6.618  17.921  20.136  0.00  0.00    +0.032 HD
BRANCH 195 206
ATOM    206  C   UNL     1      -8.703  19.307  24.825  0.00  0.00    -0.039 C 
ATOM    207  H   UNL     1      -9.792  19.337  24.783  0.00  0.00    +0.025 HD
ATOM    208  H   UNL     1      -8.404  18.860  25.776  0.00  0.00    +0.025 HD
ATOM    209  H   UNL     1      -8.327  20.332  24.828  0.00  0.00    +0.025 HD
ENDBRANCH 195 206
BRANCH 197 210
ATOM    210  O   UNL     1      -9.272  18.005  20.072  0.00  0.00    -0.380 OA
BRANCH 210 211
ATOM    211  C   UNL     1     -10.453  18.772  20.250  0.00  0.00    +0.037 C 
ATOM    212  H   UNL     1     -10.317  19.770  19.831  0.00  0.00    +0.052 HD
ATOM    213  H   UNL     1     -11.262  18.287  19.697  0.00  0.00    +0.052 HD
ATOM    214  H   UNL     1     -10.734  18.833  21.303  0.00  0.00    +0.052 HD
ENDBRANCH 210 211
ENDBRANCH 197 210
ENDBRANCH 190 193
ENDBRANCH 187 190
ENDBRANCH 181 187
ENDBRANCH 177 181
ENDBRANCH 171 177
ENDBRANCH  22 171
BRANCH  20 215
ATOM    215  O   UNL     1      -7.829  15.663  16.901  0.00  0.00    -0.391 OA
ATOM    216  H   UNL     1      -8.164  16.287  16.234  0.00  0.00    +0.210 HD
ENDBRANCH  20 215
BRANCH  18 217
ATOM    217  O   UNL     1      -8.796  18.145  17.202  0.00  0.00    -0.391 OA
ATOM    218  H   UNL     1      -9.445  18.878  17.268  0.00  0.00    +0.210 HD
ENDBRANCH  18 217
BRANCH  10 219
ATOM    219  O   UNL     1     -13.059  23.956  22.248  0.00  0.00    -0.391 OA
ATOM    220  H   UNL     1     -14.029  23.899  22.190  0.00  0.00    +0.210 HD
ENDBRANCH  10 219
BRANCH  37 221
ATOM    221  O   UNL     1     -12.392  10.985  21.118  0.00  0.00    -0.379 OA
BRANCH 221 222
ATOM    222  C   UNL     1     -12.006   9.974  20.195  0.00  0.00    +0.037 C 
ATOM    223  H   UNL     1     -12.406   9.002  20.502  0.00  0.00    +0.052 HD
ATOM    224  H   UNL     1     -10.917   9.914  20.107  0.00  0.00    +0.052 HD
ATOM    225  H   UNL     1     -12.417  10.223  19.211  0.00  0.00    +0.052 HD
ENDBRANCH 221 222
ENDBRANCH  37 221
BRANCH  16 226
ATOM    226  O   UNL     1      -9.802  20.626  16.526  0.00  0.00    -0.379 OA
BRANCH 226 227
ATOM    227  C   UNL     1     -10.285  21.167  15.305  0.00  0.00    +0.037 C 
ATOM    228  H   UNL     1     -10.529  22.219  15.479  0.00  0.00    +0.052 HD
ATOM    229  H   UNL     1      -9.521  21.120  14.522  0.00  0.00    +0.052 HD
ATOM    230  H   UNL     1     -11.198  20.661  14.979  0.00  0.00    +0.052 HD
ENDBRANCH 226 227
ENDBRANCH  16 226
TORSDOF 40
ENDMDL
MODEL 3
REMARK VINA RESULT:      -5.4      3.270     11.598
REMARK  Name = Swinholide A_conf2
REMARK  40 active torsions:
REMARK  status: ('A' for Active; 'I' for Inactive)
REMARK    1  A    between atoms: C_1  and  C_2
REMARK    2  A    between atoms: C_4  and  C_10
REMARK    3  A    between atoms: C_6  and  O_8
REMARK    4  A    between atoms: O_8  and  C_9
REMARK    5  A    between atoms: C_10  and  C_11
REMARK    6  A    between atoms: C_11  and  C_12
REMARK    7  A    between atoms: C_12  and  C_13
REMARK    8  A    between atoms: C_12  and  C_98
REMARK    9  A    between atoms: C_13  and  O_14
REMARK   10  A    between atoms: C_13  and  C_15
REMARK   11  A    between atoms: C_15  and  C_16
REMARK   12  A    between atoms: C_15  and  C_97
REMARK   13  A    between atoms: C_22  and  C_96
REMARK   14  A    between atoms: C_25  and  O_95
REMARK   15  A    between atoms: C_31  and  O_90
REMARK   16  A    between atoms: C_32  and  C_89
REMARK   17  A    between atoms: C_33  and  O_88
REMARK   18  A    between atoms: C_35  and  O_87
REMARK   19  A    between atoms: C_36  and  C_86
REMARK   20  A    between atoms: C_37  and  C_69
REMARK   21  A    between atoms: C_43  and  C_68
REMARK   22  A    between atoms: C_46  and  O_67
REMARK   23  A    between atoms: C_52  and  O_62
REMARK   24  A    between atoms: C_53  and  C_61
REMARK   25  A    between atoms: C_54  and  O_60
REMARK   26  A    between atoms: C_56  and  O_59
REMARK   27  A    between atoms: C_57  and  C_58
REMARK   28  A    between atoms: O_62  and  C_63
REMARK   29  A    between atoms: C_69  and  C_70
REMARK   30  A    between atoms: C_69  and  C_85
REMARK   31  A    between atoms: C_70  and  O_71
REMARK   32  A    between atoms: C_70  and  C_72
REMARK   33  A    between atoms: C_72  and  C_73
REMARK   34  A    between atoms: C_72  and  C_84
REMARK   35  A    between atoms: C_73  and  C_74
REMARK   36  A    between atoms: C_74  and  C_75
REMARK   37  A    between atoms: C_77  and  C_83
REMARK   38  A    between atoms: C_79  and  O_81
REMARK   39  A    between atoms: O_81  and  C_82
REMARK   40  A    between atoms: O_90  and  C_91
REMARK                            x       y       z     vdW  Elec       q    Type
REMARK                         _______ _______ _______ _____ _____    ______ ____
ROOT
ATOM      1  C   UNL     1      -8.161  17.262  22.693  0.00  0.00    +0.113 C 
ATOM      2  O   UNL     1      -9.169  17.737  21.763  0.00  0.00    -0.458 OA
ATOM      3  C   UNL     1     -10.424  17.260  21.951  0.00  0.00    +0.332 C 
ATOM      4  O   UNL     1     -10.799  16.508  22.833  0.00  0.00    -0.246 OA
ATOM      5  C   UNL     1     -11.289  17.771  20.865  0.00  0.00    +0.023 C 
ATOM      6  C   UNL     1     -12.604  17.505  20.897  0.00  0.00    -0.052 C 
ATOM      7  C   UNL     1     -13.580  17.857  19.871  0.00  0.00    -0.054 C 
ATOM      8  C   UNL     1     -13.469  18.968  19.117  0.00  0.00    -0.079 C 
ATOM      9  C   UNL     1     -14.459  19.448  18.085  0.00  0.00    -0.008 C 
ATOM     10  C   UNL     1     -13.922  19.439  16.639  0.00  0.00    +0.061 C 
ATOM     11  C   UNL     1     -13.761  18.016  16.082  0.00  0.00    +0.003 C 
ATOM     12  C   UNL     1     -13.445  17.953  14.572  0.00  0.00    +0.080 C 
ATOM     13  O   UNL     1     -12.718  16.744  14.257  0.00  0.00    -0.369 OA
ATOM     14  C   UNL     1     -13.546  15.569  14.167  0.00  0.00    +0.065 C 
ATOM     15  C   UNL     1     -12.598  14.372  13.972  0.00  0.00    +0.000 C 
ATOM     16  C   UNL     1     -13.300  13.017  13.731  0.00  0.00    +0.066 C 
ATOM     17  C   UNL     1     -12.328  11.790  13.809  0.00  0.00    +0.009 C 
ATOM     18  C   UNL     1     -11.557  11.679  15.148  0.00  0.00    +0.063 C 
ATOM     19  C   UNL     1     -10.664  10.416  15.244  0.00  0.00    -0.000 C 
ATOM     20  C   UNL     1     -10.085  10.292  16.662  0.00  0.00    +0.064 C 
ATOM     21  C   UNL     1      -8.786   9.447  16.748  0.00  0.00    +0.020 C 
ATOM     22  C   UNL     1      -8.015   9.668  18.089  0.00  0.00    +0.113 C 
ATOM     23  O   UNL     1      -8.941   9.226  19.121  0.00  0.00    -0.458 OA
ATOM     24  C   UNL     1      -8.503   8.469  20.149  0.00  0.00    +0.332 C 
ATOM     25  O   UNL     1      -7.331   8.213  20.427  0.00  0.00    -0.246 OA
ATOM     26  C   UNL     1      -9.637   7.961  20.953  0.00  0.00    +0.023 C 
ATOM     27  C   UNL     1     -10.918   8.335  20.756  0.00  0.00    -0.052 C 
ATOM     28  C   UNL     1     -12.098   7.907  21.502  0.00  0.00    -0.054 C 
ATOM     29  C   UNL     1     -13.280   8.488  21.204  0.00  0.00    -0.079 C 
ATOM     30  C   UNL     1     -14.611   8.290  21.872  0.00  0.00    -0.008 C 
ATOM     31  C   UNL     1     -15.376   9.578  22.240  0.00  0.00    +0.061 C 
ATOM     32  C   UNL     1     -14.714  10.504  23.281  0.00  0.00    +0.003 C 
ATOM     33  C   UNL     1     -13.707  11.590  22.850  0.00  0.00    +0.080 C 
ATOM     34  O   UNL     1     -12.472  10.991  22.449  0.00  0.00    -0.369 OA
ATOM     35  C   UNL     1     -11.513  11.889  21.880  0.00  0.00    +0.065 C 
ATOM     36  C   UNL     1     -10.951  12.909  22.887  0.00  0.00    +0.000 C 
ATOM     37  C   UNL     1     -10.067  12.229  23.960  0.00  0.00    +0.066 C 
ATOM     38  C   UNL     1      -9.032  13.230  24.548  0.00  0.00    +0.009 C 
ATOM     39  C   UNL     1      -7.760  13.370  23.660  0.00  0.00    +0.063 C 
ATOM     40  C   UNL     1      -6.949  14.649  23.998  0.00  0.00    -0.000 C 
ATOM     41  C   UNL     1      -6.315  15.416  22.830  0.00  0.00    +0.064 C 
ATOM     42  C   UNL     1      -7.293  16.214  21.931  0.00  0.00    +0.020 C 
ATOM     43  C   UNL     1     -12.088  12.542  20.611  0.00  0.00    -0.008 C 
ATOM     44  C   UNL     1     -13.513  12.977  20.776  0.00  0.00    -0.083 C 
ATOM     45  C   UNL     1     -14.238  12.544  21.810  0.00  0.00    -0.059 C 
ATOM     46  C   UNL     1     -14.548  15.711  13.012  0.00  0.00    -0.008 C 
ATOM     47  C   UNL     1     -15.196  17.062  13.003  0.00  0.00    -0.083 C 
ATOM     48  C   UNL     1     -14.675  18.077  13.702  0.00  0.00    -0.059 C 
ATOM     49  H   UNL     1      -8.646  16.708  23.495  0.00  0.00    +0.074 HD
ATOM     50  H   UNL     1     -10.811  18.316  20.065  0.00  0.00    +0.069 HD
ATOM     51  H   UNL     1     -13.003  16.927  21.730  0.00  0.00    +0.062 HD
ATOM     52  H   UNL     1     -12.626  19.640  19.272  0.00  0.00    +0.058 HD
ATOM     53  H   UNL     1     -14.735  20.476  18.357  0.00  0.00    +0.033 HD
ATOM     54  H   UNL     1     -15.403  18.898  18.123  0.00  0.00    +0.033 HD
ATOM     55  H   UNL     1     -12.956  19.950  16.604  0.00  0.00    +0.060 HD
ATOM     56  H   UNL     1     -12.968  17.503  16.637  0.00  0.00    +0.032 HD
ATOM     57  H   UNL     1     -14.675  17.442  16.273  0.00  0.00    +0.032 HD
ATOM     58  H   UNL     1     -12.760  18.766  14.314  0.00  0.00    +0.064 HD
ATOM     59  H   UNL     1     -14.075  15.442  15.119  0.00  0.00    +0.060 HD
ATOM     60  H   UNL     1     -11.907  14.576  13.145  0.00  0.00    +0.032 HD
ATOM     61  H   UNL     1     -11.974  14.327  14.874  0.00  0.00    +0.032 HD
ATOM     62  H   UNL     1     -13.723  13.042  12.716  0.00  0.00    +0.060 HD
ATOM     63  H   UNL     1     -12.946  10.890  13.726  0.00  0.00    +0.035 HD
ATOM     64  H   UNL     1     -10.890  12.542  15.261  0.00  0.00    +0.060 HD
ATOM     65  H   UNL     1      -9.850  10.488  14.511  0.00  0.00    +0.032 HD
ATOM     66  H   UNL     1     -11.259   9.529  15.008  0.00  0.00    +0.032 HD
ATOM     67  H   UNL     1      -9.872  11.303  17.007  0.00  0.00    +0.060 HD
ATOM     68  H   UNL     1      -8.147   9.762  15.918  0.00  0.00    +0.036 HD
ATOM     69  H   UNL     1      -7.125   9.026  18.093  0.00  0.00    +0.074 HD
ATOM     70  H   UNL     1      -9.349   7.277  21.742  0.00  0.00    +0.069 HD
ATOM     71  H   UNL     1     -11.119   9.071  19.977  0.00  0.00    +0.062 HD
ATOM     72  H   UNL     1     -13.300   9.238  20.410  0.00  0.00    +0.058 HD
ATOM     73  H   UNL     1     -15.231   7.712  21.172  0.00  0.00    +0.033 HD
ATOM     74  H   UNL     1     -14.518   7.689  22.778  0.00  0.00    +0.033 HD
ATOM     75  H   UNL     1     -16.292   9.217  22.723  0.00  0.00    +0.060 HD
ATOM     76  H   UNL     1     -14.237   9.875  24.044  0.00  0.00    +0.032 HD
ATOM     77  H   UNL     1     -15.528  11.032  23.787  0.00  0.00    +0.032 HD
ATOM     78  H   UNL     1     -13.503  12.171  23.755  0.00  0.00    +0.064 HD
ATOM     79  H   UNL     1     -10.674  11.265  21.546  0.00  0.00    +0.060 HD
ATOM     80  H   UNL     1     -11.760  13.463  23.375  0.00  0.00    +0.032 HD
ATOM     81  H   UNL     1     -10.375  13.651  22.323  0.00  0.00    +0.032 HD
ATOM     82  H   UNL     1      -9.526  11.376  23.531  0.00  0.00    +0.060 HD
ATOM     83  H   UNL     1      -9.530  14.206  24.611  0.00  0.00    +0.035 HD
ATOM     84  H   UNL     1      -7.115  12.502  23.853  0.00  0.00    +0.060 HD
ATOM     85  H   UNL     1      -6.136  14.330  24.669  0.00  0.00    +0.032 HD
ATOM     86  H   UNL     1      -7.546  15.328  24.610  0.00  0.00    +0.032 HD
ATOM     87  H   UNL     1      -5.573  16.117  23.227  0.00  0.00    +0.060 HD
ATOM     88  H   UNL     1      -8.007  15.507  21.487  0.00  0.00    +0.036 HD
ATOM     89  H   UNL     1     -11.472  13.393  20.300  0.00  0.00    +0.033 HD
ATOM     90  H   UNL     1     -12.076  11.810  19.792  0.00  0.00    +0.033 HD
ATOM     91  H   UNL     1     -13.949  13.616  20.015  0.00  0.00    +0.057 HD
ATOM     92  H   UNL     1     -15.273  12.867  21.914  0.00  0.00    +0.059 HD
ATOM     93  H   UNL     1     -14.051  15.565  12.048  0.00  0.00    +0.033 HD
ATOM     94  H   UNL     1     -15.325  14.943  13.099  0.00  0.00    +0.033 HD
ATOM     95  H   UNL     1     -16.081  17.205  12.398  0.00  0.00    +0.057 HD
ATOM     96  H   UNL     1     -15.162  19.048  13.672  0.00  0.00    +0.059 HD
ENDROOT
BRANCH  28  97
ATOM     97  C   UNL     1     -11.913   6.859  22.569  0.00  0.00    -0.040 C 
ATOM     98  H   UNL     1     -11.996   7.309  23.563  0.00  0.00    +0.028 HD
ATOM     99  H   UNL     1     -10.931   6.378  22.545  0.00  0.00    +0.028 HD
ATOM    100  H   UNL     1     -12.665   6.068  22.474  0.00  0.00    +0.028 HD
ENDBRANCH  28  97
BRANCH  21 101
ATOM    101  C   UNL     1      -9.046   7.949  16.539  0.00  0.00    -0.057 C 
ATOM    102  H   UNL     1      -8.457   7.344  17.232  0.00  0.00    +0.023 HD
ATOM    103  H   UNL     1     -10.099   7.720  16.715  0.00  0.00    +0.023 HD
ATOM    104  H   UNL     1      -8.806   7.620  15.524  0.00  0.00    +0.023 HD
ENDBRANCH  21 101
BRANCH  42 105
ATOM    105  C   UNL     1      -6.554  16.780  20.706  0.00  0.00    -0.057 C 
ATOM    106  H   UNL     1      -6.606  17.869  20.674  0.00  0.00    +0.023 HD
ATOM    107  H   UNL     1      -6.938  16.367  19.769  0.00  0.00    +0.023 HD
ATOM    108  H   UNL     1      -5.493  16.525  20.760  0.00  0.00    +0.023 HD
ENDBRANCH  42 105
BRANCH  17 109
ATOM    109  C   UNL     1     -11.371  11.785  12.611  0.00  0.00    -0.058 C 
ATOM    110  H   UNL     1     -11.860  11.411  11.712  0.00  0.00    +0.023 HD
ATOM    111  H   UNL     1     -10.519  11.126  12.805  0.00  0.00    +0.023 HD
ATOM    112  H   UNL     1     -10.981  12.781  12.401  0.00  0.00    +0.023 HD
ENDBRANCH  17 109
BRANCH  38 113
ATOM    113  C   UNL     1      -8.593  12.871  25.979  0.00  0.00    -0.058 C 
ATOM    114  H   UNL     1      -8.115  13.714  26.491  0.00  0.00    +0.023 HD
ATOM    115  H   UNL     1      -9.457  12.554  26.584  0.00  0.00    +0.023 HD
ATOM    116  H   UNL     1      -7.871  12.049  25.980  0.00  0.00    +0.023 HD
ENDBRANCH  38 113
BRANCH   7 117
ATOM    117  C   UNL     1     -14.735  16.895  19.758  0.00  0.00    -0.040 C 
ATOM    118  H   UNL     1     -14.417  15.978  19.257  0.00  0.00    +0.028 HD
ATOM    119  H   UNL     1     -15.558  17.327  19.181  0.00  0.00    +0.028 HD
ATOM    120  H   UNL     1     -15.149  16.633  20.739  0.00  0.00    +0.028 HD
ENDBRANCH   7 117
BRANCH   1 121
ATOM    121  C   UNL     1      -7.442  18.465  23.371  0.00  0.00    +0.020 C 
ATOM    122  H   UNL     1      -6.375  18.233  23.457  0.00  0.00    +0.036 HD
BRANCH 121 123
ATOM    123  C   UNL     1      -7.531  19.776  22.567  0.00  0.00    -0.057 C 
ATOM    124  H   UNL     1      -7.402  19.619  21.494  0.00  0.00    +0.023 HD
ATOM    125  H   UNL     1      -8.495  20.270  22.724  0.00  0.00    +0.023 HD
ATOM    126  H   UNL     1      -6.785  20.497  22.909  0.00  0.00    +0.023 HD
ENDBRANCH 121 123
BRANCH 121 127
ATOM    127  C   UNL     1      -7.976  18.752  24.815  0.00  0.00    +0.064 C 
ATOM    128  H   UNL     1      -8.182  19.826  24.902  0.00  0.00    +0.060 HD
BRANCH 127 129
ATOM    129  C   UNL     1      -7.012  18.377  25.979  0.00  0.00    -0.017 C 
ATOM    130  H   UNL     1      -7.088  19.129  26.770  0.00  0.00    +0.032 HD
BRANCH 129 131
ATOM    131  C   UNL     1      -7.360  17.010  26.577  0.00  0.00    -0.060 C 
ATOM    132  H   UNL     1      -6.507  16.326  26.576  0.00  0.00    +0.023 HD
ATOM    133  H   UNL     1      -7.710  17.108  27.611  0.00  0.00    +0.023 HD
ATOM    134  H   UNL     1      -8.152  16.523  25.998  0.00  0.00    +0.023 HD
ENDBRANCH 129 131
BRANCH 129 135
ATOM    135  C   UNL     1      -5.522  18.338  25.551  0.00  0.00    -0.046 C 
ATOM    136  H   UNL     1      -5.456  17.755  24.624  0.00  0.00    +0.027 HD
ATOM    137  H   UNL     1      -5.168  19.347  25.306  0.00  0.00    +0.027 HD
BRANCH 135 138
ATOM    138  C   UNL     1      -4.581  17.711  26.589  0.00  0.00    -0.026 C 
ATOM    139  H   UNL     1      -5.095  16.902  27.114  0.00  0.00    +0.029 HD
ATOM    140  H   UNL     1      -3.726  17.262  26.068  0.00  0.00    +0.029 HD
BRANCH 138 143
ATOM    141  C   UNL     1      -2.037  19.403  26.579  0.00  0.00    +0.059 C 
ATOM    142  O   UNL     1      -3.330  19.786  27.060  0.00  0.00    -0.373 OA
ATOM    143  C   UNL     1      -4.100  18.726  27.639  0.00  0.00    +0.061 C 
ATOM    144  C   UNL     1      -3.321  18.073  28.782  0.00  0.00    -0.000 C 
ATOM    145  C   UNL     1      -1.932  17.620  28.337  0.00  0.00    +0.063 C 
ATOM    146  C   UNL     1      -1.198  18.795  27.696  0.00  0.00    -0.000 C 
ATOM    147  H   UNL     1      -2.158  18.690  25.757  0.00  0.00    +0.059 HD
ATOM    148  H   UNL     1      -4.991  19.204  28.067  0.00  0.00    +0.060 HD
ATOM    149  H   UNL     1      -3.206  18.805  29.596  0.00  0.00    +0.032 HD
ATOM    150  H   UNL     1      -3.882  17.235  29.210  0.00  0.00    +0.032 HD
ATOM    151  H   UNL     1      -2.034  16.799  27.617  0.00  0.00    +0.060 HD
ATOM    152  H   UNL     1      -0.220  18.482  27.310  0.00  0.00    +0.032 HD
ATOM    153  H   UNL     1      -0.995  19.548  28.472  0.00  0.00    +0.032 HD
BRANCH 141 154
ATOM    154  C   UNL     1      -1.377  20.653  26.017  0.00  0.00    -0.039 C 
ATOM    155  H   UNL     1      -1.998  21.124  25.248  0.00  0.00    +0.025 HD
ATOM    156  H   UNL     1      -1.196  21.383  26.815  0.00  0.00    +0.025 HD
ATOM    157  H   UNL     1      -0.399  20.417  25.583  0.00  0.00    +0.025 HD
ENDBRANCH 141 154
BRANCH 145 158
ATOM    158  O   UNL     1      -1.252  17.128  29.495  0.00  0.00    -0.380 OA
BRANCH 158 159
ATOM    159  C   UNL     1       0.032  16.589  29.209  0.00  0.00    +0.037 C 
ATOM    160  H   UNL     1      -0.094  15.537  28.944  0.00  0.00    +0.052 HD
ATOM    161  H   UNL     1       0.677  16.643  30.087  0.00  0.00    +0.052 HD
ATOM    162  H   UNL     1       0.502  17.101  28.363  0.00  0.00    +0.052 HD
ENDBRANCH 158 159
ENDBRANCH 145 158
ENDBRANCH 138 143
ENDBRANCH 135 138
ENDBRANCH 129 135
ENDBRANCH 127 129
BRANCH 127 163
ATOM    163  O   UNL     1      -9.222  18.083  25.000  0.00  0.00    -0.391 OA
ATOM    164  H   UNL     1      -9.929  18.664  24.675  0.00  0.00    +0.210 HD
ENDBRANCH 127 163
ENDBRANCH 121 127
ENDBRANCH   1 121
BRANCH  41 165
ATOM    165  O   UNL     1      -5.599  14.467  22.023  0.00  0.00    -0.391 OA
ATOM    166  H   UNL     1      -4.808  14.920  21.679  0.00  0.00    +0.210 HD
ENDBRANCH  41 165
BRANCH  39 167
ATOM    167  O   UNL     1      -8.080  13.293  22.284  0.00  0.00    -0.391 OA
ATOM    168  H   UNL     1      -8.292  14.203  21.984  0.00  0.00    +0.210 HD
ENDBRANCH  39 167
BRANCH  31 169
ATOM    169  O   UNL     1     -15.842  10.292  21.099  0.00  0.00    -0.391 OA
ATOM    170  H   UNL     1     -15.077  10.695  20.651  0.00  0.00    +0.210 HD
ENDBRANCH  31 169
BRANCH  22 171
ATOM    171  C   UNL     1      -7.586  11.143  18.380  0.00  0.00    +0.020 C 
ATOM    172  H   UNL     1      -7.709  11.701  17.451  0.00  0.00    +0.036 HD
BRANCH 171 173
ATOM    173  C   UNL     1      -8.568  11.828  19.350  0.00  0.00    -0.057 C 
ATOM    174  H   UNL     1      -8.589  12.912  19.187  0.00  0.00    +0.023 HD
ATOM    175  H   UNL     1      -9.590  11.458  19.203  0.00  0.00    +0.023 HD
ATOM    176  H   UNL     1      -8.306  11.632  20.394  0.00  0.00    +0.023 HD
ENDBRANCH 171 173
BRANCH 171 177
ATOM    177  C   UNL     1      -6.135  11.372  18.931  0.00  0.00    +0.064 C 
ATOM    178  H   UNL     1      -6.094  11.039  19.978  0.00  0.00    +0.060 HD
BRANCH 177 179
ATOM    179  O   UNL     1      -5.195  10.545  18.246  0.00  0.00    -0.391 OA
ATOM    180  H   UNL     1      -4.485  11.120  17.910  0.00  0.00    +0.210 HD
ENDBRANCH 177 179
BRANCH 177 181
ATOM    181  C   UNL     1      -5.656  12.864  18.884  0.00  0.00    -0.017 C 
ATOM    182  H   UNL     1      -6.118  13.394  19.728  0.00  0.00    +0.032 HD
BRANCH 181 183
ATOM    183  C   UNL     1      -4.126  12.961  19.011  0.00  0.00    -0.060 C 
ATOM    184  H   UNL     1      -3.755  12.132  19.623  0.00  0.00    +0.023 HD
ATOM    185  H   UNL     1      -3.795  13.897  19.467  0.00  0.00    +0.023 HD
ATOM    186  H   UNL     1      -3.636  12.927  18.036  0.00  0.00    +0.023 HD
ENDBRANCH 181 183
BRANCH 181 187
ATOM    187  C   UNL     1      -6.127  13.569  17.577  0.00  0.00    -0.046 C 
ATOM    188  H   UNL     1      -6.793  12.897  17.029  0.00  0.00    +0.027 HD
ATOM    189  H   UNL     1      -5.243  13.743  16.952  0.00  0.00    +0.027 HD
BRANCH 187 190
ATOM    190  C   UNL     1      -6.861  14.905  17.805  0.00  0.00    -0.026 C 
ATOM    191  H   UNL     1      -6.125  15.712  17.751  0.00  0.00    +0.029 HD
ATOM    192  H   UNL     1      -7.270  14.911  18.823  0.00  0.00    +0.029 HD
BRANCH 190 193
ATOM    193  C   UNL     1      -7.981  15.306  16.819  0.00  0.00    +0.061 C 
ATOM    194  O   UNL     1      -8.278  16.702  16.841  0.00  0.00    -0.373 OA
ATOM    195  C   UNL     1      -9.228  17.135  17.807  0.00  0.00    +0.059 C 
ATOM    196  C   UNL     1     -10.539  16.373  17.684  0.00  0.00    -0.000 C 
ATOM    197  C   UNL     1     -10.292  14.866  17.814  0.00  0.00    +0.063 C 
ATOM    198  C   UNL     1      -9.234  14.430  16.803  0.00  0.00    -0.000 C 
ATOM    199  H   UNL     1      -7.517  15.166  15.832  0.00  0.00    +0.060 HD
ATOM    200  H   UNL     1      -8.802  17.009  18.808  0.00  0.00    +0.059 HD
ATOM    201  H   UNL     1     -11.245  16.712  18.450  0.00  0.00    +0.032 HD
ATOM    202  H   UNL     1     -11.015  16.565  16.716  0.00  0.00    +0.032 HD
ATOM    203  H   UNL     1      -9.960  14.637  18.829  0.00  0.00    +0.060 HD
ATOM    204  H   UNL     1      -9.689  14.512  15.805  0.00  0.00    +0.032 HD
ATOM    205  H   UNL     1      -8.986  13.369  16.925  0.00  0.00    +0.032 HD
BRANCH 195 206
ATOM    206  C   UNL     1      -9.463  18.623  17.577  0.00  0.00    -0.039 C 
ATOM    207  H   UNL     1      -9.934  19.082  18.448  0.00  0.00    +0.025 HD
ATOM    208  H   UNL     1      -8.522  19.139  17.378  0.00  0.00    +0.025 HD
ATOM    209  H   UNL     1     -10.103  18.790  16.708  0.00  0.00    +0.025 HD
ENDBRANCH 195 206
BRANCH 197 210
ATOM    210  O   UNL     1     -11.465  14.084  17.555  0.00  0.00    -0.380 OA
BRANCH 210 211
ATOM    211  C   UNL     1     -12.681  14.807  17.663  0.00  0.00    +0.037 C 
ATOM    212  H   UNL     1     -13.283  14.406  18.479  0.00  0.00    +0.052 HD
ATOM    213  H   UNL     1     -12.442  15.846  17.906  0.00  0.00    +0.052 HD
ATOM    214  H   UNL     1     -13.242  14.786  16.726  0.00  0.00    +0.052 HD
ENDBRANCH 210 211
ENDBRANCH 197 210
ENDBRANCH 190 193
ENDBRANCH 187 190
ENDBRANCH 181 187
ENDBRANCH 177 181
ENDBRANCH 171 177
ENDBRANCH  22 171
BRANCH  20 215
ATOM    215  O   UNL     1     -11.139   9.791  17.495  0.00  0.00    -0.391 OA
ATOM    216  H   UNL     1     -11.954   9.732  16.968  0.00  0.00    +0.210 HD
ENDBRANCH  20 215
BRANCH  18 217
ATOM    217  O   UNL     1     -12.488  11.728  16.226  0.00  0.00    -0.391 OA
ATOM    218  H   UNL     1     -13.244  12.309  15.992  0.00  0.00    +0.210 HD
ENDBRANCH  18 217
BRANCH  10 219
ATOM    219  O   UNL     1     -14.826  20.200  15.836  0.00  0.00    -0.391 OA
ATOM    220  H   UNL     1     -15.620  20.381  16.370  0.00  0.00    +0.210 HD
ENDBRANCH  10 219
BRANCH  37 221
ATOM    221  O   UNL     1     -10.944  11.789  25.009  0.00  0.00    -0.379 OA
BRANCH 221 222
ATOM    222  C   UNL     1     -10.826  10.396  25.267  0.00  0.00    +0.037 C 
ATOM    223  H   UNL     1      -9.872  10.015  24.889  0.00  0.00    +0.052 HD
ATOM    224  H   UNL     1     -11.651   9.839  24.814  0.00  0.00    +0.052 HD
ATOM    225  H   UNL     1     -10.858  10.236  26.351  0.00  0.00    +0.052 HD
ENDBRANCH 221 222
ENDBRANCH  37 221
BRANCH  16 226
ATOM    226  O   UNL     1     -14.403  12.932  14.642  0.00  0.00    -0.379 OA
BRANCH 226 227
ATOM    227  C   UNL     1     -15.465  12.092  14.216  0.00  0.00    +0.037 C 
ATOM    228  H   UNL     1     -16.405  12.566  14.509  0.00  0.00    +0.052 HD
ATOM    229  H   UNL     1     -15.466  11.978  13.126  0.00  0.00    +0.052 HD
ATOM    230  H   UNL     1     -15.418  11.113  14.702  0.00  0.00    +0.052 HD
ENDBRANCH 226 227
ENDBRANCH  16 226
TORSDOF 40
ENDMDL
MODEL 4
REMARK VINA RESULT:      -5.4     10.764     18.209
REMARK  Name = Swinholide A_conf2
REMARK  40 active torsions:
REMARK  status: ('A' for Active; 'I' for Inactive)
REMARK    1  A    between atoms: C_1  and  C_2
REMARK    2  A    between atoms: C_4  and  C_10
REMARK    3  A    between atoms: C_6  and  O_8
REMARK    4  A    between atoms: O_8  and  C_9
REMARK    5  A    between atoms: C_10  and  C_11
REMARK    6  A    between atoms: C_11  and  C_12
REMARK    7  A    between atoms: C_12  and  C_13
REMARK    8  A    between atoms: C_12  and  C_98
REMARK    9  A    between atoms: C_13  and  O_14
REMARK   10  A    between atoms: C_13  and  C_15
REMARK   11  A    between atoms: C_15  and  C_16
REMARK   12  A    between atoms: C_15  and  C_97
REMARK   13  A    between atoms: C_22  and  C_96
REMARK   14  A    between atoms: C_25  and  O_95
REMARK   15  A    between atoms: C_31  and  O_90
REMARK   16  A    between atoms: C_32  and  C_89
REMARK   17  A    between atoms: C_33  and  O_88
REMARK   18  A    between atoms: C_35  and  O_87
REMARK   19  A    between atoms: C_36  and  C_86
REMARK   20  A    between atoms: C_37  and  C_69
REMARK   21  A    between atoms: C_43  and  C_68
REMARK   22  A    between atoms: C_46  and  O_67
REMARK   23  A    between atoms: C_52  and  O_62
REMARK   24  A    between atoms: C_53  and  C_61
REMARK   25  A    between atoms: C_54  and  O_60
REMARK   26  A    between atoms: C_56  and  O_59
REMARK   27  A    between atoms: C_57  and  C_58
REMARK   28  A    between atoms: O_62  and  C_63
REMARK   29  A    between atoms: C_69  and  C_70
REMARK   30  A    between atoms: C_69  and  C_85
REMARK   31  A    between atoms: C_70  and  O_71
REMARK   32  A    between atoms: C_70  and  C_72
REMARK   33  A    between atoms: C_72  and  C_73
REMARK   34  A    between atoms: C_72  and  C_84
REMARK   35  A    between atoms: C_73  and  C_74
REMARK   36  A    between atoms: C_74  and  C_75
REMARK   37  A    between atoms: C_77  and  C_83
REMARK   38  A    between atoms: C_79  and  O_81
REMARK   39  A    between atoms: O_81  and  C_82
REMARK   40  A    between atoms: O_90  and  C_91
REMARK                            x       y       z     vdW  Elec       q    Type
REMARK                         _______ _______ _______ _____ _____    ______ ____
ROOT
ATOM      1  C   UNL     1      -8.714   0.936  15.243  0.00  0.00    +0.113 C 
ATOM      2  O   UNL     1      -8.930   2.078  14.374  0.00  0.00    -0.458 OA
ATOM      3  C   UNL     1     -10.145   2.151  13.779  0.00  0.00    +0.332 C 
ATOM      4  O   UNL     1     -11.081   1.385  13.922  0.00  0.00    -0.246 OA
ATOM      5  C   UNL     1     -10.152   3.315  12.865  0.00  0.00    +0.023 C 
ATOM      6  C   UNL     1     -11.289   3.644  12.233  0.00  0.00    -0.052 C 
ATOM      7  C   UNL     1     -11.451   4.701  11.241  0.00  0.00    -0.054 C 
ATOM      8  C   UNL     1     -10.730   5.839  11.272  0.00  0.00    -0.079 C 
ATOM      9  C   UNL     1     -10.874   7.013  10.336  0.00  0.00    -0.008 C 
ATOM     10  C   UNL     1      -9.645   7.261   9.437  0.00  0.00    +0.061 C 
ATOM     11  C   UNL     1      -9.484   6.185   8.352  0.00  0.00    +0.003 C 
ATOM     12  C   UNL     1      -8.410   6.504   7.290  0.00  0.00    +0.080 C 
ATOM     13  O   UNL     1      -7.881   5.284   6.723  0.00  0.00    -0.369 OA
ATOM     14  C   UNL     1      -8.732   4.683   5.729  0.00  0.00    +0.065 C 
ATOM     15  C   UNL     1      -8.087   3.338   5.347  0.00  0.00    +0.000 C 
ATOM     16  C   UNL     1      -8.789   2.582   4.196  0.00  0.00    +0.066 C 
ATOM     17  C   UNL     1      -8.280   1.111   4.017  0.00  0.00    +0.009 C 
ATOM     18  C   UNL     1      -8.411   0.238   5.290  0.00  0.00    +0.063 C 
ATOM     19  C   UNL     1      -7.984  -1.236   5.076  0.00  0.00    -0.000 C 
ATOM     20  C   UNL     1      -8.316  -2.064   6.326  0.00  0.00    +0.064 C 
ATOM     21  C   UNL     1      -7.473  -3.357   6.477  0.00  0.00    +0.020 C 
ATOM     22  C   UNL     1      -7.540  -3.953   7.920  0.00  0.00    +0.113 C 
ATOM     23  O   UNL     1      -8.945  -4.274   8.119  0.00  0.00    -0.458 OA
ATOM     24  C   UNL     1      -9.302  -5.442   8.694  0.00  0.00    +0.332 C 
ATOM     25  O   UNL     1      -8.552  -6.252   9.240  0.00  0.00    -0.246 OA
ATOM     26  C   UNL     1     -10.763  -5.653   8.602  0.00  0.00    +0.023 C 
ATOM     27  C   UNL     1     -11.623  -4.724   8.134  0.00  0.00    -0.052 C 
ATOM     28  C   UNL     1     -13.076  -4.829   8.020  0.00  0.00    -0.054 C 
ATOM     29  C   UNL     1     -13.759  -3.736   7.620  0.00  0.00    -0.079 C 
ATOM     30  C   UNL     1     -15.246  -3.558   7.502  0.00  0.00    -0.008 C 
ATOM     31  C   UNL     1     -15.820  -2.274   8.136  0.00  0.00    +0.061 C 
ATOM     32  C   UNL     1     -15.674  -2.129   9.665  0.00  0.00    +0.003 C 
ATOM     33  C   UNL     1     -14.408  -1.503  10.285  0.00  0.00    +0.080 C 
ATOM     34  O   UNL     1     -13.301  -2.400  10.163  0.00  0.00    -0.369 OA
ATOM     35  C   UNL     1     -12.035  -1.866  10.564  0.00  0.00    +0.065 C 
ATOM     36  C   UNL     1     -11.933  -1.589  12.074  0.00  0.00    +0.000 C 
ATOM     37  C   UNL     1     -11.937  -2.898  12.900  0.00  0.00    +0.066 C 
ATOM     38  C   UNL     1     -11.224  -2.699  14.268  0.00  0.00    +0.009 C 
ATOM     39  C   UNL     1      -9.675  -2.826  14.164  0.00  0.00    +0.063 C 
ATOM     40  C   UNL     1      -8.954  -2.214  15.393  0.00  0.00    -0.000 C 
ATOM     41  C   UNL     1      -7.647  -1.449  15.141  0.00  0.00    +0.064 C 
ATOM     42  C   UNL     1      -7.793  -0.060  14.471  0.00  0.00    +0.020 C 
ATOM     43  C   UNL     1     -11.677  -0.646   9.697  0.00  0.00    -0.008 C 
ATOM     44  C   UNL     1     -12.841   0.274   9.481  0.00  0.00    -0.083 C 
ATOM     45  C   UNL     1     -14.083  -0.127   9.765  0.00  0.00    -0.059 C 
ATOM     46  C   UNL     1      -8.884   5.619   4.521  0.00  0.00    -0.008 C 
ATOM     47  C   UNL     1      -9.143   7.032   4.944  0.00  0.00    -0.083 C 
ATOM     48  C   UNL     1      -8.907   7.427   6.201  0.00  0.00    -0.059 C 
ATOM     49  H   UNL     1      -9.656   0.409  15.383  0.00  0.00    +0.074 HD
ATOM     50  H   UNL     1      -9.218   3.836  12.719  0.00  0.00    +0.069 HD
ATOM     51  H   UNL     1     -12.184   3.050  12.419  0.00  0.00    +0.062 HD
ATOM     52  H   UNL     1     -10.000   5.990  12.066  0.00  0.00    +0.058 HD
ATOM     53  H   UNL     1     -11.048   7.901  10.956  0.00  0.00    +0.033 HD
ATOM     54  H   UNL     1     -11.769   6.942   9.711  0.00  0.00    +0.033 HD
ATOM     55  H   UNL     1      -8.741   7.288  10.052  0.00  0.00    +0.060 HD
ATOM     56  H   UNL     1      -9.244   5.228   8.830  0.00  0.00    +0.032 HD
ATOM     57  H   UNL     1     -10.444   6.030   7.845  0.00  0.00    +0.032 HD
ATOM     58  H   UNL     1      -7.553   6.980   7.777  0.00  0.00    +0.064 HD
ATOM     59  H   UNL     1      -9.710   4.482   6.183  0.00  0.00    +0.060 HD
ATOM     60  H   UNL     1      -7.032   3.492   5.092  0.00  0.00    +0.032 HD
ATOM     61  H   UNL     1      -8.085   2.731   6.261  0.00  0.00    +0.032 HD
ATOM     62  H   UNL     1      -8.570   3.126   3.265  0.00  0.00    +0.060 HD
ATOM     63  H   UNL     1      -8.911   0.648   3.252  0.00  0.00    +0.035 HD
ATOM     64  H   UNL     1      -7.764   0.639   6.079  0.00  0.00    +0.060 HD
ATOM     65  H   UNL     1      -6.905  -1.277   4.874  0.00  0.00    +0.032 HD
ATOM     66  H   UNL     1      -8.510  -1.646   4.209  0.00  0.00    +0.032 HD
ATOM     67  H   UNL     1      -8.137  -1.422   7.189  0.00  0.00    +0.060 HD
ATOM     68  H   UNL     1      -6.436  -3.088   6.256  0.00  0.00    +0.036 HD
ATOM     69  H   UNL     1      -6.944  -4.874   7.950  0.00  0.00    +0.074 HD
ATOM     70  H   UNL     1     -11.096  -6.616   8.972  0.00  0.00    +0.069 HD
ATOM     71  H   UNL     1     -11.216  -3.759   7.833  0.00  0.00    +0.062 HD
ATOM     72  H   UNL     1     -13.193  -2.832   7.385  0.00  0.00    +0.058 HD
ATOM     73  H   UNL     1     -15.477  -3.542   6.429  0.00  0.00    +0.033 HD
ATOM     74  H   UNL     1     -15.785  -4.406   7.927  0.00  0.00    +0.033 HD
ATOM     75  H   UNL     1     -16.899  -2.347   7.959  0.00  0.00    +0.060 HD
ATOM     76  H   UNL     1     -15.828  -3.117  10.118  0.00  0.00    +0.032 HD
ATOM     77  H   UNL     1     -16.511  -1.507   9.997  0.00  0.00    +0.032 HD
ATOM     78  H   UNL     1     -14.628  -1.408  11.354  0.00  0.00    +0.064 HD
ATOM     79  H   UNL     1     -11.290  -2.636  10.324  0.00  0.00    +0.060 HD
ATOM     80  H   UNL     1     -12.751  -0.941  12.410  0.00  0.00    +0.032 HD
ATOM     81  H   UNL     1     -11.011  -1.023  12.249  0.00  0.00    +0.032 HD
ATOM     82  H   UNL     1     -11.427  -3.701  12.353  0.00  0.00    +0.060 HD
ATOM     83  H   UNL     1     -11.474  -1.688  14.615  0.00  0.00    +0.035 HD
ATOM     84  H   UNL     1      -9.426  -3.896  14.126  0.00  0.00    +0.060 HD
ATOM     85  H   UNL     1      -8.724  -3.055  16.066  0.00  0.00    +0.032 HD
ATOM     86  H   UNL     1      -9.644  -1.594  15.970  0.00  0.00    +0.032 HD
ATOM     87  H   UNL     1      -7.127  -1.312  16.094  0.00  0.00    +0.060 HD
ATOM     88  H   UNL     1      -8.267  -0.198  13.489  0.00  0.00    +0.036 HD
ATOM     89  H   UNL     1     -10.840  -0.091  10.135  0.00  0.00    +0.033 HD
ATOM     90  H   UNL     1     -11.360  -0.990   8.704  0.00  0.00    +0.033 HD
ATOM     91  H   UNL     1     -12.653   1.252   9.050  0.00  0.00    +0.057 HD
ATOM     92  H   UNL     1     -14.918   0.553   9.598  0.00  0.00    +0.059 HD
ATOM     93  H   UNL     1      -7.978   5.607   3.906  0.00  0.00    +0.033 HD
ATOM     94  H   UNL     1      -9.713   5.277   3.890  0.00  0.00    +0.033 HD
ATOM     95  H   UNL     1      -9.501   7.734   4.203  0.00  0.00    +0.057 HD
ATOM     96  H   UNL     1      -9.097   8.460   6.478  0.00  0.00    +0.059 HD
ENDROOT
BRANCH  28  97
ATOM     97  C   UNL     1     -13.715  -6.147   8.377  0.00  0.00    -0.040 C 
ATOM     98  H   UNL     1     -14.361  -6.489   7.562  0.00  0.00    +0.028 HD
ATOM     99  H   UNL     1     -14.357  -6.098   9.261  0.00  0.00    +0.028 HD
ATOM    100  H   UNL     1     -12.953  -6.911   8.570  0.00  0.00    +0.028 HD
ENDBRANCH  28  97
BRANCH  21 101
ATOM    101  C   UNL     1      -7.860  -4.433   5.453  0.00  0.00    -0.057 C 
ATOM    102  H   UNL     1      -7.921  -4.017   4.445  0.00  0.00    +0.023 HD
ATOM    103  H   UNL     1      -7.110  -5.227   5.438  0.00  0.00    +0.023 HD
ATOM    104  H   UNL     1      -8.823  -4.900   5.680  0.00  0.00    +0.023 HD
ENDBRANCH  21 101
BRANCH  42 105
ATOM    105  C   UNL     1      -6.410   0.511  14.114  0.00  0.00    -0.057 C 
ATOM    106  H   UNL     1      -6.431   1.599  14.041  0.00  0.00    +0.023 HD
ATOM    107  H   UNL     1      -6.020   0.089  13.184  0.00  0.00    +0.023 HD
ATOM    108  H   UNL     1      -5.693   0.271  14.903  0.00  0.00    +0.023 HD
ENDBRANCH  42 105
BRANCH  17 109
ATOM    109  C   UNL     1      -6.845   1.100   3.477  0.00  0.00    -0.058 C 
ATOM    110  H   UNL     1      -6.356   0.145   3.667  0.00  0.00    +0.023 HD
ATOM    111  H   UNL     1      -6.244   1.868   3.975  0.00  0.00    +0.023 HD
ATOM    112  H   UNL     1      -6.815   1.296   2.406  0.00  0.00    +0.023 HD
ENDBRANCH  17 109
BRANCH  38 113
ATOM    113  C   UNL     1     -11.724  -3.668  15.354  0.00  0.00    -0.058 C 
ATOM    114  H   UNL     1     -12.061  -3.144  16.256  0.00  0.00    +0.023 HD
ATOM    115  H   UNL     1     -12.565  -4.273  14.980  0.00  0.00    +0.023 HD
ATOM    116  H   UNL     1     -10.935  -4.358  15.666  0.00  0.00    +0.023 HD
ENDBRANCH  38 113
BRANCH   7 117
ATOM    117  C   UNL     1     -12.513   4.426  10.209  0.00  0.00    -0.040 C 
ATOM    118  H   UNL     1     -12.064   4.012   9.303  0.00  0.00    +0.028 HD
ATOM    119  H   UNL     1     -13.047   5.341   9.933  0.00  0.00    +0.028 HD
ATOM    120  H   UNL     1     -13.271   3.725  10.576  0.00  0.00    +0.028 HD
ENDBRANCH   7 117
BRANCH   1 121
ATOM    121  C   UNL     1      -8.268   1.410  16.657  0.00  0.00    +0.020 C 
ATOM    122  H   UNL     1      -7.402   0.817  16.970  0.00  0.00    +0.036 HD
BRANCH 121 123
ATOM    123  C   UNL     1      -7.821   2.883  16.708  0.00  0.00    -0.057 C 
ATOM    124  H   UNL     1      -7.577   3.280  15.719  0.00  0.00    +0.023 HD
ATOM    125  H   UNL     1      -8.598   3.516  17.145  0.00  0.00    +0.023 HD
ATOM    126  H   UNL     1      -6.953   3.007  17.359  0.00  0.00    +0.023 HD
ENDBRANCH 121 123
BRANCH 121 127
ATOM    127  C   UNL     1      -9.383   1.211  17.739  0.00  0.00    +0.064 C 
ATOM    128  H   UNL     1      -9.427   2.115  18.361  0.00  0.00    +0.060 HD
BRANCH 127 129
ATOM    129  C   UNL     1      -9.184   0.004  18.702  0.00  0.00    -0.017 C 
ATOM    130  H   UNL     1      -9.208   0.357  19.737  0.00  0.00    +0.032 HD
BRANCH 129 131
ATOM    131  C   UNL     1     -10.288  -1.043  18.524  0.00  0.00    -0.060 C 
ATOM    132  H   UNL     1     -11.223  -0.606  18.165  0.00  0.00    +0.023 HD
ATOM    133  H   UNL     1      -9.985  -1.821  17.813  0.00  0.00    +0.023 HD
ATOM    134  H   UNL     1     -10.517  -1.531  19.478  0.00  0.00    +0.023 HD
ENDBRANCH 129 131
BRANCH 129 135
ATOM    135  C   UNL     1      -7.822  -0.711  18.513  0.00  0.00    -0.046 C 
ATOM    136  H   UNL     1      -7.548  -0.632  17.454  0.00  0.00    +0.027 HD
ATOM    137  H   UNL     1      -7.036  -0.191  19.073  0.00  0.00    +0.027 HD
BRANCH 135 138
ATOM    138  C   UNL     1      -7.825  -2.195  18.906  0.00  0.00    -0.026 C 
ATOM    139  H   UNL     1      -8.773  -2.449  19.387  0.00  0.00    +0.029 HD
ATOM    140  H   UNL     1      -7.755  -2.804  17.996  0.00  0.00    +0.029 HD
BRANCH 138 143
ATOM    141  C   UNL     1      -7.292  -4.846  20.328  0.00  0.00    +0.059 C 
ATOM    142  O   UNL     1      -6.321  -3.931  19.808  0.00  0.00    -0.373 OA
ATOM    143  C   UNL     1      -6.689  -2.549  19.881  0.00  0.00    +0.061 C 
ATOM    144  C   UNL     1      -7.006  -2.164  21.327  0.00  0.00    -0.000 C 
ATOM    145  C   UNL     1      -8.053  -3.089  21.944  0.00  0.00    +0.063 C 
ATOM    146  C   UNL     1      -7.603  -4.539  21.787  0.00  0.00    -0.000 C 
ATOM    147  H   UNL     1      -8.201  -4.787  19.720  0.00  0.00    +0.059 HD
ATOM    148  H   UNL     1      -5.800  -1.986  19.569  0.00  0.00    +0.060 HD
ATOM    149  H   UNL     1      -6.084  -2.233  21.922  0.00  0.00    +0.032 HD
ATOM    150  H   UNL     1      -7.328  -1.118  21.392  0.00  0.00    +0.032 HD
ATOM    151  H   UNL     1      -9.015  -2.934  21.439  0.00  0.00    +0.060 HD
ATOM    152  H   UNL     1      -8.366  -5.229  22.167  0.00  0.00    +0.032 HD
ATOM    153  H   UNL     1      -6.709  -4.698  22.408  0.00  0.00    +0.032 HD
BRANCH 141 154
ATOM    154  C   UNL     1      -6.719  -6.247  20.173  0.00  0.00    -0.039 C 
ATOM    155  H   UNL     1      -7.484  -6.961  19.855  0.00  0.00    +0.025 HD
ATOM    156  H   UNL     1      -5.909  -6.250  19.434  0.00  0.00    +0.025 HD
ATOM    157  H   UNL     1      -6.281  -6.596  21.116  0.00  0.00    +0.025 HD
ENDBRANCH 141 154
BRANCH 145 158
ATOM    158  O   UNL     1      -8.195  -2.715  23.318  0.00  0.00    -0.380 OA
BRANCH 158 159
ATOM    159  C   UNL     1      -8.571  -3.797  24.161  0.00  0.00    +0.037 C 
ATOM    160  H   UNL     1      -9.380  -3.455  24.810  0.00  0.00    +0.052 HD
ATOM    161  H   UNL     1      -7.734  -4.102  24.791  0.00  0.00    +0.052 HD
ATOM    162  H   UNL     1      -8.937  -4.649  23.579  0.00  0.00    +0.052 HD
ENDBRANCH 158 159
ENDBRANCH 145 158
ENDBRANCH 138 143
ENDBRANCH 135 138
ENDBRANCH 129 135
ENDBRANCH 127 129
BRANCH 127 163
ATOM    163  O   UNL     1     -10.651   1.099  17.097  0.00  0.00    -0.391 OA
ATOM    164  H   UNL     1     -10.619   0.339  16.493  0.00  0.00    +0.210 HD
ENDBRANCH 127 163
ENDBRANCH 121 127
ENDBRANCH   1 121
BRANCH  41 165
ATOM    165  O   UNL     1      -6.807  -2.281  14.325  0.00  0.00    -0.391 OA
ATOM    166  H   UNL     1      -6.003  -1.768  14.124  0.00  0.00    +0.210 HD
ENDBRANCH  41 165
BRANCH  39 167
ATOM    167  O   UNL     1      -9.195  -2.292  12.945  0.00  0.00    -0.391 OA
ATOM    168  H   UNL     1      -8.998  -1.344  13.102  0.00  0.00    +0.210 HD
ENDBRANCH  39 167
BRANCH  31 169
ATOM    169  O   UNL     1     -15.433  -1.092   7.441  0.00  0.00    -0.391 OA
ATOM    170  H   UNL     1     -14.639  -0.725   7.870  0.00  0.00    +0.210 HD
ENDBRANCH  31 169
BRANCH  22 171
ATOM    171  C   UNL     1      -7.065  -2.997   9.063  0.00  0.00    +0.020 C 
ATOM    172  H   UNL     1      -6.696  -2.087   8.585  0.00  0.00    +0.036 HD
BRANCH 171 173
ATOM    173  C   UNL     1      -8.254  -2.507   9.911  0.00  0.00    -0.057 C 
ATOM    174  H   UNL     1      -8.800  -3.352  10.347  0.00  0.00    +0.023 HD
ATOM    175  H   UNL     1      -7.914  -1.877  10.742  0.00  0.00    +0.023 HD
ATOM    176  H   UNL     1      -8.949  -1.903   9.319  0.00  0.00    +0.023 HD
ENDBRANCH 171 173
BRANCH 171 177
ATOM    177  C   UNL     1      -5.972  -3.543  10.046  0.00  0.00    +0.064 C 
ATOM    178  H   UNL     1      -6.376  -4.415  10.579  0.00  0.00    +0.060 HD
BRANCH 177 179
ATOM    179  O   UNL     1      -4.845  -4.041   9.327  0.00  0.00    -0.391 OA
ATOM    180  H   UNL     1      -4.222  -3.302   9.203  0.00  0.00    +0.210 HD
ENDBRANCH 177 179
BRANCH 177 181
ATOM    181  C   UNL     1      -5.494  -2.504  11.120  0.00  0.00    -0.017 C 
ATOM    182  H   UNL     1      -6.381  -2.141  11.657  0.00  0.00    +0.032 HD
BRANCH 181 183
ATOM    183  C   UNL     1      -4.530  -3.151  12.129  0.00  0.00    -0.060 C 
ATOM    184  H   UNL     1      -5.096  -3.767  12.835  0.00  0.00    +0.023 HD
ATOM    185  H   UNL     1      -3.956  -2.417  12.699  0.00  0.00    +0.023 HD
ATOM    186  H   UNL     1      -3.786  -3.777  11.633  0.00  0.00    +0.023 HD
ENDBRANCH 181 183
BRANCH 181 187
ATOM    187  C   UNL     1      -4.817  -1.270  10.452  0.00  0.00    -0.046 C 
ATOM    188  H   UNL     1      -4.691  -1.467   9.384  0.00  0.00    +0.027 HD
ATOM    189  H   UNL     1      -3.817  -1.159  10.888  0.00  0.00    +0.027 HD
BRANCH 187 190
ATOM    190  C   UNL     1      -5.595   0.050  10.618  0.00  0.00    -0.026 C 
ATOM    191  H   UNL     1      -4.911   0.800  11.025  0.00  0.00    +0.029 HD
ATOM    192  H   UNL     1      -6.386  -0.102  11.363  0.00  0.00    +0.029 HD
BRANCH 190 193
ATOM    193  C   UNL     1      -6.216   0.699   9.362  0.00  0.00    +0.061 C 
ATOM    194  O   UNL     1      -5.564   1.908   8.973  0.00  0.00    -0.373 OA
ATOM    195  C   UNL     1      -6.021   3.105   9.591  0.00  0.00    +0.059 C 
ATOM    196  C   UNL     1      -7.520   3.294   9.407  0.00  0.00    -0.000 C 
ATOM    197  C   UNL     1      -8.280   2.082   9.958  0.00  0.00    +0.063 C 
ATOM    198  C   UNL     1      -7.741   0.804   9.319  0.00  0.00    -0.000 C 
ATOM    199  H   UNL     1      -5.951   0.003   8.554  0.00  0.00    +0.060 HD
ATOM    200  H   UNL     1      -5.765   3.078  10.656  0.00  0.00    +0.059 HD
ATOM    201  H   UNL     1      -7.848   4.211   9.908  0.00  0.00    +0.032 HD
ATOM    202  H   UNL     1      -7.773   3.411   8.347  0.00  0.00    +0.032 HD
ATOM    203  H   UNL     1      -8.160   2.040  11.043  0.00  0.00    +0.060 HD
ATOM    204  H   UNL     1      -8.047   0.818   8.263  0.00  0.00    +0.032 HD
ATOM    205  H   UNL     1      -8.217  -0.084   9.750  0.00  0.00    +0.032 HD
BRANCH 195 206
ATOM    206  C   UNL     1      -5.265   4.264   8.953  0.00  0.00    -0.039 C 
ATOM    207  H   UNL     1      -4.979   5.003   9.703  0.00  0.00    +0.025 HD
ATOM    208  H   UNL     1      -4.361   3.909   8.452  0.00  0.00    +0.025 HD
ATOM    209  H   UNL     1      -5.873   4.759   8.192  0.00  0.00    +0.025 HD
ENDBRANCH 195 206
BRANCH 197 210
ATOM    210  O   UNL     1      -9.684   2.129   9.677  0.00  0.00    -0.380 OA
BRANCH 210 211
ATOM    211  C   UNL     1      -9.998   2.496   8.342  0.00  0.00    +0.037 C 
ATOM    212  H   UNL     1     -10.696   3.333   8.339  0.00  0.00    +0.052 HD
ATOM    213  H   UNL     1      -9.078   2.828   7.853  0.00  0.00    +0.052 HD
ATOM    214  H   UNL     1     -10.408   1.652   7.783  0.00  0.00    +0.052 HD
ENDBRANCH 210 211
ENDBRANCH 197 210
ENDBRANCH 190 193
ENDBRANCH 187 190
ENDBRANCH 181 187
ENDBRANCH 177 181
ENDBRANCH 171 177
ENDBRANCH  22 171
BRANCH  20 215
ATOM    215  O   UNL     1      -9.728  -2.313   6.292  0.00  0.00    -0.391 OA
ATOM    216  H   UNL     1     -10.164  -1.738   6.944  0.00  0.00    +0.210 HD
ENDBRANCH  20 215
BRANCH  18 217
ATOM    217  O   UNL     1      -9.750   0.316   5.771  0.00  0.00    -0.391 OA
ATOM    218  H   UNL     1      -9.779   0.087   6.725  0.00  0.00    +0.210 HD
ENDBRANCH  18 217
BRANCH  10 219
ATOM    219  O   UNL     1      -9.790   8.556   8.852  0.00  0.00    -0.391 OA
ATOM    220  H   UNL     1     -10.732   8.799   8.896  0.00  0.00    +0.210 HD
ENDBRANCH  10 219
BRANCH  37 221
ATOM    221  O   UNL     1     -13.312  -3.244  13.132  0.00  0.00    -0.379 OA
BRANCH 221 222
ATOM    222  C   UNL     1     -13.633  -4.542  12.649  0.00  0.00    +0.037 C 
ATOM    223  H   UNL     1     -14.497  -4.498  11.977  0.00  0.00    +0.052 HD
ATOM    224  H   UNL     1     -13.844  -5.229  13.474  0.00  0.00    +0.052 HD
ATOM    225  H   UNL     1     -12.776  -4.930  12.088  0.00  0.00    +0.052 HD
ENDBRANCH 221 222
ENDBRANCH  37 221
BRANCH  16 226
ATOM    226  O   UNL     1     -10.202   2.677   4.413  0.00  0.00    -0.379 OA
BRANCH 226 227
ATOM    227  C   UNL     1     -10.994   2.560   3.241  0.00  0.00    +0.037 C 
ATOM    228  H   UNL     1     -10.875   3.481   2.664  0.00  0.00    +0.052 HD
ATOM    229  H   UNL     1     -10.659   1.723   2.619  0.00  0.00    +0.052 HD
ATOM    230  H   UNL     1     -12.055   2.454   3.486  0.00  0.00    +0.052 HD
ENDBRANCH 226 227
ENDBRANCH  16 226
TORSDOF 40
ENDMDL
MODEL 5
REMARK VINA RESULT:      -5.3      2.909     11.030
REMARK  Name = Swinholide A_conf2
REMARK  40 active torsions:
REMARK  status: ('A' for Active; 'I' for Inactive)
REMARK    1  A    between atoms: C_1  and  C_2
REMARK    2  A    between atoms: C_4  and  C_10
REMARK    3  A    between atoms: C_6  and  O_8
REMARK    4  A    between atoms: O_8  and  C_9
REMARK    5  A    between atoms: C_10  and  C_11
REMARK    6  A    between atoms: C_11  and  C_12
REMARK    7  A    between atoms: C_12  and  C_13
REMARK    8  A    between atoms: C_12  and  C_98
REMARK    9  A    between atoms: C_13  and  O_14
REMARK   10  A    between atoms: C_13  and  C_15
REMARK   11  A    between atoms: C_15  and  C_16
REMARK   12  A    between atoms: C_15  and  C_97
REMARK   13  A    between atoms: C_22  and  C_96
REMARK   14  A    between atoms: C_25  and  O_95
REMARK   15  A    between atoms: C_31  and  O_90
REMARK   16  A    between atoms: C_32  and  C_89
REMARK   17  A    between atoms: C_33  and  O_88
REMARK   18  A    between atoms: C_35  and  O_87
REMARK   19  A    between atoms: C_36  and  C_86
REMARK   20  A    between atoms: C_37  and  C_69
REMARK   21  A    between atoms: C_43  and  C_68
REMARK   22  A    between atoms: C_46  and  O_67
REMARK   23  A    between atoms: C_52  and  O_62
REMARK   24  A    between atoms: C_53  and  C_61
REMARK   25  A    between atoms: C_54  and  O_60
REMARK   26  A    between atoms: C_56  and  O_59
REMARK   27  A    between atoms: C_57  and  C_58
REMARK   28  A    between atoms: O_62  and  C_63
REMARK   29  A    between atoms: C_69  and  C_70
REMARK   30  A    between atoms: C_69  and  C_85
REMARK   31  A    between atoms: C_70  and  O_71
REMARK   32  A    between atoms: C_70  and  C_72
REMARK   33  A    between atoms: C_72  and  C_73
REMARK   34  A    between atoms: C_72  and  C_84
REMARK   35  A    between atoms: C_73  and  C_74
REMARK   36  A    between atoms: C_74  and  C_75
REMARK   37  A    between atoms: C_77  and  C_83
REMARK   38  A    between atoms: C_79  and  O_81
REMARK   39  A    between atoms: O_81  and  C_82
REMARK   40  A    between atoms: O_90  and  C_91
REMARK                            x       y       z     vdW  Elec       q    Type
REMARK                         _______ _______ _______ _____ _____    ______ ____
ROOT
ATOM      1  C   UNL     1      -8.140  17.242  22.713  0.00  0.00    +0.113 C 
ATOM      2  O   UNL     1      -9.150  17.728  21.791  0.00  0.00    -0.458 OA
ATOM      3  C   UNL     1     -10.405  17.251  21.977  0.00  0.00    +0.332 C 
ATOM      4  O   UNL     1     -10.779  16.491  22.853  0.00  0.00    -0.246 OA
ATOM      5  C   UNL     1     -11.272  17.774  20.899  0.00  0.00    +0.023 C 
ATOM      6  C   UNL     1     -12.588  17.510  20.932  0.00  0.00    -0.052 C 
ATOM      7  C   UNL     1     -13.566  17.874  19.912  0.00  0.00    -0.054 C 
ATOM      8  C   UNL     1     -13.455  18.992  19.169  0.00  0.00    -0.079 C 
ATOM      9  C   UNL     1     -14.447  19.484  18.145  0.00  0.00    -0.008 C 
ATOM     10  C   UNL     1     -13.914  19.488  16.697  0.00  0.00    +0.061 C 
ATOM     11  C   UNL     1     -13.757  18.071  16.125  0.00  0.00    +0.003 C 
ATOM     12  C   UNL     1     -13.446  18.022  14.614  0.00  0.00    +0.080 C 
ATOM     13  O   UNL     1     -12.721  16.815  14.285  0.00  0.00    -0.369 OA
ATOM     14  C   UNL     1     -13.552  15.642  14.186  0.00  0.00    +0.065 C 
ATOM     15  C   UNL     1     -12.606  14.445  13.977  0.00  0.00    +0.000 C 
ATOM     16  C   UNL     1     -13.311  13.094  13.724  0.00  0.00    +0.066 C 
ATOM     17  C   UNL     1     -12.341  11.865  13.787  0.00  0.00    +0.009 C 
ATOM     18  C   UNL     1     -11.567  11.739  15.123  0.00  0.00    +0.063 C 
ATOM     19  C   UNL     1     -10.676  10.474  15.204  0.00  0.00    -0.000 C 
ATOM     20  C   UNL     1     -10.093  10.335  16.619  0.00  0.00    +0.064 C 
ATOM     21  C   UNL     1      -8.796   9.487  16.694  0.00  0.00    +0.020 C 
ATOM     22  C   UNL     1      -8.021   9.693  18.034  0.00  0.00    +0.113 C 
ATOM     23  O   UNL     1      -8.944   9.242  19.064  0.00  0.00    -0.458 OA
ATOM     24  C   UNL     1      -8.505   8.475  20.084  0.00  0.00    +0.332 C 
ATOM     25  O   UNL     1      -7.333   8.214  20.356  0.00  0.00    -0.246 OA
ATOM     26  C   UNL     1      -9.637   7.961  20.886  0.00  0.00    +0.023 C 
ATOM     27  C   UNL     1     -10.918   8.340  20.696  0.00  0.00    -0.052 C 
ATOM     28  C   UNL     1     -12.097   7.906  21.441  0.00  0.00    -0.054 C 
ATOM     29  C   UNL     1     -13.279   8.492  21.152  0.00  0.00    -0.079 C 
ATOM     30  C   UNL     1     -14.608   8.290  21.822  0.00  0.00    -0.008 C 
ATOM     31  C   UNL     1     -15.369   9.575  22.205  0.00  0.00    +0.061 C 
ATOM     32  C   UNL     1     -14.703  10.490  23.253  0.00  0.00    +0.003 C 
ATOM     33  C   UNL     1     -13.696  11.579  22.830  0.00  0.00    +0.080 C 
ATOM     34  O   UNL     1     -12.463  10.981  22.419  0.00  0.00    -0.369 OA
ATOM     35  C   UNL     1     -11.504  11.883  21.857  0.00  0.00    +0.065 C 
ATOM     36  C   UNL     1     -10.938  12.892  22.872  0.00  0.00    +0.000 C 
ATOM     37  C   UNL     1     -10.052  12.200  23.936  0.00  0.00    +0.066 C 
ATOM     38  C   UNL     1      -9.013  13.193  24.531  0.00  0.00    +0.009 C 
ATOM     39  C   UNL     1      -7.743  13.340  23.641  0.00  0.00    +0.063 C 
ATOM     40  C   UNL     1      -6.929  14.614  23.989  0.00  0.00    -0.000 C 
ATOM     41  C   UNL     1      -6.296  15.392  22.827  0.00  0.00    +0.064 C 
ATOM     42  C   UNL     1      -7.276  16.199  21.938  0.00  0.00    +0.020 C 
ATOM     43  C   UNL     1     -12.081  12.549  20.595  0.00  0.00    -0.008 C 
ATOM     44  C   UNL     1     -13.505  12.985  20.769  0.00  0.00    -0.083 C 
ATOM     45  C   UNL     1     -14.228  12.543  21.801  0.00  0.00    -0.059 C 
ATOM     46  C   UNL     1     -14.557  15.797  13.035  0.00  0.00    -0.008 C 
ATOM     47  C   UNL     1     -15.202  17.149  13.041  0.00  0.00    -0.083 C 
ATOM     48  C   UNL     1     -14.677  18.157  13.749  0.00  0.00    -0.059 C 
ATOM     49  H   UNL     1      -8.624  16.681  23.511  0.00  0.00    +0.074 HD
ATOM     50  H   UNL     1     -10.795  18.326  20.103  0.00  0.00    +0.069 HD
ATOM     51  H   UNL     1     -12.986  16.925  21.760  0.00  0.00    +0.062 HD
ATOM     52  H   UNL     1     -12.610  19.661  19.328  0.00  0.00    +0.058 HD
ATOM     53  H   UNL     1     -14.720  20.510  18.427  0.00  0.00    +0.033 HD
ATOM     54  H   UNL     1     -15.392  18.935  18.179  0.00  0.00    +0.033 HD
ATOM     55  H   UNL     1     -12.947  19.998  16.664  0.00  0.00    +0.060 HD
ATOM     56  H   UNL     1     -12.963  17.550  16.673  0.00  0.00    +0.032 HD
ATOM     57  H   UNL     1     -14.672  17.496  16.314  0.00  0.00    +0.032 HD
ATOM     58  H   UNL     1     -12.759  18.836  14.362  0.00  0.00    +0.064 HD
ATOM     59  H   UNL     1     -14.079  15.506  15.138  0.00  0.00    +0.060 HD
ATOM     60  H   UNL     1     -11.917  14.656  13.150  0.00  0.00    +0.032 HD
ATOM     61  H   UNL     1     -11.980  14.390  14.876  0.00  0.00    +0.032 HD
ATOM     62  H   UNL     1     -13.737  13.130  12.711  0.00  0.00    +0.060 HD
ATOM     63  H   UNL     1     -12.961  10.967  13.697  0.00  0.00    +0.035 HD
ATOM     64  H   UNL     1     -10.898  12.599  15.243  0.00  0.00    +0.060 HD
ATOM     65  H   UNL     1      -9.864  10.551  14.469  0.00  0.00    +0.032 HD
ATOM     66  H   UNL     1     -11.273   9.590  14.961  0.00  0.00    +0.032 HD
ATOM     67  H   UNL     1      -9.878  11.342  16.974  0.00  0.00    +0.060 HD
ATOM     68  H   UNL     1      -8.158   9.809  15.865  0.00  0.00    +0.036 HD
ATOM     69  H   UNL     1      -7.132   9.049  18.030  0.00  0.00    +0.074 HD
ATOM     70  H   UNL     1      -9.348   7.268  21.667  0.00  0.00    +0.069 HD
ATOM     71  H   UNL     1     -11.121   9.083  19.925  0.00  0.00    +0.062 HD
ATOM     72  H   UNL     1     -13.300   9.249  20.365  0.00  0.00    +0.058 HD
ATOM     73  H   UNL     1     -15.231   7.720  21.118  0.00  0.00    +0.033 HD
ATOM     74  H   UNL     1     -14.514   7.680  22.722  0.00  0.00    +0.033 HD
ATOM     75  H   UNL     1     -16.285   9.211  22.687  0.00  0.00    +0.060 HD
ATOM     76  H   UNL     1     -14.225   9.853  24.008  0.00  0.00    +0.032 HD
ATOM     77  H   UNL     1     -15.515  11.015  23.766  0.00  0.00    +0.032 HD
ATOM     78  H   UNL     1     -13.489  12.150  23.740  0.00  0.00    +0.064 HD
ATOM     79  H   UNL     1     -10.667  11.261  21.515  0.00  0.00    +0.060 HD
ATOM     80  H   UNL     1     -11.744  13.443  23.368  0.00  0.00    +0.032 HD
ATOM     81  H   UNL     1     -10.361  13.638  22.314  0.00  0.00    +0.032 HD
ATOM     82  H   UNL     1      -9.514  11.350  23.497  0.00  0.00    +0.060 HD
ATOM     83  H   UNL     1      -9.509  14.169  24.605  0.00  0.00    +0.035 HD
ATOM     84  H   UNL     1      -7.099  12.469  23.824  0.00  0.00    +0.060 HD
ATOM     85  H   UNL     1      -6.115  14.287  24.654  0.00  0.00    +0.032 HD
ATOM     86  H   UNL     1      -7.523  15.288  24.609  0.00  0.00    +0.032 HD
ATOM     87  H   UNL     1      -5.552  16.087  23.229  0.00  0.00    +0.060 HD
ATOM     88  H   UNL     1      -7.993  15.498  21.489  0.00  0.00    +0.036 HD
ATOM     89  H   UNL     1     -11.464  13.402  20.291  0.00  0.00    +0.033 HD
ATOM     90  H   UNL     1     -12.073  11.826  19.770  0.00  0.00    +0.033 HD
ATOM     91  H   UNL     1     -13.942  13.632  20.016  0.00  0.00    +0.057 HD
ATOM     92  H   UNL     1     -15.262  12.868  21.911  0.00  0.00    +0.059 HD
ATOM     93  H   UNL     1     -14.062  15.660  12.068  0.00  0.00    +0.033 HD
ATOM     94  H   UNL     1     -15.335  15.030  13.117  0.00  0.00    +0.033 HD
ATOM     95  H   UNL     1     -16.088  17.300  12.440  0.00  0.00    +0.057 HD
ATOM     96  H   UNL     1     -15.163  19.129  13.730  0.00  0.00    +0.059 HD
ENDROOT
BRANCH  28  97
ATOM     97  C   UNL     1     -11.911   6.847  22.498  0.00  0.00    -0.040 C 
ATOM     98  H   UNL     1     -12.135   7.254  23.488  0.00  0.00    +0.028 HD
ATOM     99  H   UNL     1     -10.887   6.465  22.560  0.00  0.00    +0.028 HD
ATOM    100  H   UNL     1     -12.567   5.989  22.311  0.00  0.00    +0.028 HD
ENDBRANCH  28  97
BRANCH  21 101
ATOM    101  C   UNL     1      -9.059   7.991  16.470  0.00  0.00    -0.057 C 
ATOM    102  H   UNL     1      -8.714   7.397  17.320  0.00  0.00    +0.023 HD
ATOM    103  H   UNL     1     -10.129   7.809  16.353  0.00  0.00    +0.023 HD
ATOM    104  H   UNL     1      -8.563   7.608  15.574  0.00  0.00    +0.023 HD
ENDBRANCH  21 101
BRANCH  42 105
ATOM    105  C   UNL     1      -6.539  16.776  20.717  0.00  0.00    -0.057 C 
ATOM    106  H   UNL     1      -6.612  16.112  19.854  0.00  0.00    +0.023 HD
ATOM    107  H   UNL     1      -5.488  16.983  20.932  0.00  0.00    +0.023 HD
ATOM    108  H   UNL     1      -7.000  17.720  20.416  0.00  0.00    +0.023 HD
ENDBRANCH  42 105
BRANCH  17 109
ATOM    109  C   UNL     1     -11.388  11.870  12.587  0.00  0.00    -0.058 C 
ATOM    110  H   UNL     1     -10.382  11.567  12.876  0.00  0.00    +0.023 HD
ATOM    111  H   UNL     1     -11.306  12.878  12.168  0.00  0.00    +0.023 HD
ATOM    112  H   UNL     1     -11.733  11.207  11.794  0.00  0.00    +0.023 HD
ENDBRANCH  17 109
BRANCH  38 113
ATOM    113  C   UNL     1      -8.571  12.819  25.957  0.00  0.00    -0.058 C 
ATOM    114  H   UNL     1      -9.205  12.041  26.399  0.00  0.00    +0.023 HD
ATOM    115  H   UNL     1      -7.533  12.451  25.959  0.00  0.00    +0.023 HD
ATOM    116  H   UNL     1      -8.615  13.682  26.627  0.00  0.00    +0.023 HD
ENDBRANCH  38 113
BRANCH   7 117
ATOM    117  C   UNL     1     -14.723  16.916  19.793  0.00  0.00    -0.040 C 
ATOM    118  H   UNL     1     -14.471  15.958  20.256  0.00  0.00    +0.028 HD
ATOM    119  H   UNL     1     -14.978  16.728  18.746  0.00  0.00    +0.028 HD
ATOM    120  H   UNL     1     -15.630  17.306  20.268  0.00  0.00    +0.028 HD
ENDBRANCH   7 117
BRANCH   1 121
ATOM    121  C   UNL     1      -7.416  18.437  23.400  0.00  0.00    +0.020 C 
ATOM    122  H   UNL     1      -6.341  18.232  23.422  0.00  0.00    +0.036 HD
BRANCH 121 123
ATOM    123  C   UNL     1      -7.583  19.776  22.657  0.00  0.00    -0.057 C 
ATOM    124  H   UNL     1      -6.697  20.044  22.076  0.00  0.00    +0.023 HD
ATOM    125  H   UNL     1      -8.439  19.745  21.976  0.00  0.00    +0.023 HD
ATOM    126  H   UNL     1      -7.804  20.587  23.354  0.00  0.00    +0.023 HD
ENDBRANCH 121 123
BRANCH 121 127
ATOM    127  C   UNL     1      -7.880  18.652  24.881  0.00  0.00    +0.064 C 
ATOM    128  H   UNL     1      -7.552  19.647  25.207  0.00  0.00    +0.060 HD
BRANCH 127 129
ATOM    129  C   UNL     1      -7.328  17.629  25.917  0.00  0.00    -0.017 C 
ATOM    130  H   UNL     1      -7.316  16.630  25.471  0.00  0.00    +0.032 HD
BRANCH 129 131
ATOM    131  C   UNL     1      -5.901  17.982  26.349  0.00  0.00    -0.060 C 
ATOM    132  H   UNL     1      -5.507  18.850  25.814  0.00  0.00    +0.023 HD
ATOM    133  H   UNL     1      -5.854  18.199  27.422  0.00  0.00    +0.023 HD
ATOM    134  H   UNL     1      -5.217  17.151  26.143  0.00  0.00    +0.023 HD
ENDBRANCH 129 131
BRANCH 129 135
ATOM    135  C   UNL     1      -8.195  17.527  27.198  0.00  0.00    -0.046 C 
ATOM    136  H   UNL     1      -7.526  17.616  28.063  0.00  0.00    +0.027 HD
ATOM    137  H   UNL     1      -8.890  18.373  27.259  0.00  0.00    +0.027 HD
BRANCH 135 138
ATOM    138  C   UNL     1      -8.985  16.217  27.327  0.00  0.00    -0.026 C 
ATOM    139  H   UNL     1      -9.047  15.725  26.353  0.00  0.00    +0.029 HD
ATOM    140  H   UNL     1      -8.440  15.537  27.994  0.00  0.00    +0.029 HD
BRANCH 138 143
ATOM    141  C   UNL     1     -10.926  14.174  28.509  0.00  0.00    +0.059 C 
ATOM    142  O   UNL     1     -10.763  15.542  28.899  0.00  0.00    -0.373 OA
ATOM    143  C   UNL     1     -10.418  16.439  27.838  0.00  0.00    +0.061 C 
ATOM    144  C   UNL     1     -11.464  16.365  26.724  0.00  0.00    -0.000 C 
ATOM    145  C   UNL     1     -11.677  14.931  26.241  0.00  0.00    +0.063 C 
ATOM    146  C   UNL     1     -11.999  14.038  27.436  0.00  0.00    -0.000 C 
ATOM    147  H   UNL     1      -9.967  13.790  28.144  0.00  0.00    +0.059 HD
ATOM    148  H   UNL     1     -10.460  17.447  28.272  0.00  0.00    +0.060 HD
ATOM    149  H   UNL     1     -12.419  16.750  27.108  0.00  0.00    +0.032 HD
ATOM    150  H   UNL     1     -11.192  17.017  25.887  0.00  0.00    +0.032 HD
ATOM    151  H   UNL     1     -10.768  14.580  25.739  0.00  0.00    +0.060 HD
ATOM    152  H   UNL     1     -12.096  12.990  27.126  0.00  0.00    +0.032 HD
ATOM    153  H   UNL     1     -12.979  14.331  27.840  0.00  0.00    +0.032 HD
BRANCH 141 154
ATOM    154  C   UNL     1     -11.297  13.390  29.758  0.00  0.00    -0.039 C 
ATOM    155  H   UNL     1     -11.416  14.047  30.625  0.00  0.00    +0.025 HD
ATOM    156  H   UNL     1     -12.235  12.843  29.603  0.00  0.00    +0.025 HD
ATOM    157  H   UNL     1     -10.533  12.639  29.988  0.00  0.00    +0.025 HD
ENDBRANCH 141 154
BRANCH 145 158
ATOM    158  O   UNL     1     -12.743  14.957  25.286  0.00  0.00    -0.380 OA
BRANCH 158 159
ATOM    159  C   UNL     1     -13.445  16.194  25.259  0.00  0.00    +0.037 C 
ATOM    160  H   UNL     1     -13.108  16.755  24.384  0.00  0.00    +0.052 HD
ATOM    161  H   UNL     1     -13.221  16.784  26.148  0.00  0.00    +0.052 HD
ATOM    162  H   UNL     1     -14.524  16.039  25.170  0.00  0.00    +0.052 HD
ENDBRANCH 158 159
ENDBRANCH 145 158
ENDBRANCH 138 143
ENDBRANCH 135 138
ENDBRANCH 129 135
ENDBRANCH 127 129
BRANCH 127 163
ATOM    163  O   UNL     1      -9.305  18.656  24.935  0.00  0.00    -0.391 OA
ATOM    164  H   UNL     1      -9.643  18.617  24.026  0.00  0.00    +0.210 HD
ENDBRANCH 127 163
ENDBRANCH 121 127
ENDBRANCH   1 121
BRANCH  41 165
ATOM    165  O   UNL     1      -5.585  14.449  22.009  0.00  0.00    -0.391 OA
ATOM    166  H   UNL     1      -6.134  13.646  21.950  0.00  0.00    +0.210 HD
ENDBRANCH  41 165
BRANCH  39 167
ATOM    167  O   UNL     1      -8.068  13.277  22.265  0.00  0.00    -0.391 OA
ATOM    168  H   UNL     1      -8.576  14.088  22.049  0.00  0.00    +0.210 HD
ENDBRANCH  39 167
BRANCH  31 169
ATOM    169  O   UNL     1     -15.838  10.301  21.072  0.00  0.00    -0.391 OA
ATOM    170  H   UNL     1     -15.836  11.251  21.290  0.00  0.00    +0.210 HD
ENDBRANCH  31 169
BRANCH  22 171
ATOM    171  C   UNL     1      -7.587  11.164  18.339  0.00  0.00    +0.020 C 
ATOM    172  H   UNL     1      -7.708  11.731  17.414  0.00  0.00    +0.036 HD
BRANCH 171 173
ATOM    173  C   UNL     1      -8.568  11.843  19.314  0.00  0.00    -0.057 C 
ATOM    174  H   UNL     1      -9.556  11.369  19.271  0.00  0.00    +0.023 HD
ATOM    175  H   UNL     1      -8.214  11.764  20.349  0.00  0.00    +0.023 HD
ATOM    176  H   UNL     1      -8.678  12.910  19.097  0.00  0.00    +0.023 HD
ENDBRANCH 171 173
BRANCH 171 177
ATOM    177  C   UNL     1      -6.137  11.384  18.892  0.00  0.00    +0.064 C 
ATOM    178  H   UNL     1      -6.093  11.026  19.931  0.00  0.00    +0.060 HD
BRANCH 177 179
ATOM    179  O   UNL     1      -5.196  10.578  18.186  0.00  0.00    -0.391 OA
ATOM    180  H   UNL     1      -4.390  11.109  18.055  0.00  0.00    +0.210 HD
ENDBRANCH 177 179
BRANCH 177 181
ATOM    181  C   UNL     1      -5.662  12.879  18.881  0.00  0.00    -0.017 C 
ATOM    182  H   UNL     1      -6.143  13.393  19.725  0.00  0.00    +0.032 HD
BRANCH 181 183
ATOM    183  C   UNL     1      -4.136  12.980  19.040  0.00  0.00    -0.060 C 
ATOM    184  H   UNL     1      -3.797  13.970  18.718  0.00  0.00    +0.023 HD
ATOM    185  H   UNL     1      -3.597  12.228  18.458  0.00  0.00    +0.023 HD
ATOM    186  H   UNL     1      -3.826  12.819  20.075  0.00  0.00    +0.023 HD
ENDBRANCH 181 183
BRANCH 181 187
ATOM    187  C   UNL     1      -6.111  13.605  17.577  0.00  0.00    -0.046 C 
ATOM    188  H   UNL     1      -6.762  12.940  17.005  0.00  0.00    +0.027 HD
ATOM    189  H   UNL     1      -5.215  13.793  16.973  0.00  0.00    +0.027 HD
BRANCH 187 190
ATOM    190  C   UNL     1      -6.855  14.934  17.813  0.00  0.00    -0.026 C 
ATOM    191  H   UNL     1      -6.123  15.747  17.768  0.00  0.00    +0.029 HD
ATOM    192  H   UNL     1      -7.266  14.929  18.830  0.00  0.00    +0.029 HD
BRANCH 190 193
ATOM    193  C   UNL     1      -7.973  15.335  16.827  0.00  0.00    +0.061 C 
ATOM    194  O   UNL     1      -8.267  16.732  16.845  0.00  0.00    -0.373 OA
ATOM    195  C   UNL     1      -9.215  17.170  17.811  0.00  0.00    +0.059 C 
ATOM    196  C   UNL     1     -10.529  16.410  17.691  0.00  0.00    -0.000 C 
ATOM    197  C   UNL     1     -10.286  14.903  17.824  0.00  0.00    +0.063 C 
ATOM    198  C   UNL     1      -9.229  14.462  16.814  0.00  0.00    -0.000 C 
ATOM    199  H   UNL     1      -7.511  15.191  15.840  0.00  0.00    +0.060 HD
ATOM    200  H   UNL     1      -8.790  17.046  18.812  0.00  0.00    +0.059 HD
ATOM    201  H   UNL     1     -11.233  16.753  18.456  0.00  0.00    +0.032 HD
ATOM    202  H   UNL     1     -11.005  16.601  16.722  0.00  0.00    +0.032 HD
ATOM    203  H   UNL     1      -9.953  14.677  18.840  0.00  0.00    +0.060 HD
ATOM    204  H   UNL     1      -9.685  14.542  15.817  0.00  0.00    +0.032 HD
ATOM    205  H   UNL     1      -8.983  13.401  16.939  0.00  0.00    +0.032 HD
BRANCH 195 206
ATOM    206  C   UNL     1      -9.448  18.658  17.577  0.00  0.00    -0.039 C 
ATOM    207  H   UNL     1      -9.078  19.247  18.418  0.00  0.00    +0.025 HD
ATOM    208  H   UNL     1      -8.942  18.992  16.669  0.00  0.00    +0.025 HD
ATOM    209  H   UNL     1     -10.510  18.873  17.442  0.00  0.00    +0.025 HD
ENDBRANCH 195 206
BRANCH 197 210
ATOM    210  O   UNL     1     -11.460  14.123  17.568  0.00  0.00    -0.380 OA
BRANCH 210 211
ATOM    211  C   UNL     1     -12.675  14.850  17.672  0.00  0.00    +0.037 C 
ATOM    212  H   UNL     1     -13.371  14.526  16.898  0.00  0.00    +0.052 HD
ATOM    213  H   UNL     1     -13.127  14.625  18.641  0.00  0.00    +0.052 HD
ATOM    214  H   UNL     1     -12.502  15.926  17.606  0.00  0.00    +0.052 HD
ENDBRANCH 210 211
ENDBRANCH 197 210
ENDBRANCH 190 193
ENDBRANCH 187 190
ENDBRANCH 181 187
ENDBRANCH 177 181
ENDBRANCH 171 177
ENDBRANCH  22 171
BRANCH  20 215
ATOM    215  O   UNL     1     -11.145   9.828  17.451  0.00  0.00    -0.391 OA
ATOM    216  H   UNL     1     -11.360  10.493  18.126  0.00  0.00    +0.210 HD
ENDBRANCH  20 215
BRANCH  18 217
ATOM    217  O   UNL     1     -12.494  11.779  16.204  0.00  0.00    -0.391 OA
ATOM    218  H   UNL     1     -12.380  10.990  16.775  0.00  0.00    +0.210 HD
ENDBRANCH  18 217
BRANCH  10 219
ATOM    219  O   UNL     1     -14.819  20.259  15.903  0.00  0.00    -0.391 OA
ATOM    220  H   UNL     1     -14.544  20.175  14.973  0.00  0.00    +0.210 HD
ENDBRANCH  10 219
BRANCH  37 221
ATOM    221  O   UNL     1     -10.927  11.751  24.983  0.00  0.00    -0.379 OA
BRANCH 221 222
ATOM    222  C   UNL     1     -10.821  10.353  25.218  0.00  0.00    +0.037 C 
ATOM    223  H   UNL     1     -10.733   9.810  24.271  0.00  0.00    +0.052 HD
ATOM    224  H   UNL     1     -11.683   9.980  25.777  0.00  0.00    +0.052 HD
ATOM    225  H   UNL     1      -9.919  10.164  25.810  0.00  0.00    +0.052 HD
ENDBRANCH 221 222
ENDBRANCH  37 221
BRANCH  16 226
ATOM    226  O   UNL     1     -14.412  13.002  14.637  0.00  0.00    -0.379 OA
BRANCH 226 227
ATOM    227  C   UNL     1     -15.476  12.167  14.207  0.00  0.00    +0.037 C 
ATOM    228  H   UNL     1     -15.047  11.209  13.901  0.00  0.00    +0.052 HD
ATOM    229  H   UNL     1     -16.185  11.978  15.021  0.00  0.00    +0.052 HD
ATOM    230  H   UNL     1     -15.993  12.594  13.343  0.00  0.00    +0.052 HD
ENDBRANCH 226 227
ENDBRANCH  16 226
TORSDOF 40
ENDMDL
MODEL 6
REMARK VINA RESULT:      -5.3      5.404     11.293
REMARK  Name = Swinholide A_conf2
REMARK  40 active torsions:
REMARK  status: ('A' for Active; 'I' for Inactive)
REMARK    1  A    between atoms: C_1  and  C_2
REMARK    2  A    between atoms: C_4  and  C_10
REMARK    3  A    between atoms: C_6  and  O_8
REMARK    4  A    between atoms: O_8  and  C_9
REMARK    5  A    between atoms: C_10  and  C_11
REMARK    6  A    between atoms: C_11  and  C_12
REMARK    7  A    between atoms: C_12  and  C_13
REMARK    8  A    between atoms: C_12  and  C_98
REMARK    9  A    between atoms: C_13  and  O_14
REMARK   10  A    between atoms: C_13  and  C_15
REMARK   11  A    between atoms: C_15  and  C_16
REMARK   12  A    between atoms: C_15  and  C_97
REMARK   13  A    between atoms: C_22  and  C_96
REMARK   14  A    between atoms: C_25  and  O_95
REMARK   15  A    between atoms: C_31  and  O_90
REMARK   16  A    between atoms: C_32  and  C_89
REMARK   17  A    between atoms: C_33  and  O_88
REMARK   18  A    between atoms: C_35  and  O_87
REMARK   19  A    between atoms: C_36  and  C_86
REMARK   20  A    between atoms: C_37  and  C_69
REMARK   21  A    between atoms: C_43  and  C_68
REMARK   22  A    between atoms: C_46  and  O_67
REMARK   23  A    between atoms: C_52  and  O_62
REMARK   24  A    between atoms: C_53  and  C_61
REMARK   25  A    between atoms: C_54  and  O_60
REMARK   26  A    between atoms: C_56  and  O_59
REMARK   27  A    between atoms: C_57  and  C_58
REMARK   28  A    between atoms: O_62  and  C_63
REMARK   29  A    between atoms: C_69  and  C_70
REMARK   30  A    between atoms: C_69  and  C_85
REMARK   31  A    between atoms: C_70  and  O_71
REMARK   32  A    between atoms: C_70  and  C_72
REMARK   33  A    between atoms: C_72  and  C_73
REMARK   34  A    between atoms: C_72  and  C_84
REMARK   35  A    between atoms: C_73  and  C_74
REMARK   36  A    between atoms: C_74  and  C_75
REMARK   37  A    between atoms: C_77  and  C_83
REMARK   38  A    between atoms: C_79  and  O_81
REMARK   39  A    between atoms: O_81  and  C_82
REMARK   40  A    between atoms: O_90  and  C_91
REMARK                            x       y       z     vdW  Elec       q    Type
REMARK                         _______ _______ _______ _____ _____    ______ ____
ROOT
ATOM      1  C   UNL     1     -10.469  13.907  25.750  0.00  0.00    +0.113 C 
ATOM      2  O   UNL     1      -9.590  13.644  24.625  0.00  0.00    -0.458 OA
ATOM      3  C   UNL     1      -8.335  14.147  24.720  0.00  0.00    +0.332 C 
ATOM      4  O   UNL     1      -7.859  14.761  25.658  0.00  0.00    -0.246 OA
ATOM      5  C   UNL     1      -7.619  13.867  23.456  0.00  0.00    +0.023 C 
ATOM      6  C   UNL     1      -6.321  14.191  23.354  0.00  0.00    -0.052 C 
ATOM      7  C   UNL     1      -5.491  14.064  22.161  0.00  0.00    -0.054 C 
ATOM      8  C   UNL     1      -5.677  13.088  21.250  0.00  0.00    -0.079 C 
ATOM      9  C   UNL     1      -4.831  12.836  20.027  0.00  0.00    -0.008 C 
ATOM     10  C   UNL     1      -5.568  13.057  18.690  0.00  0.00    +0.061 C 
ATOM     11  C   UNL     1      -5.845  14.542  18.411  0.00  0.00    +0.003 C 
ATOM     12  C   UNL     1      -6.373  14.838  16.991  0.00  0.00    +0.080 C 
ATOM     13  O   UNL     1      -7.171  16.044  16.989  0.00  0.00    -0.369 OA
ATOM     14  C   UNL     1      -6.396  17.258  16.989  0.00  0.00    +0.065 C 
ATOM     15  C   UNL     1      -7.395  18.421  17.132  0.00  0.00    +0.000 C 
ATOM     16  C   UNL     1      -6.772  19.831  17.033  0.00  0.00    +0.066 C 
ATOM     17  C   UNL     1      -7.756  20.977  17.450  0.00  0.00    +0.009 C 
ATOM     18  C   UNL     1      -8.331  20.826  18.880  0.00  0.00    +0.063 C 
ATOM     19  C   UNL     1      -9.236  22.009  19.310  0.00  0.00    -0.000 C 
ATOM     20  C   UNL     1      -9.612  21.867  20.793  0.00  0.00    +0.064 C 
ATOM     21  C   UNL     1     -10.907  22.619  21.198  0.00  0.00    +0.020 C 
ATOM     22  C   UNL     1     -11.474  22.140  22.572  0.00  0.00    +0.113 C 
ATOM     23  O   UNL     1     -10.424  22.452  23.530  0.00  0.00    -0.458 OA
ATOM     24  C   UNL     1     -10.732  23.005  24.722  0.00  0.00    +0.332 C 
ATOM     25  O   UNL     1     -11.859  23.152  25.195  0.00  0.00    -0.246 OA
ATOM     26  C   UNL     1      -9.510  23.431  25.440  0.00  0.00    +0.023 C 
ATOM     27  C   UNL     1      -8.260  23.160  25.010  0.00  0.00    -0.052 C 
ATOM     28  C   UNL     1      -6.998  23.518  25.652  0.00  0.00    -0.054 C 
ATOM     29  C   UNL     1      -5.855  23.055  25.103  0.00  0.00    -0.079 C 
ATOM     30  C   UNL     1      -4.449  23.208  25.608  0.00  0.00    -0.008 C 
ATOM     31  C   UNL     1      -3.605  21.918  25.644  0.00  0.00    +0.061 C 
ATOM     32  C   UNL     1      -4.086  20.799  26.591  0.00  0.00    +0.003 C 
ATOM     33  C   UNL     1      -5.114  19.750  26.121  0.00  0.00    +0.080 C 
ATOM     34  O   UNL     1      -6.410  20.344  25.999  0.00  0.00    -0.369 OA
ATOM     35  C   UNL     1      -7.414  19.504  25.421  0.00  0.00    +0.065 C 
ATOM     36  C   UNL     1      -7.799  18.305  26.305  0.00  0.00    +0.000 C 
ATOM     37  C   UNL     1      -8.541  18.752  27.588  0.00  0.00    +0.066 C 
ATOM     38  C   UNL     1      -9.454  17.616  28.131  0.00  0.00    +0.009 C 
ATOM     39  C   UNL     1     -10.835  17.560  27.412  0.00  0.00    +0.063 C 
ATOM     40  C   UNL     1     -11.554  16.203  27.633  0.00  0.00    -0.000 C 
ATOM     41  C   UNL     1     -12.327  15.608  26.448  0.00  0.00    +0.064 C 
ATOM     42  C   UNL     1     -11.465  15.021  25.302  0.00  0.00    +0.020 C 
ATOM     43  C   UNL     1      -7.008  19.101  23.992  0.00  0.00    -0.008 C 
ATOM     44  C   UNL     1      -5.563  18.717  23.886  0.00  0.00    -0.083 C 
ATOM     45  C   UNL     1      -4.710  19.010  24.872  0.00  0.00    -0.059 C 
ATOM     46  C   UNL     1      -5.565  17.360  15.702  0.00  0.00    -0.008 C 
ATOM     47  C   UNL     1      -4.888  16.064  15.375  0.00  0.00    -0.083 C 
ATOM     48  C   UNL     1      -5.277  14.922  15.954  0.00  0.00    -0.059 C 
ATOM     49  H   UNL     1      -9.890  14.345  26.561  0.00  0.00    +0.074 HD
ATOM     50  H   UNL     1      -8.191  13.438  22.646  0.00  0.00    +0.069 HD
ATOM     51  H   UNL     1      -5.823  14.642  24.212  0.00  0.00    +0.062 HD
ATOM     52  H   UNL     1      -6.471  12.358  21.401  0.00  0.00    +0.058 HD
ATOM     53  H   UNL     1      -4.491  11.793  20.080  0.00  0.00    +0.033 HD
ATOM     54  H   UNL     1      -3.906  13.420  20.030  0.00  0.00    +0.033 HD
ATOM     55  H   UNL     1      -6.514  12.511  18.699  0.00  0.00    +0.060 HD
ATOM     56  H   UNL     1      -6.566  14.916  19.148  0.00  0.00    +0.032 HD
ATOM     57  H   UNL     1      -4.929  15.123  18.572  0.00  0.00    +0.032 HD
ATOM     58  H   UNL     1      -7.066  14.045  16.693  0.00  0.00    +0.064 HD
ATOM     59  H   UNL     1      -5.741  17.253  17.869  0.00  0.00    +0.060 HD
ATOM     60  H   UNL     1      -8.190  18.321  16.383  0.00  0.00    +0.032 HD
ATOM     61  H   UNL     1      -7.885  18.285  18.103  0.00  0.00    +0.032 HD
ATOM     62  H   UNL     1      -6.496  19.996  15.981  0.00  0.00    +0.060 HD
ATOM     63  H   UNL     1      -7.181  21.909  17.439  0.00  0.00    +0.035 HD
ATOM     64  H   UNL     1      -8.952  19.924  18.933  0.00  0.00    +0.060 HD
ATOM     65  H   UNL     1     -10.144  22.017  18.692  0.00  0.00    +0.032 HD
ATOM     66  H   UNL     1      -8.705  22.952  19.151  0.00  0.00    +0.032 HD
ATOM     67  H   UNL     1      -9.745  20.803  20.986  0.00  0.00    +0.060 HD
ATOM     68  H   UNL     1     -11.650  22.413  20.420  0.00  0.00    +0.036 HD
ATOM     69  H   UNL     1     -12.372  22.727  22.807  0.00  0.00    +0.074 HD
ATOM     70  H   UNL     1      -9.702  23.960  26.366  0.00  0.00    +0.069 HD
ATOM     71  H   UNL     1      -8.151  22.574  24.098  0.00  0.00    +0.062 HD
ATOM     72  H   UNL     1      -5.927  22.450  24.196  0.00  0.00    +0.058 HD
ATOM     73  H   UNL     1      -3.951  23.924  24.940  0.00  0.00    +0.033 HD
ATOM     74  H   UNL     1      -4.429  23.645  26.608  0.00  0.00    +0.033 HD
ATOM     75  H   UNL     1      -2.640  22.240  26.053  0.00  0.00    +0.060 HD
ATOM     76  H   UNL     1      -4.467  21.269  27.508  0.00  0.00    +0.032 HD
ATOM     77  H   UNL     1      -3.194  20.237  26.884  0.00  0.00    +0.032 HD
ATOM     78  H   UNL     1      -5.171  19.018  26.933  0.00  0.00    +0.064 HD
ATOM     79  H   UNL     1      -8.309  20.131  25.315  0.00  0.00    +0.060 HD
ATOM     80  H   UNL     1      -6.915  17.719  26.577  0.00  0.00    +0.032 HD
ATOM     81  H   UNL     1      -8.430  17.638  25.706  0.00  0.00    +0.032 HD
ATOM     82  H   UNL     1      -9.160  19.636  27.388  0.00  0.00    +0.060 HD
ATOM     83  H   UNL     1      -8.926  16.670  27.958  0.00  0.00    +0.035 HD
ATOM     84  H   UNL     1     -11.470  18.350  27.836  0.00  0.00    +0.060 HD
ATOM     85  H   UNL     1     -12.273  16.365  28.452  0.00  0.00    +0.032 HD
ATOM     86  H   UNL     1     -10.858  15.464  28.034  0.00  0.00    +0.032 HD
ATOM     87  H   UNL     1     -12.985  14.815  26.816  0.00  0.00    +0.060 HD
ATOM     88  H   UNL     1     -10.840  15.827  24.893  0.00  0.00    +0.036 HD
ATOM     89  H   UNL     1      -7.638  18.282  23.627  0.00  0.00    +0.033 HD
ATOM     90  H   UNL     1      -7.155  19.956  23.320  0.00  0.00    +0.033 HD
ATOM     91  H   UNL     1      -5.221  18.236  22.976  0.00  0.00    +0.057 HD
ATOM     92  H   UNL     1      -3.662  18.726  24.778  0.00  0.00    +0.059 HD
ATOM     93  H   UNL     1      -6.198  17.638  14.853  0.00  0.00    +0.033 HD
ATOM     94  H   UNL     1      -4.804  18.142  15.813  0.00  0.00    +0.033 HD
ATOM     95  H   UNL     1      -4.095  16.068  14.640  0.00  0.00    +0.057 HD
ATOM     96  H   UNL     1      -4.772  13.995  15.693  0.00  0.00    +0.059 HD
ENDROOT
BRANCH  28  97
ATOM     97  C   UNL     1      -7.059  24.365  26.898  0.00  0.00    -0.040 C 
ATOM     98  H   UNL     1      -7.645  23.861  27.672  0.00  0.00    +0.028 HD
ATOM     99  H   UNL     1      -7.543  25.334  26.746  0.00  0.00    +0.028 HD
ATOM    100  H   UNL     1      -6.053  24.561  27.286  0.00  0.00    +0.028 HD
ENDBRANCH  28  97
BRANCH  21 101
ATOM    101  C   UNL     1     -10.721  24.142  21.214  0.00  0.00    -0.057 C 
ATOM    102  H   UNL     1      -9.843  24.427  21.799  0.00  0.00    +0.023 HD
ATOM    103  H   UNL     1     -10.577  24.516  20.198  0.00  0.00    +0.023 HD
ATOM    104  H   UNL     1     -11.585  24.665  21.634  0.00  0.00    +0.023 HD
ENDBRANCH  21 101
BRANCH  42 105
ATOM    105  C   UNL     1     -12.354  14.629  24.110  0.00  0.00    -0.057 C 
ATOM    106  H   UNL     1     -12.798  15.505  23.635  0.00  0.00    +0.023 HD
ATOM    107  H   UNL     1     -13.143  13.930  24.399  0.00  0.00    +0.023 HD
ATOM    108  H   UNL     1     -11.751  14.136  23.342  0.00  0.00    +0.023 HD
ENDBRANCH  42 105
BRANCH  17 109
ATOM    109  C   UNL     1      -8.873  21.131  16.411  0.00  0.00    -0.058 C 
ATOM    110  H   UNL     1      -9.509  21.987  16.634  0.00  0.00    +0.023 HD
ATOM    111  H   UNL     1      -9.519  20.248  16.411  0.00  0.00    +0.023 HD
ATOM    112  H   UNL     1      -8.474  21.252  15.404  0.00  0.00    +0.023 HD
ENDBRANCH  17 109
BRANCH  38 113
ATOM    113  C   UNL     1      -9.696  17.711  29.648  0.00  0.00    -0.058 C 
ATOM    114  H   UNL     1     -10.232  16.838  30.039  0.00  0.00    +0.023 HD
ATOM    115  H   UNL     1      -8.740  17.791  30.191  0.00  0.00    +0.023 HD
ATOM    116  H   UNL     1     -10.294  18.590  29.902  0.00  0.00    +0.023 HD
ENDBRANCH  38 113
BRANCH   7 117
ATOM    117  C   UNL     1      -4.390  15.088  22.059  0.00  0.00    -0.040 C 
ATOM    118  H   UNL     1      -4.786  16.032  21.676  0.00  0.00    +0.028 HD
ATOM    119  H   UNL     1      -3.598  14.755  21.383  0.00  0.00    +0.028 HD
ATOM    120  H   UNL     1      -3.913  15.276  23.027  0.00  0.00    +0.028 HD
ENDBRANCH   7 117
BRANCH   1 121
ATOM    121  C   UNL     1     -11.052  12.573  26.303  0.00  0.00    +0.020 C 
ATOM    122  H   UNL     1     -12.105  12.730  26.559  0.00  0.00    +0.036 HD
BRANCH 121 123
ATOM    123  C   UNL     1     -11.025  11.415  25.288  0.00  0.00    -0.057 C 
ATOM    124  H   UNL     1     -11.083  10.435  25.770  0.00  0.00    +0.023 HD
ATOM    125  H   UNL     1     -11.854  11.493  24.579  0.00  0.00    +0.023 HD
ATOM    126  H   UNL     1     -10.123  11.451  24.675  0.00  0.00    +0.023 HD
ENDBRANCH 121 123
BRANCH 121 127
ATOM    127  C   UNL     1     -10.322  12.089  27.601  0.00  0.00    +0.064 C 
ATOM    128  H   UNL     1     -10.082  11.024  27.487  0.00  0.00    +0.060 HD
BRANCH 127 129
ATOM    129  C   UNL     1     -11.128  12.236  28.925  0.00  0.00    -0.017 C 
ATOM    130  H   UNL     1     -10.695  13.040  29.527  0.00  0.00    +0.032 HD
BRANCH 129 131
ATOM    131  C   UNL     1     -12.597  12.575  28.652  0.00  0.00    -0.060 C 
ATOM    132  H   UNL     1     -12.709  13.443  27.997  0.00  0.00    +0.023 HD
ATOM    133  H   UNL     1     -13.118  11.731  28.185  0.00  0.00    +0.023 HD
ATOM    134  H   UNL     1     -13.118  12.818  29.585  0.00  0.00    +0.023 HD
ENDBRANCH 129 131
BRANCH 129 135
ATOM    135  C   UNL     1     -11.095  10.960  29.806  0.00  0.00    -0.046 C 
ATOM    136  H   UNL     1     -10.938  11.276  30.844  0.00  0.00    +0.027 HD
ATOM    137  H   UNL     1     -12.067  10.454  29.782  0.00  0.00    +0.027 HD
BRANCH 135 138
ATOM    138  C   UNL     1      -9.995   9.958  29.430  0.00  0.00    -0.026 C 
ATOM    139  H   UNL     1      -9.323  10.405  28.692  0.00  0.00    +0.029 HD
ATOM    140  H   UNL     1      -9.392   9.741  30.320  0.00  0.00    +0.029 HD
BRANCH 138 143
ATOM    141  C   UNL     1      -8.975   7.099  29.776  0.00  0.00    +0.059 C 
ATOM    142  O   UNL     1     -10.338   7.527  29.680  0.00  0.00    -0.373 OA
ATOM    143  C   UNL     1     -10.560   8.659  28.832  0.00  0.00    +0.061 C 
ATOM    144  C   UNL     1     -10.031   8.375  27.424  0.00  0.00    -0.000 C 
ATOM    145  C   UNL     1      -8.571   7.930  27.446  0.00  0.00    +0.063 C 
ATOM    146  C   UNL     1      -8.416   6.750  28.402  0.00  0.00    -0.000 C 
ATOM    147  H   UNL     1      -8.382   7.893  30.241  0.00  0.00    +0.059 HD
ATOM    148  H   UNL     1     -11.650   8.774  28.765  0.00  0.00    +0.060 HD
ATOM    149  H   UNL     1     -10.635   7.573  26.974  0.00  0.00    +0.032 HD
ATOM    150  H   UNL     1     -10.159   9.247  26.774  0.00  0.00    +0.032 HD
ATOM    151  H   UNL     1      -7.942   8.767  27.773  0.00  0.00    +0.060 HD
ATOM    152  H   UNL     1      -7.364   6.449  28.485  0.00  0.00    +0.032 HD
ATOM    153  H   UNL     1      -8.950   5.885  27.982  0.00  0.00    +0.032 HD
BRANCH 141 154
ATOM    154  C   UNL     1      -8.945   5.892  30.702  0.00  0.00    -0.039 C 
ATOM    155  H   UNL     1      -9.833   5.855  31.341  0.00  0.00    +0.025 HD
ATOM    156  H   UNL     1      -8.894   4.964  30.121  0.00  0.00    +0.025 HD
ATOM    157  H   UNL     1      -8.053   5.911  31.338  0.00  0.00    +0.025 HD
ENDBRANCH 141 154
BRANCH 145 158
ATOM    158  O   UNL     1      -8.209   7.586  26.105  0.00  0.00    -0.380 OA
BRANCH 158 159
ATOM    159  C   UNL     1      -9.320   7.211  25.300  0.00  0.00    +0.037 C 
ATOM    160  H   UNL     1      -9.726   8.116  24.841  0.00  0.00    +0.052 HD
ATOM    161  H   UNL     1     -10.103   6.759  25.911  0.00  0.00    +0.052 HD
ATOM    162  H   UNL     1      -9.022   6.526  24.500  0.00  0.00    +0.052 HD
ENDBRANCH 158 159
ENDBRANCH 145 158
ENDBRANCH 138 143
ENDBRANCH 135 138
ENDBRANCH 129 135
ENDBRANCH 127 129
BRANCH 127 163
ATOM    163  O   UNL     1      -9.077  12.773  27.728  0.00  0.00    -0.391 OA
ATOM    164  H   UNL     1      -8.846  13.146  26.861  0.00  0.00    +0.210 HD
ENDBRANCH 127 163
ENDBRANCH 121 127
ENDBRANCH   1 121
BRANCH  41 165
ATOM    165  O   UNL     1     -13.175  16.640  25.919  0.00  0.00    -0.391 OA
ATOM    166  H   UNL     1     -12.630  17.183  25.322  0.00  0.00    +0.210 HD
ENDBRANCH  41 165
BRANCH  39 167
ATOM    167  O   UNL     1     -10.715  17.880  26.039  0.00  0.00    -0.391 OA
ATOM    168  H   UNL     1     -10.969  17.079  25.532  0.00  0.00    +0.210 HD
ENDBRANCH  39 167
BRANCH  31 169
ATOM    169  O   UNL     1      -3.285  21.427  24.346  0.00  0.00    -0.391 OA
ATOM    170  H   UNL     1      -3.018  22.179  23.787  0.00  0.00    +0.210 HD
ENDBRANCH  31 169
BRANCH  22 171
ATOM    171  C   UNL     1     -11.818  20.618  22.663  0.00  0.00    +0.020 C 
ATOM    172  H   UNL     1     -11.804  20.226  21.644  0.00  0.00    +0.036 HD
BRANCH 171 173
ATOM    173  C   UNL     1     -10.695  19.834  23.370  0.00  0.00    -0.057 C 
ATOM    174  H   UNL     1     -11.107  19.027  23.986  0.00  0.00    +0.023 HD
ATOM    175  H   UNL     1     -10.017  19.372  22.641  0.00  0.00    +0.023 HD
ATOM    176  H   UNL     1     -10.084  20.486  24.001  0.00  0.00    +0.023 HD
ENDBRANCH 171 173
BRANCH 171 177
ATOM    177  C   UNL     1     -13.174  20.228  23.348  0.00  0.00    +0.064 C 
ATOM    178  H   UNL     1     -12.960  19.743  24.311  0.00  0.00    +0.060 HD
BRANCH 177 179
ATOM    179  O   UNL     1     -13.928  21.392  23.681  0.00  0.00    -0.391 OA
ATOM    180  H   UNL     1     -13.373  21.950  24.255  0.00  0.00    +0.210 HD
ENDBRANCH 177 179
BRANCH 177 181
ATOM    181  C   UNL     1     -14.063  19.248  22.505  0.00  0.00    -0.017 C 
ATOM    182  H   UNL     1     -14.242  18.349  23.110  0.00  0.00    +0.032 HD
BRANCH 181 183
ATOM    183  C   UNL     1     -15.416  19.889  22.153  0.00  0.00    -0.060 C 
ATOM    184  H   UNL     1     -15.322  20.980  22.169  0.00  0.00    +0.023 HD
ATOM    185  H   UNL     1     -16.214  19.606  22.845  0.00  0.00    +0.023 HD
ATOM    186  H   UNL     1     -15.766  19.580  21.167  0.00  0.00    +0.023 HD
ENDBRANCH 181 183
BRANCH 181 187
ATOM    187  C   UNL     1     -13.333  18.798  21.205  0.00  0.00    -0.046 C 
ATOM    188  H   UNL     1     -12.549  19.522  20.967  0.00  0.00    +0.027 HD
ATOM    189  H   UNL     1     -14.063  18.818  20.386  0.00  0.00    +0.027 HD
BRANCH 187 190
ATOM    190  C   UNL     1     -12.695  17.397  21.286  0.00  0.00    -0.026 C 
ATOM    191  H   UNL     1     -13.493  16.654  21.195  0.00  0.00    +0.029 HD
ATOM    192  H   UNL     1     -12.252  17.272  22.282  0.00  0.00    +0.029 HD
BRANCH 190 193
ATOM    193  C   UNL     1     -11.647  17.004  20.223  0.00  0.00    +0.061 C 
ATOM    194  O   UNL     1     -11.396  15.600  20.171  0.00  0.00    -0.373 OA
ATOM    195  C   UNL     1     -10.409  15.096  21.063  0.00  0.00    +0.059 C 
ATOM    196  C   UNL     1      -9.081  15.822  20.897  0.00  0.00    -0.000 C 
ATOM    197  C   UNL     1      -9.270  17.329  21.102  0.00  0.00    +0.063 C 
ATOM    198  C   UNL     1     -10.367  17.840  20.172  0.00  0.00    -0.000 C 
ATOM    199  H   UNL     1     -12.159  17.201  19.271  0.00  0.00    +0.060 HD
ATOM    200  H   UNL     1     -10.774  15.192  22.090  0.00  0.00    +0.059 HD
ATOM    201  H   UNL     1      -8.346  15.429  21.607  0.00  0.00    +0.032 HD
ATOM    202  H   UNL     1      -8.666  15.657  19.896  0.00  0.00    +0.032 HD
ATOM    203  H   UNL     1      -9.538  17.524  22.143  0.00  0.00    +0.060 HD
ATOM    204  H   UNL     1      -9.971  17.788  19.147  0.00  0.00    +0.032 HD
ATOM    205  H   UNL     1     -10.573  18.902  20.351  0.00  0.00    +0.032 HD
BRANCH 195 206
ATOM    206  C   UNL     1     -10.237  13.613  20.759  0.00  0.00    -0.039 C 
ATOM    207  H   UNL     1      -9.885  13.073  21.639  0.00  0.00    +0.025 HD
ATOM    208  H   UNL     1     -11.180  13.171  20.433  0.00  0.00    +0.025 HD
ATOM    209  H   UNL     1      -9.520  13.458  19.949  0.00  0.00    +0.025 HD
ENDBRANCH 195 206
BRANCH 197 210
ATOM    210  O   UNL     1      -8.088  18.084  20.809  0.00  0.00    -0.380 OA
BRANCH 210 211
ATOM    211  C   UNL     1      -6.913  17.298  20.678  0.00  0.00    +0.037 C 
ATOM    212  H   UNL     1      -6.279  17.425  21.556  0.00  0.00    +0.052 HD
ATOM    213  H   UNL     1      -7.209  16.247  20.631  0.00  0.00    +0.052 HD
ATOM    214  H   UNL     1      -6.365  17.550  19.769  0.00  0.00    +0.052 HD
ENDBRANCH 210 211
ENDBRANCH 197 210
ENDBRANCH 190 193
ENDBRANCH 187 190
ENDBRANCH 181 187
ENDBRANCH 177 181
ENDBRANCH 171 177
ENDBRANCH  22 171
BRANCH  20 215
ATOM    215  O   UNL     1      -8.464  22.276  21.550  0.00  0.00    -0.391 OA
ATOM    216  H   UNL     1      -7.753  21.626  21.417  0.00  0.00    +0.210 HD
ENDBRANCH  20 215
BRANCH  18 217
ATOM    217  O   UNL     1      -7.257  20.647  19.797  0.00  0.00    -0.391 OA
ATOM    218  H   UNL     1      -6.448  21.087  19.459  0.00  0.00    +0.210 HD
ENDBRANCH  18 217
BRANCH  10 219
ATOM    219  O   UNL     1      -4.766  12.486  17.654  0.00  0.00    -0.391 OA
ATOM    220  H   UNL     1      -4.603  11.554  17.883  0.00  0.00    +0.210 HD
ENDBRANCH  10 219
BRANCH  37 221
ATOM    221  O   UNL     1      -7.536  19.057  28.568  0.00  0.00    -0.379 OA
BRANCH 221 222
ATOM    222  C   UNL     1      -7.638  20.388  29.055  0.00  0.00    +0.037 C 
ATOM    223  H   UNL     1      -7.530  21.106  28.235  0.00  0.00    +0.052 HD
ATOM    224  H   UNL     1      -6.883  20.588  29.821  0.00  0.00    +0.052 HD
ATOM    225  H   UNL     1      -8.628  20.522  29.505  0.00  0.00    +0.052 HD
ENDBRANCH 221 222
ENDBRANCH  37 221
BRANCH  16 226
ATOM    226  O   UNL     1      -5.553  19.821  17.787  0.00  0.00    -0.379 OA
BRANCH 226 227
ATOM    227  C   UNL     1      -4.611  20.815  17.414  0.00  0.00    +0.037 C 
ATOM    228  H   UNL     1      -4.991  21.781  17.756  0.00  0.00    +0.052 HD
ATOM    229  H   UNL     1      -3.642  20.641  17.894  0.00  0.00    +0.052 HD
ATOM    230  H   UNL     1      -4.496  20.866  16.328  0.00  0.00    +0.052 HD
ENDBRANCH 226 227
ENDBRANCH  16 226
TORSDOF 40
ENDMDL
MODEL 7
REMARK VINA RESULT:      -5.3      3.376      9.658
REMARK  Name = Swinholide A_conf2
REMARK  40 active torsions:
REMARK  status: ('A' for Active; 'I' for Inactive)
REMARK    1  A    between atoms: C_1  and  C_2
REMARK    2  A    between atoms: C_4  and  C_10
REMARK    3  A    between atoms: C_6  and  O_8
REMARK    4  A    between atoms: O_8  and  C_9
REMARK    5  A    between atoms: C_10  and  C_11
REMARK    6  A    between atoms: C_11  and  C_12
REMARK    7  A    between atoms: C_12  and  C_13
REMARK    8  A    between atoms: C_12  and  C_98
REMARK    9  A    between atoms: C_13  and  O_14
REMARK   10  A    between atoms: C_13  and  C_15
REMARK   11  A    between atoms: C_15  and  C_16
REMARK   12  A    between atoms: C_15  and  C_97
REMARK   13  A    between atoms: C_22  and  C_96
REMARK   14  A    between atoms: C_25  and  O_95
REMARK   15  A    between atoms: C_31  and  O_90
REMARK   16  A    between atoms: C_32  and  C_89
REMARK   17  A    between atoms: C_33  and  O_88
REMARK   18  A    between atoms: C_35  and  O_87
REMARK   19  A    between atoms: C_36  and  C_86
REMARK   20  A    between atoms: C_37  and  C_69
REMARK   21  A    between atoms: C_43  and  C_68
REMARK   22  A    between atoms: C_46  and  O_67
REMARK   23  A    between atoms: C_52  and  O_62
REMARK   24  A    between atoms: C_53  and  C_61
REMARK   25  A    between atoms: C_54  and  O_60
REMARK   26  A    between atoms: C_56  and  O_59
REMARK   27  A    between atoms: C_57  and  C_58
REMARK   28  A    between atoms: O_62  and  C_63
REMARK   29  A    between atoms: C_69  and  C_70
REMARK   30  A    between atoms: C_69  and  C_85
REMARK   31  A    between atoms: C_70  and  O_71
REMARK   32  A    between atoms: C_70  and  C_72
REMARK   33  A    between atoms: C_72  and  C_73
REMARK   34  A    between atoms: C_72  and  C_84
REMARK   35  A    between atoms: C_73  and  C_74
REMARK   36  A    between atoms: C_74  and  C_75
REMARK   37  A    between atoms: C_77  and  C_83
REMARK   38  A    between atoms: C_79  and  O_81
REMARK   39  A    between atoms: O_81  and  C_82
REMARK   40  A    between atoms: O_90  and  C_91
REMARK                            x       y       z     vdW  Elec       q    Type
REMARK                         _______ _______ _______ _____ _____    ______ ____
ROOT
ATOM      1  C   UNL     1      -9.050   7.724  18.241  0.00  0.00    +0.113 C 
ATOM      2  O   UNL     1      -9.440   7.669  19.638  0.00  0.00    -0.458 OA
ATOM      3  C   UNL     1     -10.649   8.200  19.940  0.00  0.00    +0.332 C 
ATOM      4  O   UNL     1     -11.454   8.684  19.163  0.00  0.00    -0.246 OA
ATOM      5  C   UNL     1     -10.837   8.142  21.406  0.00  0.00    +0.023 C 
ATOM      6  C   UNL     1     -12.010   8.528  21.932  0.00  0.00    -0.052 C 
ATOM      7  C   UNL     1     -12.332   8.616  23.352  0.00  0.00    -0.054 C 
ATOM      8  C   UNL     1     -11.799   7.782  24.267  0.00  0.00    -0.079 C 
ATOM      9  C   UNL     1     -12.123   7.751  25.740  0.00  0.00    -0.008 C 
ATOM     10  C   UNL     1     -10.945   8.142  26.656  0.00  0.00    +0.061 C 
ATOM     11  C   UNL     1     -10.614   9.641  26.579  0.00  0.00    +0.003 C 
ATOM     12  C   UNL     1      -9.600  10.126  27.637  0.00  0.00    +0.080 C 
ATOM     13  O   UNL     1      -8.884  11.287  27.156  0.00  0.00    -0.369 OA
ATOM     14  C   UNL     1      -9.627  12.517  27.256  0.00  0.00    +0.065 C 
ATOM     15  C   UNL     1      -8.777  13.605  26.574  0.00  0.00    +0.000 C 
ATOM     16  C   UNL     1      -9.348  15.037  26.678  0.00  0.00    +0.066 C 
ATOM     17  C   UNL     1      -8.613  16.067  25.754  0.00  0.00    +0.009 C 
ATOM     18  C   UNL     1      -8.610  15.680  24.254  0.00  0.00    +0.063 C 
ATOM     19  C   UNL     1      -7.955  16.747  23.341  0.00  0.00    -0.000 C 
ATOM     20  C   UNL     1      -8.158  16.369  21.866  0.00  0.00    +0.064 C 
ATOM     21  C   UNL     1      -7.122  16.999  20.898  0.00  0.00    +0.020 C 
ATOM     22  C   UNL     1      -7.100  16.298  19.503  0.00  0.00    +0.113 C 
ATOM     23  O   UNL     1      -8.437  16.502  18.968  0.00  0.00    -0.458 OA
ATOM     24  C   UNL     1      -8.608  16.856  17.677  0.00  0.00    +0.332 C 
ATOM     25  O   UNL     1      -7.742  16.886  16.802  0.00  0.00    -0.246 OA
ATOM     26  C   UNL     1     -10.017  17.216  17.408  0.00  0.00    +0.023 C 
ATOM     27  C   UNL     1     -11.011  17.062  18.308  0.00  0.00    -0.052 C 
ATOM     28  C   UNL     1     -12.429  17.368  18.134  0.00  0.00    -0.054 C 
ATOM     29  C   UNL     1     -13.274  17.039  19.133  0.00  0.00    -0.079 C 
ATOM     30  C   UNL     1     -14.770  17.168  19.170  0.00  0.00    -0.008 C 
ATOM     31  C   UNL     1     -15.541  15.921  19.650  0.00  0.00    +0.061 C 
ATOM     32  C   UNL     1     -15.424  14.655  18.776  0.00  0.00    +0.003 C 
ATOM     33  C   UNL     1     -14.275  13.649  18.988  0.00  0.00    +0.080 C 
ATOM     34  O   UNL     1     -13.039  14.203  18.526  0.00  0.00    -0.369 OA
ATOM     35  C   UNL     1     -11.875  13.422  18.812  0.00  0.00    +0.065 C 
ATOM     36  C   UNL     1     -11.823  12.089  18.045  0.00  0.00    +0.000 C 
ATOM     37  C   UNL     1     -11.623  12.308  16.526  0.00  0.00    +0.066 C 
ATOM     38  C   UNL     1     -10.955  11.068  15.865  0.00  0.00    +0.009 C 
ATOM     39  C   UNL     1      -9.405  11.067  16.018  0.00  0.00    +0.063 C 
ATOM     40  C   UNL     1      -8.793   9.665  15.759  0.00  0.00    -0.000 C 
ATOM     41  C   UNL     1      -7.622   9.227  16.648  0.00  0.00    +0.064 C 
ATOM     42  C   UNL     1      -7.982   8.854  18.108  0.00  0.00    +0.020 C 
ATOM     43  C   UNL     1     -11.710  13.255  20.333  0.00  0.00    -0.008 C 
ATOM     44  C   UNL     1     -13.003  12.948  21.026  0.00  0.00    -0.083 C 
ATOM     45  C   UNL     1     -14.168  13.122  20.395  0.00  0.00    -0.059 C 
ATOM     46  C   UNL     1      -9.920  12.844  28.727  0.00  0.00    -0.008 C 
ATOM     47  C   UNL     1     -10.399  11.639  29.478  0.00  0.00    -0.083 C 
ATOM     48  C   UNL     1     -10.232  10.409  28.980  0.00  0.00    -0.059 C 
ATOM     49  H   UNL     1      -9.898   8.057  17.646  0.00  0.00    +0.074 HD
ATOM     50  H   UNL     1      -9.996   7.819  22.001  0.00  0.00    +0.069 HD
ATOM     51  H   UNL     1     -12.800   8.864  21.261  0.00  0.00    +0.062 HD
ATOM     52  H   UNL     1     -11.104   7.007  23.947  0.00  0.00    +0.058 HD
ATOM     53  H   UNL     1     -12.436   6.726  25.980  0.00  0.00    +0.033 HD
ATOM     54  H   UNL     1     -12.993   8.364  25.991  0.00  0.00    +0.033 HD
ATOM     55  H   UNL     1     -10.059   7.564  26.381  0.00  0.00    +0.060 HD
ATOM     56  H   UNL     1     -10.228   9.870  25.579  0.00  0.00    +0.032 HD
ATOM     57  H   UNL     1     -11.535  10.225  26.682  0.00  0.00    +0.032 HD
ATOM     58  H   UNL     1      -8.830   9.361  27.775  0.00  0.00    +0.064 HD
ATOM     59  H   UNL     1     -10.563  12.404  26.695  0.00  0.00    +0.060 HD
ATOM     60  H   UNL     1      -7.759  13.588  26.979  0.00  0.00    +0.032 HD
ATOM     61  H   UNL     1      -8.682  13.304  25.524  0.00  0.00    +0.032 HD
ATOM     62  H   UNL     1      -9.214  15.369  27.719  0.00  0.00    +0.060 HD
ATOM     63  H   UNL     1      -9.161  17.012  25.834  0.00  0.00    +0.035 HD
ATOM     64  H   UNL     1      -8.036  14.756  24.114  0.00  0.00    +0.060 HD
ATOM     65  H   UNL     1      -6.883  16.814  23.568  0.00  0.00    +0.032 HD
ATOM     66  H   UNL     1      -8.408  17.724  23.538  0.00  0.00    +0.032 HD
ATOM     67  H   UNL     1      -8.084  15.283  21.804  0.00  0.00    +0.060 HD
ATOM     68  H   UNL     1      -6.139  16.885  21.366  0.00  0.00    +0.036 HD
ATOM     69  H   UNL     1      -6.366  16.806  18.864  0.00  0.00    +0.074 HD
ATOM     70  H   UNL     1     -10.196  17.591  16.408  0.00  0.00    +0.069 HD
ATOM     71  H   UNL     1     -10.760  16.625  19.274  0.00  0.00    +0.062 HD
ATOM     72  H   UNL     1     -12.857  16.574  20.030  0.00  0.00    +0.058 HD
ATOM     73  H   UNL     1     -14.998  17.996  19.855  0.00  0.00    +0.033 HD
ATOM     74  H   UNL     1     -15.171  17.450  18.194  0.00  0.00    +0.033 HD
ATOM     75  H   UNL     1     -16.595  16.215  19.584  0.00  0.00    +0.060 HD
ATOM     76  H   UNL     1     -15.423  14.965  17.723  0.00  0.00    +0.032 HD
ATOM     77  H   UNL     1     -16.350  14.090  18.927  0.00  0.00    +0.032 HD
ATOM     78  H   UNL     1     -14.510  12.801  18.336  0.00  0.00    +0.064 HD
ATOM     79  H   UNL     1     -11.017  14.022  18.479  0.00  0.00    +0.060 HD
ATOM     80  H   UNL     1     -12.733  11.504  18.215  0.00  0.00    +0.032 HD
ATOM     81  H   UNL     1     -11.001  11.496  18.462  0.00  0.00    +0.032 HD
ATOM     82  H   UNL     1     -10.992  13.187  16.342  0.00  0.00    +0.060 HD
ATOM     83  H   UNL     1     -11.362  10.180  16.365  0.00  0.00    +0.035 HD
ATOM     84  H   UNL     1      -8.990  11.759  15.272  0.00  0.00    +0.060 HD
ATOM     85  H   UNL     1      -8.435   9.674  14.717  0.00  0.00    +0.032 HD
ATOM     86  H   UNL     1      -9.573   8.902  15.765  0.00  0.00    +0.032 HD
ATOM     87  H   UNL     1      -7.132   8.362  16.189  0.00  0.00    +0.060 HD
ATOM     88  H   UNL     1      -8.425   9.736  18.591  0.00  0.00    +0.036 HD
ATOM     89  H   UNL     1     -10.972  12.477  20.560  0.00  0.00    +0.033 HD
ATOM     90  H   UNL     1     -11.340  14.195  20.761  0.00  0.00    +0.033 HD
ATOM     91  H   UNL     1     -12.970  12.624  22.061  0.00  0.00    +0.057 HD
ATOM     92  H   UNL     1     -15.099  12.898  20.915  0.00  0.00    +0.059 HD
ATOM     93  H   UNL     1      -9.022  13.222  29.226  0.00  0.00    +0.033 HD
ATOM     94  H   UNL     1     -10.683  13.629  28.787  0.00  0.00    +0.033 HD
ATOM     95  H   UNL     1     -10.861  11.786  30.445  0.00  0.00    +0.057 HD
ATOM     96  H   UNL     1     -10.583   9.553  29.550  0.00  0.00    +0.059 HD
ENDROOT
BRANCH  28  97
ATOM     97  C   UNL     1     -12.854  18.014  16.840  0.00  0.00    -0.040 C 
ATOM     98  H   UNL     1     -13.381  17.291  16.209  0.00  0.00    +0.028 HD
ATOM     99  H   UNL     1     -12.018  18.379  16.236  0.00  0.00    +0.028 HD
ATOM    100  H   UNL     1     -13.516  18.867  17.029  0.00  0.00    +0.028 HD
ENDBRANCH  28  97
BRANCH  21 101
ATOM    101  C   UNL     1      -7.332  18.509  20.717  0.00  0.00    -0.057 C 
ATOM    102  H   UNL     1      -6.792  19.078  21.477  0.00  0.00    +0.023 HD
ATOM    103  H   UNL     1      -6.961  18.827  19.740  0.00  0.00    +0.023 HD
ATOM    104  H   UNL     1      -8.386  18.795  20.773  0.00  0.00    +0.023 HD
ENDBRANCH  21 101
BRANCH  42 105
ATOM    105  C   UNL     1      -6.704   8.611  18.930  0.00  0.00    -0.057 C 
ATOM    106  H   UNL     1      -5.855   9.162  18.523  0.00  0.00    +0.023 HD
ATOM    107  H   UNL     1      -6.455   7.549  18.995  0.00  0.00    +0.023 HD
ATOM    108  H   UNL     1      -6.844   8.974  19.952  0.00  0.00    +0.023 HD
ENDBRANCH  42 105
BRANCH  17 109
ATOM    109  C   UNL     1      -7.193  16.333  26.266  0.00  0.00    -0.058 C 
ATOM    110  H   UNL     1      -6.563  16.764  25.488  0.00  0.00    +0.023 HD
ATOM    111  H   UNL     1      -6.717  15.397  26.575  0.00  0.00    +0.023 HD
ATOM    112  H   UNL     1      -7.191  17.006  27.123  0.00  0.00    +0.023 HD
ENDBRANCH  17 109
BRANCH  38 113
ATOM    113  C   UNL     1     -11.299  10.923  14.371  0.00  0.00    -0.058 C 
ATOM    114  H   UNL     1     -12.354  10.672  14.211  0.00  0.00    +0.023 HD
ATOM    115  H   UNL     1     -11.088  11.859  13.830  0.00  0.00    +0.023 HD
ATOM    116  H   UNL     1     -10.710  10.131  13.902  0.00  0.00    +0.023 HD
ENDBRANCH  38 113
BRANCH   7 117
ATOM    117  C   UNL     1     -13.335   9.686  23.696  0.00  0.00    -0.040 C 
ATOM    118  H   UNL     1     -14.127   9.274  24.327  0.00  0.00    +0.028 HD
ATOM    119  H   UNL     1     -13.801  10.099  22.797  0.00  0.00    +0.028 HD
ATOM    120  H   UNL     1     -12.872  10.529  24.221  0.00  0.00    +0.028 HD
ENDBRANCH   7 117
BRANCH   1 121
ATOM    121  C   UNL     1      -8.688   6.301  17.724  0.00  0.00    +0.020 C 
ATOM    122  H   UNL     1      -7.887   5.893  18.349  0.00  0.00    +0.036 HD
BRANCH 121 123
ATOM    123  C   UNL     1      -9.851   5.294  17.809  0.00  0.00    -0.057 C 
ATOM    124  H   UNL     1      -9.511   4.257  17.755  0.00  0.00    +0.023 HD
ATOM    125  H   UNL     1     -10.414   5.419  18.738  0.00  0.00    +0.023 HD
ATOM    126  H   UNL     1     -10.578   5.467  17.012  0.00  0.00    +0.023 HD
ENDBRANCH 121 123
BRANCH 121 127
ATOM    127  C   UNL     1      -8.170   6.310  16.246  0.00  0.00    +0.064 C 
ATOM    128  H   UNL     1      -8.024   7.353  15.937  0.00  0.00    +0.060 HD
BRANCH 127 129
ATOM    129  C   UNL     1      -9.111   5.650  15.196  0.00  0.00    -0.017 C 
ATOM    130  H   UNL     1      -9.994   5.247  15.701  0.00  0.00    +0.032 HD
BRANCH 129 131
ATOM    131  C   UNL     1      -9.576   6.663  14.145  0.00  0.00    -0.060 C 
ATOM    132  H   UNL     1     -10.444   7.238  14.477  0.00  0.00    +0.023 HD
ATOM    133  H   UNL     1      -8.777   7.372  13.897  0.00  0.00    +0.023 HD
ATOM    134  H   UNL     1      -9.873   6.154  13.221  0.00  0.00    +0.023 HD
ENDBRANCH 129 131
BRANCH 129 135
ATOM    135  C   UNL     1      -8.454   4.463  14.446  0.00  0.00    -0.046 C 
ATOM    136  H   UNL     1      -8.734   4.539  13.389  0.00  0.00    +0.027 HD
ATOM    137  H   UNL     1      -7.361   4.545  14.482  0.00  0.00    +0.027 HD
BRANCH 135 138
ATOM    138  C   UNL     1      -8.872   3.079  14.962  0.00  0.00    -0.026 C 
ATOM    139  H   UNL     1      -9.781   3.166  15.562  0.00  0.00    +0.029 HD
ATOM    140  H   UNL     1      -9.115   2.438  14.105  0.00  0.00    +0.029 HD
BRANCH 138 143
ATOM    141  C   UNL     1      -7.310   0.503  14.446  0.00  0.00    +0.059 C 
ATOM    142  O   UNL     1      -6.825   1.704  15.057  0.00  0.00    -0.373 OA
ATOM    143  C   UNL     1      -7.789   2.422  15.834  0.00  0.00    +0.061 C 
ATOM    144  C   UNL     1      -8.371   1.515  16.921  0.00  0.00    -0.000 C 
ATOM    145  C   UNL     1      -8.929   0.218  16.338  0.00  0.00    +0.063 C 
ATOM    146  C   UNL     1      -7.853  -0.460  15.494  0.00  0.00    -0.000 C 
ATOM    147  H   UNL     1      -8.089   0.761  13.721  0.00  0.00    +0.059 HD
ATOM    148  H   UNL     1      -7.233   3.228  16.331  0.00  0.00    +0.060 HD
ATOM    149  H   UNL     1      -7.575   1.264  17.637  0.00  0.00    +0.032 HD
ATOM    150  H   UNL     1      -9.140   2.040  17.499  0.00  0.00    +0.032 HD
ATOM    151  H   UNL     1      -9.806   0.447  15.722  0.00  0.00    +0.060 HD
ATOM    152  H   UNL     1      -8.246  -1.364  15.012  0.00  0.00    +0.032 HD
ATOM    153  H   UNL     1      -7.043  -0.794  16.159  0.00  0.00    +0.032 HD
BRANCH 141 154
ATOM    154  C   UNL     1      -6.149  -0.115  13.682  0.00  0.00    -0.039 C 
ATOM    155  H   UNL     1      -5.824   0.525  12.857  0.00  0.00    +0.025 HD
ATOM    156  H   UNL     1      -5.296  -0.283  14.351  0.00  0.00    +0.025 HD
ATOM    157  H   UNL     1      -6.425  -1.096  13.279  0.00  0.00    +0.025 HD
ENDBRANCH 141 154
BRANCH 145 158
ATOM    158  O   UNL     1      -9.344  -0.598  17.437  0.00  0.00    -0.380 OA
BRANCH 158 159
ATOM    159  C   UNL     1      -8.388  -0.660  18.488  0.00  0.00    +0.037 C 
ATOM    160  H   UNL     1      -7.408  -0.422  18.067  0.00  0.00    +0.052 HD
ATOM    161  H   UNL     1      -8.342  -1.666  18.908  0.00  0.00    +0.052 HD
ATOM    162  H   UNL     1      -8.608   0.069  19.273  0.00  0.00    +0.052 HD
ENDBRANCH 158 159
ENDBRANCH 145 158
ENDBRANCH 138 143
ENDBRANCH 135 138
ENDBRANCH 129 135
ENDBRANCH 127 129
BRANCH 127 163
ATOM    163  O   UNL     1      -6.889   5.687  16.190  0.00  0.00    -0.391 OA
ATOM    164  H   UNL     1      -6.223   6.375  16.031  0.00  0.00    +0.210 HD
ENDBRANCH 127 163
ENDBRANCH 121 127
ENDBRANCH   1 121
BRANCH  41 165
ATOM    165  O   UNL     1      -6.658  10.292  16.657  0.00  0.00    -0.391 OA
ATOM    166  H   UNL     1      -5.991  10.083  15.979  0.00  0.00    +0.210 HD
ENDBRANCH  41 165
BRANCH  39 167
ATOM    167  O   UNL     1      -9.010  11.595  17.270  0.00  0.00    -0.391 OA
ATOM    168  H   UNL     1      -8.364  12.312  17.092  0.00  0.00    +0.210 HD
ENDBRANCH  39 167
BRANCH  31 169
ATOM    169  O   UNL     1     -15.343  15.645  21.033  0.00  0.00    -0.391 OA
ATOM    170  H   UNL     1     -15.001  14.737  21.122  0.00  0.00    +0.210 HD
ENDBRANCH  31 169
BRANCH  22 171
ATOM    171  C   UNL     1      -6.784  14.766  19.527  0.00  0.00    +0.020 C 
ATOM    172  H   UNL     1      -6.423  14.531  20.530  0.00  0.00    +0.036 HD
BRANCH 171 173
ATOM    173  C   UNL     1      -8.071  13.929  19.398  0.00  0.00    -0.057 C 
ATOM    174  H   UNL     1      -8.127  13.170  20.186  0.00  0.00    +0.023 HD
ATOM    175  H   UNL     1      -8.963  14.561  19.492  0.00  0.00    +0.023 HD
ATOM    176  H   UNL     1      -8.134  13.435  18.424  0.00  0.00    +0.023 HD
ENDBRANCH 171 173
BRANCH 171 177
ATOM    177  C   UNL     1      -5.758  14.229  18.470  0.00  0.00    +0.064 C 
ATOM    178  H   UNL     1      -6.268  13.511  17.811  0.00  0.00    +0.060 HD
BRANCH 177 179
ATOM    179  O   UNL     1      -5.322  15.276  17.606  0.00  0.00    -0.391 OA
ATOM    180  H   UNL     1      -5.539  16.123  18.034  0.00  0.00    +0.210 HD
ENDBRANCH 177 179
BRANCH 177 181
ATOM    181  C   UNL     1      -4.512  13.506  19.092  0.00  0.00    -0.017 C 
ATOM    182  H   UNL     1      -4.333  13.937  20.087  0.00  0.00    +0.032 HD
BRANCH 181 183
ATOM    183  C   UNL     1      -4.761  11.996  19.239  0.00  0.00    -0.060 C 
ATOM    184  H   UNL     1      -4.803  11.732  20.301  0.00  0.00    +0.023 HD
ATOM    185  H   UNL     1      -3.985  11.388  18.767  0.00  0.00    +0.023 HD
ATOM    186  H   UNL     1      -5.695  11.691  18.763  0.00  0.00    +0.023 HD
ENDBRANCH 181 183
BRANCH 181 187
ATOM    187  C   UNL     1      -3.231  13.754  18.240  0.00  0.00    -0.046 C 
ATOM    188  H   UNL     1      -3.505  14.301  17.334  0.00  0.00    +0.027 HD
ATOM    189  H   UNL     1      -2.839  12.777  17.931  0.00  0.00    +0.027 HD
BRANCH 187 190
ATOM    190  C   UNL     1      -2.124  14.540  18.970  0.00  0.00    -0.026 C 
ATOM    191  H   UNL     1      -1.748  13.918  19.788  0.00  0.00    +0.029 HD
ATOM    192  H   UNL     1      -2.570  15.433  19.424  0.00  0.00    +0.029 HD
BRANCH 190 193
ATOM    193  C   UNL     1      -0.873  14.962  18.169  0.00  0.00    +0.061 C 
ATOM    194  O   UNL     1      -0.018  13.867  17.841  0.00  0.00    -0.373 OA
ATOM    195  C   UNL     1       0.954  13.505  18.814  0.00  0.00    +0.059 C 
ATOM    196  C   UNL     1       1.828  14.690  19.200  0.00  0.00    -0.000 C 
ATOM    197  C   UNL     1       0.961  15.845  19.713  0.00  0.00    +0.063 C 
ATOM    198  C   UNL     1      -0.107  16.185  18.676  0.00  0.00    -0.000 C 
ATOM    199  H   UNL     1      -1.280  15.260  17.193  0.00  0.00    +0.060 HD
ATOM    200  H   UNL     1       0.445  13.100  19.695  0.00  0.00    +0.059 HD
ATOM    201  H   UNL     1       2.554  14.390  19.963  0.00  0.00    +0.032 HD
ATOM    202  H   UNL     1       2.409  15.046  18.341  0.00  0.00    +0.032 HD
ATOM    203  H   UNL     1       0.491  15.557  20.656  0.00  0.00    +0.060 HD
ATOM    204  H   UNL     1       0.410  16.638  17.818  0.00  0.00    +0.032 HD
ATOM    205  H   UNL     1      -0.787  16.959  19.049  0.00  0.00    +0.032 HD
BRANCH 195 206
ATOM    206  C   UNL     1       1.811  12.398  18.212  0.00  0.00    -0.039 C 
ATOM    207  H   UNL     1       1.228  11.485  18.076  0.00  0.00    +0.025 HD
ATOM    208  H   UNL     1       2.213  12.701  17.243  0.00  0.00    +0.025 HD
ATOM    209  H   UNL     1       2.667  12.171  18.851  0.00  0.00    +0.025 HD
ENDBRANCH 195 206
BRANCH 197 210
ATOM    210  O   UNL     1       1.711  17.043  19.949  0.00  0.00    -0.380 OA
BRANCH 210 211
ATOM    211  C   UNL     1       3.048  16.820  20.367  0.00  0.00    +0.037 C 
ATOM    212  H   UNL     1       3.565  17.772  20.492  0.00  0.00    +0.052 HD
ATOM    213  H   UNL     1       3.024  16.324  21.341  0.00  0.00    +0.052 HD
ATOM    214  H   UNL     1       3.585  16.182  19.662  0.00  0.00    +0.052 HD
ENDBRANCH 210 211
ENDBRANCH 197 210
ENDBRANCH 190 193
ENDBRANCH 187 190
ENDBRANCH 181 187
ENDBRANCH 177 181
ENDBRANCH 171 177
ENDBRANCH  22 171
BRANCH  20 215
ATOM    215  O   UNL     1      -9.513  16.704  21.536  0.00  0.00    -0.391 OA
ATOM    216  H   UNL     1      -9.511  17.295  20.764  0.00  0.00    +0.210 HD
ENDBRANCH  20 215
BRANCH  18 217
ATOM    217  O   UNL     1      -9.946  15.406  23.841  0.00  0.00    -0.391 OA
ATOM    218  H   UNL     1     -10.504  16.205  23.954  0.00  0.00    +0.210 HD
ENDBRANCH  18 217
BRANCH  10 219
ATOM    219  O   UNL     1     -11.290   7.766  27.991  0.00  0.00    -0.391 OA
ATOM    220  H   UNL     1     -10.481   7.445  28.428  0.00  0.00    +0.210 HD
ENDBRANCH  10 219
BRANCH  37 221
ATOM    221  O   UNL     1     -12.927  12.500  15.954  0.00  0.00    -0.379 OA
BRANCH 221 222
ATOM    222  C   UNL     1     -13.040  13.737  15.262  0.00  0.00    +0.037 C 
ATOM    223  H   UNL     1     -12.426  13.726  14.355  0.00  0.00    +0.052 HD
ATOM    224  H   UNL     1     -12.741  14.575  15.899  0.00  0.00    +0.052 HD
ATOM    225  H   UNL     1     -14.086  13.881  14.972  0.00  0.00    +0.052 HD
ENDBRANCH 221 222
ENDBRANCH  37 221
BRANCH  16 226
ATOM    226  O   UNL     1     -10.759  14.960  26.442  0.00  0.00    -0.379 OA
BRANCH 226 227
ATOM    227  C   UNL     1     -11.525  15.980  27.065  0.00  0.00    +0.037 C 
ATOM    228  H   UNL     1     -10.885  16.860  27.171  0.00  0.00    +0.052 HD
ATOM    229  H   UNL     1     -12.387  16.258  26.450  0.00  0.00    +0.052 HD
ATOM    230  H   UNL     1     -11.850  15.680  28.065  0.00  0.00    +0.052 HD
ENDBRANCH 226 227
ENDBRANCH  16 226
TORSDOF 40
ENDMDL
MODEL 8
REMARK VINA RESULT:      -5.2      2.848      9.256
REMARK  Name = Swinholide A_conf2
REMARK  40 active torsions:
REMARK  status: ('A' for Active; 'I' for Inactive)
REMARK    1  A    between atoms: C_1  and  C_2
REMARK    2  A    between atoms: C_4  and  C_10
REMARK    3  A    between atoms: C_6  and  O_8
REMARK    4  A    between atoms: O_8  and  C_9
REMARK    5  A    between atoms: C_10  and  C_11
REMARK    6  A    between atoms: C_11  and  C_12
REMARK    7  A    between atoms: C_12  and  C_13
REMARK    8  A    between atoms: C_12  and  C_98
REMARK    9  A    between atoms: C_13  and  O_14
REMARK   10  A    between atoms: C_13  and  C_15
REMARK   11  A    between atoms: C_15  and  C_16
REMARK   12  A    between atoms: C_15  and  C_97
REMARK   13  A    between atoms: C_22  and  C_96
REMARK   14  A    between atoms: C_25  and  O_95
REMARK   15  A    between atoms: C_31  and  O_90
REMARK   16  A    between atoms: C_32  and  C_89
REMARK   17  A    between atoms: C_33  and  O_88
REMARK   18  A    between atoms: C_35  and  O_87
REMARK   19  A    between atoms: C_36  and  C_86
REMARK   20  A    between atoms: C_37  and  C_69
REMARK   21  A    between atoms: C_43  and  C_68
REMARK   22  A    between atoms: C_46  and  O_67
REMARK   23  A    between atoms: C_52  and  O_62
REMARK   24  A    between atoms: C_53  and  C_61
REMARK   25  A    between atoms: C_54  and  O_60
REMARK   26  A    between atoms: C_56  and  O_59
REMARK   27  A    between atoms: C_57  and  C_58
REMARK   28  A    between atoms: O_62  and  C_63
REMARK   29  A    between atoms: C_69  and  C_70
REMARK   30  A    between atoms: C_69  and  C_85
REMARK   31  A    between atoms: C_70  and  O_71
REMARK   32  A    between atoms: C_70  and  C_72
REMARK   33  A    between atoms: C_72  and  C_73
REMARK   34  A    between atoms: C_72  and  C_84
REMARK   35  A    between atoms: C_73  and  C_74
REMARK   36  A    between atoms: C_74  and  C_75
REMARK   37  A    between atoms: C_77  and  C_83
REMARK   38  A    between atoms: C_79  and  O_81
REMARK   39  A    between atoms: O_81  and  C_82
REMARK   40  A    between atoms: O_90  and  C_91
REMARK                            x       y       z     vdW  Elec       q    Type
REMARK                         _______ _______ _______ _____ _____    ______ ____
ROOT
ATOM      1  C   UNL     1      -9.323   7.166  18.055  0.00  0.00    +0.113 C 
ATOM      2  O   UNL     1      -9.651   7.099  19.467  0.00  0.00    -0.458 OA
ATOM      3  C   UNL     1     -10.866   7.586  19.819  0.00  0.00    +0.332 C 
ATOM      4  O   UNL     1     -11.719   8.038  19.077  0.00  0.00    -0.246 OA
ATOM      5  C   UNL     1     -10.988   7.525  21.293  0.00  0.00    +0.023 C 
ATOM      6  C   UNL     1     -12.151   7.869  21.867  0.00  0.00    -0.052 C 
ATOM      7  C   UNL     1     -12.416   7.948  23.300  0.00  0.00    -0.054 C 
ATOM      8  C   UNL     1     -11.814   7.137  24.192  0.00  0.00    -0.079 C 
ATOM      9  C   UNL     1     -12.074   7.097  25.678  0.00  0.00    -0.008 C 
ATOM     10  C   UNL     1     -10.873   7.533  26.543  0.00  0.00    +0.061 C 
ATOM     11  C   UNL     1     -10.601   9.043  26.450  0.00  0.00    +0.003 C 
ATOM     12  C   UNL     1      -9.562   9.568  27.463  0.00  0.00    +0.080 C 
ATOM     13  O   UNL     1      -8.910  10.752  26.952  0.00  0.00    -0.369 OA
ATOM     14  C   UNL     1      -9.693  11.955  27.082  0.00  0.00    +0.065 C 
ATOM     15  C   UNL     1      -8.914  13.071  26.364  0.00  0.00    +0.000 C 
ATOM     16  C   UNL     1      -9.531  14.482  26.492  0.00  0.00    +0.066 C 
ATOM     17  C   UNL     1      -8.875  15.537  25.536  0.00  0.00    +0.009 C 
ATOM     18  C   UNL     1      -8.922  15.146  24.038  0.00  0.00    +0.063 C 
ATOM     19  C   UNL     1      -8.346  16.235  23.097  0.00  0.00    -0.000 C 
ATOM     20  C   UNL     1      -8.597  15.846  21.632  0.00  0.00    +0.064 C 
ATOM     21  C   UNL     1      -7.627  16.512  20.620  0.00  0.00    +0.020 C 
ATOM     22  C   UNL     1      -7.638  15.808  19.226  0.00  0.00    +0.113 C 
ATOM     23  O   UNL     1      -9.004  15.962  18.749  0.00  0.00    -0.458 OA
ATOM     24  C   UNL     1      -9.242  16.306  17.465  0.00  0.00    +0.332 C 
ATOM     25  O   UNL     1      -8.415  16.366  16.555  0.00  0.00    -0.246 OA
ATOM     26  C   UNL     1     -10.674  16.613  17.257  0.00  0.00    +0.023 C 
ATOM     27  C   UNL     1     -11.623  16.425  18.198  0.00  0.00    -0.052 C 
ATOM     28  C   UNL     1     -13.056  16.679  18.084  0.00  0.00    -0.054 C 
ATOM     29  C   UNL     1     -13.846  16.321  19.119  0.00  0.00    -0.079 C 
ATOM     30  C   UNL     1     -15.343  16.395  19.219  0.00  0.00    -0.008 C 
ATOM     31  C   UNL     1     -16.046  15.122  19.732  0.00  0.00    +0.061 C 
ATOM     32  C   UNL     1     -15.920  13.858  18.855  0.00  0.00    +0.003 C 
ATOM     33  C   UNL     1     -14.726  12.896  19.018  0.00  0.00    +0.080 C 
ATOM     34  O   UNL     1     -13.533  13.494  18.504  0.00  0.00    -0.369 OA
ATOM     35  C   UNL     1     -12.329  12.757  18.741  0.00  0.00    +0.065 C 
ATOM     36  C   UNL     1     -12.261  11.425  17.973  0.00  0.00    +0.000 C 
ATOM     37  C   UNL     1     -12.134  11.648  16.447  0.00  0.00    +0.066 C 
ATOM     38  C   UNL     1     -11.449  10.432  15.759  0.00  0.00    +0.009 C 
ATOM     39  C   UNL     1      -9.895  10.488  15.847  0.00  0.00    +0.063 C 
ATOM     40  C   UNL     1      -9.243   9.109  15.562  0.00  0.00    -0.000 C 
ATOM     41  C   UNL     1      -8.020   8.716  16.401  0.00  0.00    +0.064 C 
ATOM     42  C   UNL     1      -8.304   8.334  17.876  0.00  0.00    +0.020 C 
ATOM     43  C   UNL     1     -12.094  12.600  20.254  0.00  0.00    -0.008 C 
ATOM     44  C   UNL     1     -13.345  12.247  21.001  0.00  0.00    -0.083 C 
ATOM     45  C   UNL     1     -14.540  12.377  20.421  0.00  0.00    -0.059 C 
ATOM     46  C   UNL     1      -9.936  12.275  28.565  0.00  0.00    -0.008 C 
ATOM     47  C   UNL     1     -10.337  11.055  29.336  0.00  0.00    -0.083 C 
ATOM     48  C   UNL     1     -10.146   9.830  28.832  0.00  0.00    -0.059 C 
ATOM     49  H   UNL     1     -10.208   7.466  17.496  0.00  0.00    +0.074 HD
ATOM     50  H   UNL     1     -10.111   7.234  21.851  0.00  0.00    +0.069 HD
ATOM     51  H   UNL     1     -12.981   8.174  21.231  0.00  0.00    +0.062 HD
ATOM     52  H   UNL     1     -11.106   6.387  23.844  0.00  0.00    +0.058 HD
ATOM     53  H   UNL     1     -12.338   6.062  25.931  0.00  0.00    +0.033 HD
ATOM     54  H   UNL     1     -12.955   7.678  25.964  0.00  0.00    +0.033 HD
ATOM     55  H   UNL     1      -9.979   6.987  26.230  0.00  0.00    +0.060 HD
ATOM     56  H   UNL     1     -10.267   9.284  25.435  0.00  0.00    +0.032 HD
ATOM     57  H   UNL     1     -11.539   9.593  26.592  0.00  0.00    +0.032 HD
ATOM     58  H   UNL     1      -8.759   8.831  27.569  0.00  0.00    +0.064 HD
ATOM     59  H   UNL     1     -10.647  11.807  26.562  0.00  0.00    +0.060 HD
ATOM     60  H   UNL     1      -7.879  13.093  26.726  0.00  0.00    +0.032 HD
ATOM     61  H   UNL     1      -8.853  12.772  25.311  0.00  0.00    +0.032 HD
ATOM     62  H   UNL     1      -9.366  14.821  27.525  0.00  0.00    +0.060 HD
ATOM     63  H   UNL     1      -9.454  16.460  25.638  0.00  0.00    +0.035 HD
ATOM     64  H   UNL     1      -8.320  14.244  23.874  0.00  0.00    +0.060 HD
ATOM     65  H   UNL     1      -7.268  16.341  23.278  0.00  0.00    +0.032 HD
ATOM     66  H   UNL     1      -8.826  17.194  23.312  0.00  0.00    +0.032 HD
ATOM     67  H   UNL     1      -8.486  14.763  21.568  0.00  0.00    +0.060 HD
ATOM     68  H   UNL     1      -6.622  16.434  21.046  0.00  0.00    +0.036 HD
ATOM     69  H   UNL     1      -6.952  16.341  18.556  0.00  0.00    +0.074 HD
ATOM     70  H   UNL     1     -10.908  16.979  16.264  0.00  0.00    +0.069 HD
ATOM     71  H   UNL     1     -11.314  16.000  19.153  0.00  0.00    +0.062 HD
ATOM     72  H   UNL     1     -13.374  15.874  19.997  0.00  0.00    +0.058 HD
ATOM     73  H   UNL     1     -15.571  17.216  19.913  0.00  0.00    +0.033 HD
ATOM     74  H   UNL     1     -15.795  16.659  18.261  0.00  0.00    +0.033 HD
ATOM     75  H   UNL     1     -17.112  15.377  19.711  0.00  0.00    +0.060 HD
ATOM     76  H   UNL     1     -15.975  14.166  17.803  0.00  0.00    +0.032 HD
ATOM     77  H   UNL     1     -16.817  13.260  19.045  0.00  0.00    +0.032 HD
ATOM     78  H   UNL     1     -14.957  12.039  18.378  0.00  0.00    +0.064 HD
ATOM     79  H   UNL     1     -11.509  13.388  18.372  0.00  0.00    +0.060 HD
ATOM     80  H   UNL     1     -13.141  10.807  18.182  0.00  0.00    +0.032 HD
ATOM     81  H   UNL     1     -11.401  10.864  18.356  0.00  0.00    +0.032 HD
ATOM     82  H   UNL     1     -11.544  12.549  16.236  0.00  0.00    +0.060 HD
ATOM     83  H   UNL     1     -11.801   9.531  16.277  0.00  0.00    +0.035 HD
ATOM     84  H   UNL     1      -9.538  11.193  15.083  0.00  0.00    +0.060 HD
ATOM     85  H   UNL     1      -8.931   9.129  14.506  0.00  0.00    +0.032 HD
ATOM     86  H   UNL     1      -9.994   8.318  15.602  0.00  0.00    +0.032 HD
ATOM     87  H   UNL     1      -7.519   7.869  15.923  0.00  0.00    +0.060 HD
ATOM     88  H   UNL     1      -8.758   9.200  18.376  0.00  0.00    +0.036 HD
ATOM     89  H   UNL     1     -11.319  11.850  20.450  0.00  0.00    +0.033 HD
ATOM     90  H   UNL     1     -11.741  13.554  20.665  0.00  0.00    +0.033 HD
ATOM     91  H   UNL     1     -13.256  11.927  22.034  0.00  0.00    +0.057 HD
ATOM     92  H   UNL     1     -15.440  12.119  20.980  0.00  0.00    +0.059 HD
ATOM     93  H   UNL     1      -9.031  12.686  29.024  0.00  0.00    +0.033 HD
ATOM     94  H   UNL     1     -10.723  13.031  28.656  0.00  0.00    +0.033 HD
ATOM     95  H   UNL     1     -10.763  11.186  30.322  0.00  0.00    +0.057 HD
ATOM     96  H   UNL     1     -10.442   8.963  29.417  0.00  0.00    +0.059 HD
ENDROOT
BRANCH  28  97
ATOM     97  C   UNL     1     -13.560  17.306  16.809  0.00  0.00    -0.040 C 
ATOM     98  H   UNL     1     -14.511  17.818  16.987  0.00  0.00    +0.028 HD
ATOM     99  H   UNL     1     -13.759  16.582  16.013  0.00  0.00    +0.028 HD
ATOM    100  H   UNL     1     -12.836  18.029  16.417  0.00  0.00    +0.028 HD
ENDBRANCH  28  97
BRANCH  21 101
ATOM    101  C   UNL     1      -7.900  18.012  20.447  0.00  0.00    -0.057 C 
ATOM    102  H   UNL     1      -8.875  18.187  19.985  0.00  0.00    +0.023 HD
ATOM    103  H   UNL     1      -7.901  18.511  21.418  0.00  0.00    +0.023 HD
ATOM    104  H   UNL     1      -7.146  18.506  19.828  0.00  0.00    +0.023 HD
ENDBRANCH  21 101
BRANCH  42 105
ATOM    105  C   UNL     1      -6.984   8.140  18.643  0.00  0.00    -0.057 C 
ATOM    106  H   UNL     1      -6.413   7.296  18.253  0.00  0.00    +0.023 HD
ATOM    107  H   UNL     1      -7.150   8.006  19.715  0.00  0.00    +0.023 HD
ATOM    108  H   UNL     1      -6.350   9.022  18.521  0.00  0.00    +0.023 HD
ENDBRANCH  42 105
BRANCH  17 109
ATOM    109  C   UNL     1      -7.445  15.855  25.987  0.00  0.00    -0.058 C 
ATOM    110  H   UNL     1      -6.709  15.442  25.298  0.00  0.00    +0.023 HD
ATOM    111  H   UNL     1      -7.246  15.411  26.967  0.00  0.00    +0.023 HD
ATOM    112  H   UNL     1      -7.276  16.929  26.067  0.00  0.00    +0.023 HD
ENDBRANCH  17 109
BRANCH  38 113
ATOM    113  C   UNL     1     -11.851  10.271  14.282  0.00  0.00    -0.058 C 
ATOM    114  H   UNL     1     -12.382   9.330  14.096  0.00  0.00    +0.023 HD
ATOM    115  H   UNL     1     -12.506  11.097  13.964  0.00  0.00    +0.023 HD
ATOM    116  H   UNL     1     -10.975  10.275  13.628  0.00  0.00    +0.023 HD
ENDBRANCH  38 113
BRANCH   7 117
ATOM    117  C   UNL     1     -13.442   8.981  23.686  0.00  0.00    -0.040 C 
ATOM    118  H   UNL     1     -13.135   9.498  24.599  0.00  0.00    +0.028 HD
ATOM    119  H   UNL     1     -14.419   8.524  23.868  0.00  0.00    +0.028 HD
ATOM    120  H   UNL     1     -13.592   9.726  22.895  0.00  0.00    +0.028 HD
ENDBRANCH   7 117
BRANCH   1 121
ATOM    121  C   UNL     1      -8.932   5.755  17.524  0.00  0.00    +0.020 C 
ATOM    122  H   UNL     1      -8.160   5.336  18.178  0.00  0.00    +0.036 HD
BRANCH 121 123
ATOM    123  C   UNL     1     -10.094   4.744  17.528  0.00  0.00    -0.057 C 
ATOM    124  H   UNL     1     -10.341   4.396  18.535  0.00  0.00    +0.023 HD
ATOM    125  H   UNL     1     -10.996   5.179  17.088  0.00  0.00    +0.023 HD
ATOM    126  H   UNL     1      -9.863   3.879  16.904  0.00  0.00    +0.023 HD
ENDBRANCH 121 123
BRANCH 121 127
ATOM    127  C   UNL     1      -8.342   5.799  16.074  0.00  0.00    +0.064 C 
ATOM    128  H   UNL     1      -8.224   6.850  15.779  0.00  0.00    +0.060 HD
BRANCH 127 129
ATOM    129  C   UNL     1      -9.201   5.111  14.973  0.00  0.00    -0.017 C 
ATOM    130  H   UNL     1     -10.176   4.840  15.389  0.00  0.00    +0.032 HD
BRANCH 129 131
ATOM    131  C   UNL     1      -9.429   6.040  13.776  0.00  0.00    -0.060 C 
ATOM    132  H   UNL     1      -9.142   5.576  12.829  0.00  0.00    +0.023 HD
ATOM    133  H   UNL     1     -10.481   6.337  13.700  0.00  0.00    +0.023 HD
ATOM    134  H   UNL     1      -8.828   6.952  13.873  0.00  0.00    +0.023 HD
ENDBRANCH 129 131
BRANCH 129 135
ATOM    135  C   UNL     1      -8.572   3.799  14.437  0.00  0.00    -0.046 C 
ATOM    136  H   UNL     1      -7.664   3.601  15.020  0.00  0.00    +0.027 HD
ATOM    137  H   UNL     1      -9.244   2.952  14.617  0.00  0.00    +0.027 HD
BRANCH 135 138
ATOM    138  C   UNL     1      -8.195   3.838  12.950  0.00  0.00    -0.026 C 
ATOM    139  H   UNL     1      -8.743   4.642  12.450  0.00  0.00    +0.029 HD
ATOM    140  H   UNL     1      -7.128   4.075  12.859  0.00  0.00    +0.029 HD
BRANCH 138 143
ATOM    141  C   UNL     1      -6.636   1.211  12.981  0.00  0.00    +0.059 C 
ATOM    142  O   UNL     1      -8.058   1.374  12.946  0.00  0.00    -0.373 OA
ATOM    143  C   UNL     1      -8.519   2.522  12.224  0.00  0.00    +0.061 C 
ATOM    144  C   UNL     1      -7.990   2.489  10.789  0.00  0.00    -0.000 C 
ATOM    145  C   UNL     1      -6.471   2.336  10.748  0.00  0.00    +0.063 C 
ATOM    146  C   UNL     1      -6.064   1.118  11.572  0.00  0.00    -0.000 C 
ATOM    147  H   UNL     1      -6.192   2.054  13.521  0.00  0.00    +0.059 HD
ATOM    148  H   UNL     1      -9.612   2.430  12.182  0.00  0.00    +0.060 HD
ATOM    149  H   UNL     1      -8.443   1.635  10.264  0.00  0.00    +0.032 HD
ATOM    150  H   UNL     1      -8.303   3.382  10.235  0.00  0.00    +0.032 HD
ATOM    151  H   UNL     1      -6.005   3.242  11.153  0.00  0.00    +0.060 HD
ATOM    152  H   UNL     1      -4.972   1.019  11.611  0.00  0.00    +0.032 HD
ATOM    153  H   UNL     1      -6.436   0.212  11.070  0.00  0.00    +0.032 HD
BRANCH 141 154
ATOM    154  C   UNL     1      -6.347  -0.054  13.775  0.00  0.00    -0.039 C 
ATOM    155  H   UNL     1      -7.150  -0.275  14.485  0.00  0.00    +0.025 HD
ATOM    156  H   UNL     1      -6.231  -0.912  13.101  0.00  0.00    +0.025 HD
ATOM    157  H   UNL     1      -5.404   0.038  14.326  0.00  0.00    +0.025 HD
ENDBRANCH 141 154
BRANCH 145 158
ATOM    158  O   UNL     1      -6.093   2.206   9.374  0.00  0.00    -0.380 OA
BRANCH 158 159
ATOM    159  C   UNL     1      -5.570   3.406   8.817  0.00  0.00    +0.037 C 
ATOM    160  H   UNL     1      -6.410   4.059   8.571  0.00  0.00    +0.052 HD
ATOM    161  H   UNL     1      -5.021   3.196   7.898  0.00  0.00    +0.052 HD
ATOM    162  H   UNL     1      -4.927   3.931   9.531  0.00  0.00    +0.052 HD
ENDBRANCH 158 159
ENDBRANCH 145 158
ENDBRANCH 138 143
ENDBRANCH 135 138
ENDBRANCH 129 135
ENDBRANCH 127 129
BRANCH 127 163
ATOM    163  O   UNL     1      -7.034   5.230  16.078  0.00  0.00    -0.391 OA
ATOM    164  H   UNL     1      -6.757   5.113  17.001  0.00  0.00    +0.210 HD
ENDBRANCH 127 163
ENDBRANCH 121 127
ENDBRANCH   1 121
BRANCH  41 165
ATOM    165  O   UNL     1      -7.097   9.816  16.369  0.00  0.00    -0.391 OA
ATOM    166  H   UNL     1      -6.210   9.454  16.543  0.00  0.00    +0.210 HD
ENDBRANCH  41 165
BRANCH  39 167
ATOM    167  O   UNL     1      -9.467  11.033  17.080  0.00  0.00    -0.391 OA
ATOM    168  H   UNL     1      -9.798  10.442  17.789  0.00  0.00    +0.210 HD
ENDBRANCH  39 167
BRANCH  31 169
ATOM    169  O   UNL     1     -15.779  14.856  21.106  0.00  0.00    -0.391 OA
ATOM    170  H   UNL     1     -15.926  15.675  21.614  0.00  0.00    +0.210 HD
ENDBRANCH  31 169
BRANCH  22 171
ATOM    171  C   UNL     1      -7.265  14.289  19.238  0.00  0.00    +0.020 C 
ATOM    172  H   UNL     1      -6.746  14.095  20.179  0.00  0.00    +0.036 HD
BRANCH 171 173
ATOM    173  C   UNL     1      -8.525  13.407  19.329  0.00  0.00    -0.057 C 
ATOM    174  H   UNL     1      -9.057  13.381  18.371  0.00  0.00    +0.023 HD
ATOM    175  H   UNL     1      -8.265  12.372  19.584  0.00  0.00    +0.023 HD
ATOM    176  H   UNL     1      -9.210  13.762  20.105  0.00  0.00    +0.023 HD
ENDBRANCH 171 173
BRANCH 171 177
ATOM    177  C   UNL     1      -6.394  13.755  18.049  0.00  0.00    +0.064 C 
ATOM    178  H   UNL     1      -6.909  12.900  17.586  0.00  0.00    +0.060 HD
BRANCH 177 179
ATOM    179  O   UNL     1      -6.297  14.730  17.012  0.00  0.00    -0.391 OA
ATOM    180  H   UNL     1      -6.575  15.586  17.383  0.00  0.00    +0.210 HD
ENDBRANCH 177 179
BRANCH 177 181
ATOM    181  C   UNL     1      -4.958  13.282  18.463  0.00  0.00    -0.017 C 
ATOM    182  H   UNL     1      -4.905  13.283  19.561  0.00  0.00    +0.032 HD
BRANCH 181 183
ATOM    183  C   UNL     1      -4.671  11.860  17.952  0.00  0.00    -0.060 C 
ATOM    184  H   UNL     1      -4.927  11.793  16.890  0.00  0.00    +0.023 HD
ATOM    185  H   UNL     1      -5.236  11.093  18.488  0.00  0.00    +0.023 HD
ATOM    186  H   UNL     1      -3.622  11.587  18.080  0.00  0.00    +0.023 HD
ENDBRANCH 181 183
BRANCH 181 187
ATOM    187  C   UNL     1      -3.866  14.264  17.944  0.00  0.00    -0.046 C 
ATOM    188  H   UNL     1      -4.217  15.291  18.078  0.00  0.00    +0.027 HD
ATOM    189  H   UNL     1      -3.746  14.093  16.867  0.00  0.00    +0.027 HD
BRANCH 187 190
ATOM    190  C   UNL     1      -2.498  14.121  18.640  0.00  0.00    -0.026 C 
ATOM    191  H   UNL     1      -1.717  14.278  17.890  0.00  0.00    +0.029 HD
ATOM    192  H   UNL     1      -2.395  13.090  19.000  0.00  0.00    +0.029 HD
BRANCH 190 193
ATOM    193  C   UNL     1      -2.158  15.086  19.796  0.00  0.00    +0.061 C 
ATOM    194  O   UNL     1      -2.911  14.833  20.982  0.00  0.00    -0.373 OA
ATOM    195  C   UNL     1      -4.182  15.463  21.075  0.00  0.00    +0.059 C 
ATOM    196  C   UNL     1      -4.075  16.970  20.895  0.00  0.00    -0.000 C 
ATOM    197  C   UNL     1      -3.411  17.299  19.554  0.00  0.00    +0.063 C 
ATOM    198  C   UNL     1      -2.071  16.574  19.452  0.00  0.00    -0.000 C 
ATOM    199  H   UNL     1      -1.137  14.796  20.082  0.00  0.00    +0.060 HD
ATOM    200  H   UNL     1      -4.851  15.033  20.322  0.00  0.00    +0.059 HD
ATOM    201  H   UNL     1      -5.068  17.428  20.952  0.00  0.00    +0.032 HD
ATOM    202  H   UNL     1      -3.478  17.420  21.697  0.00  0.00    +0.032 HD
ATOM    203  H   UNL     1      -4.068  16.992  18.737  0.00  0.00    +0.060 HD
ATOM    204  H   UNL     1      -1.393  17.048  20.176  0.00  0.00    +0.032 HD
ATOM    205  H   UNL     1      -1.610  16.734  18.470  0.00  0.00    +0.032 HD
BRANCH 195 206
ATOM    206  C   UNL     1      -4.750  15.139  22.452  0.00  0.00    -0.039 C 
ATOM    207  H   UNL     1      -4.198  14.322  22.919  0.00  0.00    +0.025 HD
ATOM    208  H   UNL     1      -4.701  16.012  23.107  0.00  0.00    +0.025 HD
ATOM    209  H   UNL     1      -5.802  14.854  22.386  0.00  0.00    +0.025 HD
ENDBRANCH 195 206
BRANCH 197 210
ATOM    210  O   UNL     1      -3.142  18.698  19.392  0.00  0.00    -0.380 OA
BRANCH 210 211
ATOM    211  C   UNL     1      -4.169  19.413  18.722  0.00  0.00    +0.037 C 
ATOM    212  H   UNL     1      -3.739  20.236  18.151  0.00  0.00    +0.052 HD
ATOM    213  H   UNL     1      -4.654  18.735  18.015  0.00  0.00    +0.052 HD
ATOM    214  H   UNL     1      -4.919  19.784  19.424  0.00  0.00    +0.052 HD
ENDBRANCH 210 211
ENDBRANCH 197 210
ENDBRANCH 190 193
ENDBRANCH 187 190
ENDBRANCH 181 187
ENDBRANCH 177 181
ENDBRANCH 171 177
ENDBRANCH  22 171
BRANCH  20 215
ATOM    215  O   UNL     1      -9.976  16.130  21.360  0.00  0.00    -0.391 OA
ATOM    216  H   UNL     1     -10.522  15.722  22.053  0.00  0.00    +0.210 HD
ENDBRANCH  20 215
BRANCH  18 217
ATOM    217  O   UNL     1     -10.263  14.822  23.682  0.00  0.00    -0.391 OA
ATOM    218  H   UNL     1     -10.846  15.599  23.824  0.00  0.00    +0.210 HD
ENDBRANCH  18 217
BRANCH  10 219
ATOM    219  O   UNL     1     -11.147   7.148  27.891  0.00  0.00    -0.391 OA
ATOM    220  H   UNL     1     -11.136   6.175  27.931  0.00  0.00    +0.210 HD
ENDBRANCH  10 219
BRANCH  37 221
ATOM    221  O   UNL     1     -13.467  11.791  15.931  0.00  0.00    -0.379 OA
BRANCH 221 222
ATOM    222  C   UNL     1     -13.654  13.020  15.243  0.00  0.00    +0.037 C 
ATOM    223  H   UNL     1     -12.696  13.406  14.880  0.00  0.00    +0.052 HD
ATOM    224  H   UNL     1     -14.132  13.765  15.886  0.00  0.00    +0.052 HD
ATOM    225  H   UNL     1     -14.306  12.843  14.380  0.00  0.00    +0.052 HD
ENDBRANCH 221 222
ENDBRANCH  37 221
BRANCH  16 226
ATOM    226  O   UNL     1     -10.948  14.353  26.316  0.00  0.00    -0.379 OA
BRANCH 226 227
ATOM    227  C   UNL     1     -11.726  15.314  27.013  0.00  0.00    +0.037 C 
ATOM    228  H   UNL     1     -11.419  15.296  28.062  0.00  0.00    +0.052 HD
ATOM    229  H   UNL     1     -11.548  16.323  26.624  0.00  0.00    +0.052 HD
ATOM    230  H   UNL     1     -12.791  15.071  26.970  0.00  0.00    +0.052 HD
ENDBRANCH 226 227
ENDBRANCH  16 226
TORSDOF 40
ENDMDL
MODEL 9
REMARK VINA RESULT:      -5.1      4.091     11.184
REMARK  Name = Swinholide A_conf2
REMARK  40 active torsions:
REMARK  status: ('A' for Active; 'I' for Inactive)
REMARK    1  A    between atoms: C_1  and  C_2
REMARK    2  A    between atoms: C_4  and  C_10
REMARK    3  A    between atoms: C_6  and  O_8
REMARK    4  A    between atoms: O_8  and  C_9
REMARK    5  A    between atoms: C_10  and  C_11
REMARK    6  A    between atoms: C_11  and  C_12
REMARK    7  A    between atoms: C_12  and  C_13
REMARK    8  A    between atoms: C_12  and  C_98
REMARK    9  A    between atoms: C_13  and  O_14
REMARK   10  A    between atoms: C_13  and  C_15
REMARK   11  A    between atoms: C_15  and  C_16
REMARK   12  A    between atoms: C_15  and  C_97
REMARK   13  A    between atoms: C_22  and  C_96
REMARK   14  A    between atoms: C_25  and  O_95
REMARK   15  A    between atoms: C_31  and  O_90
REMARK   16  A    between atoms: C_32  and  C_89
REMARK   17  A    between atoms: C_33  and  O_88
REMARK   18  A    between atoms: C_35  and  O_87
REMARK   19  A    between atoms: C_36  and  C_86
REMARK   20  A    between atoms: C_37  and  C_69
REMARK   21  A    between atoms: C_43  and  C_68
REMARK   22  A    between atoms: C_46  and  O_67
REMARK   23  A    between atoms: C_52  and  O_62
REMARK   24  A    between atoms: C_53  and  C_61
REMARK   25  A    between atoms: C_54  and  O_60
REMARK   26  A    between atoms: C_56  and  O_59
REMARK   27  A    between atoms: C_57  and  C_58
REMARK   28  A    between atoms: O_62  and  C_63
REMARK   29  A    between atoms: C_69  and  C_70
REMARK   30  A    between atoms: C_69  and  C_85
REMARK   31  A    between atoms: C_70  and  O_71
REMARK   32  A    between atoms: C_70  and  C_72
REMARK   33  A    between atoms: C_72  and  C_73
REMARK   34  A    between atoms: C_72  and  C_84
REMARK   35  A    between atoms: C_73  and  C_74
REMARK   36  A    between atoms: C_74  and  C_75
REMARK   37  A    between atoms: C_77  and  C_83
REMARK   38  A    between atoms: C_79  and  O_81
REMARK   39  A    between atoms: O_81  and  C_82
REMARK   40  A    between atoms: O_90  and  C_91
REMARK                            x       y       z     vdW  Elec       q    Type
REMARK                         _______ _______ _______ _____ _____    ______ ____
ROOT
ATOM      1  C   UNL     1      -4.690  15.770  19.390  0.00  0.00    +0.113 C 
ATOM      2  O   UNL     1      -5.172  16.345  20.633  0.00  0.00    -0.458 OA
ATOM      3  C   UNL     1      -5.627  15.466  21.558  0.00  0.00    +0.332 C 
ATOM      4  O   UNL     1      -5.641  14.251  21.473  0.00  0.00    -0.246 OA
ATOM      5  C   UNL     1      -6.161  16.228  22.709  0.00  0.00    +0.023 C 
ATOM      6  C   UNL     1      -6.583  15.562  23.795  0.00  0.00    -0.052 C 
ATOM      7  C   UNL     1      -7.212  16.146  24.974  0.00  0.00    -0.054 C 
ATOM      8  C   UNL     1      -6.907  17.381  25.421  0.00  0.00    -0.079 C 
ATOM      9  C   UNL     1      -7.450  18.040  26.664  0.00  0.00    -0.008 C 
ATOM     10  C   UNL     1      -8.329  19.279  26.393  0.00  0.00    +0.061 C 
ATOM     11  C   UNL     1      -9.688  18.911  25.777  0.00  0.00    +0.003 C 
ATOM     12  C   UNL     1     -10.690  20.082  25.695  0.00  0.00    +0.080 C 
ATOM     13  O   UNL     1     -11.624  19.874  24.612  0.00  0.00    -0.369 OA
ATOM     14  C   UNL     1     -12.683  18.947  24.921  0.00  0.00    +0.065 C 
ATOM     15  C   UNL     1     -13.485  18.741  23.623  0.00  0.00    +0.000 C 
ATOM     16  C   UNL     1     -14.749  17.864  23.770  0.00  0.00    +0.066 C 
ATOM     17  C   UNL     1     -15.384  17.453  22.398  0.00  0.00    +0.009 C 
ATOM     18  C   UNL     1     -14.412  16.706  21.451  0.00  0.00    +0.063 C 
ATOM     19  C   UNL     1     -15.075  16.231  20.133  0.00  0.00    -0.000 C 
ATOM     20  C   UNL     1     -14.096  15.349  19.343  0.00  0.00    +0.064 C 
ATOM     21  C   UNL     1     -14.390  15.275  17.822  0.00  0.00    +0.020 C 
ATOM     22  C   UNL     1     -13.181  14.721  17.003  0.00  0.00    +0.113 C 
ATOM     23  O   UNL     1     -12.978  13.375  17.515  0.00  0.00    -0.458 OA
ATOM     24  C   UNL     1     -12.740  12.352  16.667  0.00  0.00    +0.332 C 
ATOM     25  O   UNL     1     -12.510  12.437  15.460  0.00  0.00    -0.246 OA
ATOM     26  C   UNL     1     -12.779  11.055  17.376  0.00  0.00    +0.023 C 
ATOM     27  C   UNL     1     -12.891  10.940  18.716  0.00  0.00    -0.052 C 
ATOM     28  C   UNL     1     -12.920   9.714  19.509  0.00  0.00    -0.054 C 
ATOM     29  C   UNL     1     -12.935   9.830  20.853  0.00  0.00    -0.079 C 
ATOM     30  C   UNL     1     -12.882   8.738  21.884  0.00  0.00    -0.008 C 
ATOM     31  C   UNL     1     -11.863   8.940  23.024  0.00  0.00    +0.061 C 
ATOM     32  C   UNL     1     -10.373   8.973  22.625  0.00  0.00    +0.003 C 
ATOM     33  C   UNL     1      -9.696  10.292  22.199  0.00  0.00    +0.080 C 
ATOM     34  O   UNL     1     -10.155  10.690  20.904  0.00  0.00    -0.369 OA
ATOM     35  C   UNL     1      -9.714  11.980  20.469  0.00  0.00    +0.065 C 
ATOM     36  C   UNL     1      -8.200  12.056  20.202  0.00  0.00    +0.000 C 
ATOM     37  C   UNL     1      -7.791  11.211  18.971  0.00  0.00    +0.066 C 
ATOM     38  C   UNL     1      -6.482  11.754  18.330  0.00  0.00    +0.009 C 
ATOM     39  C   UNL     1      -6.735  12.950  17.364  0.00  0.00    +0.063 C 
ATOM     40  C   UNL     1      -5.440  13.752  17.074  0.00  0.00    -0.000 C 
ATOM     41  C   UNL     1      -5.558  15.279  16.974  0.00  0.00    +0.064 C 
ATOM     42  C   UNL     1      -5.784  16.031  18.309  0.00  0.00    +0.020 C 
ATOM     43  C   UNL     1     -10.215  13.065  21.438  0.00  0.00    -0.008 C 
ATOM     44  C   UNL     1     -10.068  12.671  22.877  0.00  0.00    -0.083 C 
ATOM     45  C   UNL     1      -9.819  11.402  23.209  0.00  0.00    -0.059 C 
ATOM     46  C   UNL     1     -13.553  19.493  26.062  0.00  0.00    -0.008 C 
ATOM     47  C   UNL     1     -12.720  20.047  27.177  0.00  0.00    -0.083 C 
ATOM     48  C   UNL     1     -11.425  20.327  26.993  0.00  0.00    -0.059 C 
ATOM     49  H   UNL     1      -4.638  14.687  19.493  0.00  0.00    +0.074 HD
ATOM     50  H   UNL     1      -6.221  17.301  22.608  0.00  0.00    +0.069 HD
ATOM     51  H   UNL     1      -6.510  14.475  23.806  0.00  0.00    +0.062 HD
ATOM     52  H   UNL     1      -6.161  17.973  24.893  0.00  0.00    +0.058 HD
ATOM     53  H   UNL     1      -6.588  18.340  27.273  0.00  0.00    +0.033 HD
ATOM     54  H   UNL     1      -7.999  17.341  27.302  0.00  0.00    +0.033 HD
ATOM     55  H   UNL     1      -7.802  19.960  25.719  0.00  0.00    +0.060 HD
ATOM     56  H   UNL     1      -9.527  18.505  24.772  0.00  0.00    +0.032 HD
ATOM     57  H   UNL     1     -10.144  18.098  26.355  0.00  0.00    +0.032 HD
ATOM     58  H   UNL     1     -10.152  20.997  25.428  0.00  0.00    +0.064 HD
ATOM     59  H   UNL     1     -12.233  17.988  25.207  0.00  0.00    +0.060 HD
ATOM     60  H   UNL     1     -13.764  19.714  23.201  0.00  0.00    +0.032 HD
ATOM     61  H   UNL     1     -12.789  18.294  22.902  0.00  0.00    +0.032 HD
ATOM     62  H   UNL     1     -15.496  18.456  24.319  0.00  0.00    +0.060 HD
ATOM     63  H   UNL     1     -16.200  16.759  22.622  0.00  0.00    +0.035 HD
ATOM     64  H   UNL     1     -13.592  17.375  21.163  0.00  0.00    +0.060 HD
ATOM     65  H   UNL     1     -15.362  17.105  19.533  0.00  0.00    +0.032 HD
ATOM     66  H   UNL     1     -15.981  15.664  20.365  0.00  0.00    +0.032 HD
ATOM     67  H   UNL     1     -13.101  15.768  19.491  0.00  0.00    +0.060 HD
ATOM     68  H   UNL     1     -14.602  16.296  17.489  0.00  0.00    +0.036 HD
ATOM     69  H   UNL     1     -13.464  14.674  15.944  0.00  0.00    +0.074 HD
ATOM     70  H   UNL     1     -12.679  10.192  16.728  0.00  0.00    +0.069 HD
ATOM     71  H   UNL     1     -12.930  11.858  19.304  0.00  0.00    +0.062 HD
ATOM     72  H   UNL     1     -12.940  10.834  21.284  0.00  0.00    +0.058 HD
ATOM     73  H   UNL     1     -13.885   8.677  22.329  0.00  0.00    +0.033 HD
ATOM     74  H   UNL     1     -12.681   7.767  21.428  0.00  0.00    +0.033 HD
ATOM     75  H   UNL     1     -11.970   8.040  23.642  0.00  0.00    +0.060 HD
ATOM     76  H   UNL     1     -10.215   8.232  21.831  0.00  0.00    +0.032 HD
ATOM     77  H   UNL     1      -9.812   8.614  23.493  0.00  0.00    +0.032 HD
ATOM     78  H   UNL     1      -8.632  10.051  22.101  0.00  0.00    +0.064 HD
ATOM     79  H   UNL     1     -10.222  12.169  19.514  0.00  0.00    +0.060 HD
ATOM     80  H   UNL     1      -7.631  11.726  21.078  0.00  0.00    +0.032 HD
ATOM     81  H   UNL     1      -7.940  13.110  20.052  0.00  0.00    +0.032 HD
ATOM     82  H   UNL     1      -8.585  11.224  18.213  0.00  0.00    +0.060 HD
ATOM     83  H   UNL     1      -5.839  12.093  19.153  0.00  0.00    +0.035 HD
ATOM     84  H   UNL     1      -7.100  12.543  16.411  0.00  0.00    +0.060 HD
ATOM     85  H   UNL     1      -5.059  13.383  16.109  0.00  0.00    +0.032 HD
ATOM     86  H   UNL     1      -4.658  13.484  17.787  0.00  0.00    +0.032 HD
ATOM     87  H   UNL     1      -4.648  15.676  16.512  0.00  0.00    +0.060 HD
ATOM     88  H   UNL     1      -6.725  15.675  18.751  0.00  0.00    +0.036 HD
ATOM     89  H   UNL     1      -9.700  14.015  21.257  0.00  0.00    +0.033 HD
ATOM     90  H   UNL     1     -11.286  13.234  21.267  0.00  0.00    +0.033 HD
ATOM     91  H   UNL     1     -10.209  13.432  23.637  0.00  0.00    +0.057 HD
ATOM     92  H   UNL     1      -9.718  11.132  24.261  0.00  0.00    +0.059 HD
ATOM     93  H   UNL     1     -14.211  20.289  25.700  0.00  0.00    +0.033 HD
ATOM     94  H   UNL     1     -14.191  18.693  26.456  0.00  0.00    +0.033 HD
ATOM     95  H   UNL     1     -13.197  20.240  28.129  0.00  0.00    +0.057 HD
ATOM     96  H   UNL     1     -10.846  20.735  27.818  0.00  0.00    +0.059 HD
ENDROOT
BRANCH  28  97
ATOM     97  C   UNL     1     -12.913   8.400  18.769  0.00  0.00    -0.040 C 
ATOM     98  H   UNL     1     -12.138   8.403  17.996  0.00  0.00    +0.028 HD
ATOM     99  H   UNL     1     -13.850   8.185  18.247  0.00  0.00    +0.028 HD
ATOM    100  H   UNL     1     -12.724   7.567  19.456  0.00  0.00    +0.028 HD
ENDBRANCH  28  97
BRANCH  21 101
ATOM    101  C   UNL     1     -15.650  14.456  17.507  0.00  0.00    -0.057 C 
ATOM    102  H   UNL     1     -15.392  13.465  17.125  0.00  0.00    +0.023 HD
ATOM    103  H   UNL     1     -16.246  14.318  18.411  0.00  0.00    +0.023 HD
ATOM    104  H   UNL     1     -16.291  14.942  16.765  0.00  0.00    +0.023 HD
ENDBRANCH  21 101
BRANCH  42 105
ATOM    105  C   UNL     1      -6.065  17.521  18.045  0.00  0.00    -0.057 C 
ATOM    106  H   UNL     1      -5.616  17.853  17.108  0.00  0.00    +0.023 HD
ATOM    107  H   UNL     1      -5.714  18.155  18.863  0.00  0.00    +0.023 HD
ATOM    108  H   UNL     1      -7.141  17.685  17.946  0.00  0.00    +0.023 HD
ENDBRANCH  42 105
BRANCH  17 109
ATOM    109  C   UNL     1     -16.011  18.671  21.709  0.00  0.00    -0.058 C 
ATOM    110  H   UNL     1     -15.745  19.597  22.218  0.00  0.00    +0.023 HD
ATOM    111  H   UNL     1     -17.103  18.601  21.729  0.00  0.00    +0.023 HD
ATOM    112  H   UNL     1     -15.701  18.750  20.667  0.00  0.00    +0.023 HD
ENDBRANCH  17 109
BRANCH  38 113
ATOM    113  C   UNL     1      -5.688  10.673  17.574  0.00  0.00    -0.058 C 
ATOM    114  H   UNL     1      -6.342   9.986  17.025  0.00  0.00    +0.023 HD
ATOM    115  H   UNL     1      -4.996  11.133  16.850  0.00  0.00    +0.023 HD
ATOM    116  H   UNL     1      -5.092  10.064  18.259  0.00  0.00    +0.023 HD
ENDBRANCH  38 113
BRANCH   7 117
ATOM    117  C   UNL     1      -8.195  15.239  25.667  0.00  0.00    -0.040 C 
ATOM    118  H   UNL     1      -9.148  15.754  25.813  0.00  0.00    +0.028 HD
ATOM    119  H   UNL     1      -7.827  14.926  26.648  0.00  0.00    +0.028 HD
ATOM    120  H   UNL     1      -8.379  14.321  25.097  0.00  0.00    +0.028 HD
ENDBRANCH   7 117
BRANCH   1 121
ATOM    121  C   UNL     1      -3.237  16.249  19.102  0.00  0.00    +0.020 C 
ATOM    122  H   UNL     1      -3.043  16.157  18.028  0.00  0.00    +0.036 HD
BRANCH 121 123
ATOM    123  C   UNL     1      -2.987  17.727  19.457  0.00  0.00    -0.057 C 
ATOM    124  H   UNL     1      -3.892  18.334  19.378  0.00  0.00    +0.023 HD
ATOM    125  H   UNL     1      -2.598  17.827  20.475  0.00  0.00    +0.023 HD
ATOM    126  H   UNL     1      -2.216  18.159  18.815  0.00  0.00    +0.023 HD
ENDBRANCH 121 123
BRANCH 121 127
ATOM    127  C   UNL     1      -2.159  15.389  19.846  0.00  0.00    +0.064 C 
ATOM    128  H   UNL     1      -1.670  16.021  20.598  0.00  0.00    +0.060 HD
BRANCH 127 129
ATOM    129  C   UNL     1      -1.035  14.792  18.950  0.00  0.00    -0.017 C 
ATOM    130  H   UNL     1      -1.000  13.707  19.085  0.00  0.00    +0.032 HD
BRANCH 129 131
ATOM    131  C   UNL     1      -1.282  15.086  17.467  0.00  0.00    -0.060 C 
ATOM    132  H   UNL     1      -1.827  14.280  16.969  0.00  0.00    +0.023 HD
ATOM    133  H   UNL     1      -1.857  16.011  17.337  0.00  0.00    +0.023 HD
ATOM    134  H   UNL     1      -0.334  15.201  16.931  0.00  0.00    +0.023 HD
ENDBRANCH 129 131
BRANCH 129 135
ATOM    135  C   UNL     1       0.378  15.324  19.306  0.00  0.00    -0.046 C 
ATOM    136  H   UNL     1       1.040  15.103  18.460  0.00  0.00    +0.027 HD
ATOM    137  H   UNL     1       0.361  16.416  19.405  0.00  0.00    +0.027 HD
BRANCH 135 138
ATOM    138  C   UNL     1       0.985  14.711  20.574  0.00  0.00    -0.026 C 
ATOM    139  H   UNL     1       1.044  15.469  21.361  0.00  0.00    +0.029 HD
ATOM    140  H   UNL     1       0.320  13.920  20.942  0.00  0.00    +0.029 HD
BRANCH 138 143
ATOM    141  C   UNL     1       3.467  15.028  22.330  0.00  0.00    +0.059 C 
ATOM    142  O   UNL     1       3.084  13.876  21.570  0.00  0.00    -0.373 OA
ATOM    143  C   UNL     1       2.402  14.158  20.343  0.00  0.00    +0.061 C 
ATOM    144  C   UNL     1       3.258  15.070  19.461  0.00  0.00    -0.000 C 
ATOM    145  C   UNL     1       3.689  16.334  20.202  0.00  0.00    +0.063 C 
ATOM    146  C   UNL     1       4.368  15.944  21.513  0.00  0.00    -0.000 C 
ATOM    147  H   UNL     1       2.565  15.561  22.650  0.00  0.00    +0.059 HD
ATOM    148  H   UNL     1       2.298  13.193  19.829  0.00  0.00    +0.060 HD
ATOM    149  H   UNL     1       4.159  14.520  19.153  0.00  0.00    +0.032 HD
ATOM    150  H   UNL     1       2.732  15.326  18.535  0.00  0.00    +0.032 HD
ATOM    151  H   UNL     1       2.807  16.954  20.402  0.00  0.00    +0.060 HD
ATOM    152  H   UNL     1       4.633  16.835  22.095  0.00  0.00    +0.032 HD
ATOM    153  H   UNL     1       5.316  15.437  21.280  0.00  0.00    +0.032 HD
BRANCH 141 154
ATOM    154  C   UNL     1       4.179  14.528  23.577  0.00  0.00    -0.039 C 
ATOM    155  H   UNL     1       4.008  13.459  23.737  0.00  0.00    +0.025 HD
ATOM    156  H   UNL     1       5.259  14.701  23.497  0.00  0.00    +0.025 HD
ATOM    157  H   UNL     1       3.842  15.075  24.465  0.00  0.00    +0.025 HD
ENDBRANCH 141 154
BRANCH 145 158
ATOM    158  O   UNL     1       4.568  17.057  19.335  0.00  0.00    -0.380 OA
BRANCH 158 159
ATOM    159  C   UNL     1       4.554  18.461  19.563  0.00  0.00    +0.037 C 
ATOM    160  H   UNL     1       4.210  18.635  20.585  0.00  0.00    +0.052 HD
ATOM    161  H   UNL     1       3.860  18.955  18.881  0.00  0.00    +0.052 HD
ATOM    162  H   UNL     1       5.555  18.892  19.461  0.00  0.00    +0.052 HD
ENDBRANCH 158 159
ENDBRANCH 145 158
ENDBRANCH 138 143
ENDBRANCH 135 138
ENDBRANCH 129 135
ENDBRANCH 127 129
BRANCH 127 163
ATOM    163  O   UNL     1      -2.805  14.336  20.559  0.00  0.00    -0.391 OA
ATOM    164  H   UNL     1      -2.240  14.086  21.308  0.00  0.00    +0.210 HD
ENDBRANCH 127 163
ENDBRANCH 121 127
ENDBRANCH   1 121
BRANCH  41 165
ATOM    165  O   UNL     1      -6.641  15.574  16.077  0.00  0.00    -0.391 OA
ATOM    166  H   UNL     1      -7.462  15.557  16.602  0.00  0.00    +0.210 HD
ENDBRANCH  41 165
BRANCH  39 167
ATOM    167  O   UNL     1      -7.780  13.780  17.835  0.00  0.00    -0.391 OA
ATOM    168  H   UNL     1      -7.442  14.252  18.626  0.00  0.00    +0.210 HD
ENDBRANCH  39 167
BRANCH  31 169
ATOM    169  O   UNL     1     -12.213  10.007  23.899  0.00  0.00    -0.391 OA
ATOM    170  H   UNL     1     -11.638   9.966  24.685  0.00  0.00    +0.210 HD
ENDBRANCH  31 169
BRANCH  22 171
ATOM    171  C   UNL     1     -11.850  15.530  17.142  0.00  0.00    +0.020 C 
ATOM    172  H   UNL     1     -11.133  15.087  16.448  0.00  0.00    +0.036 HD
BRANCH 171 173
ATOM    173  C   UNL     1     -12.017  16.972  16.623  0.00  0.00    -0.057 C 
ATOM    174  H   UNL     1     -11.496  17.685  17.272  0.00  0.00    +0.023 HD
ATOM    175  H   UNL     1     -11.595  17.080  15.616  0.00  0.00    +0.023 HD
ATOM    176  H   UNL     1     -13.071  17.256  16.558  0.00  0.00    +0.023 HD
ENDBRANCH 171 173
BRANCH 171 177
ATOM    177  C   UNL     1     -11.204  15.609  18.569  0.00  0.00    +0.064 C 
ATOM    178  H   UNL     1     -11.965  15.348  19.319  0.00  0.00    +0.060 HD
BRANCH 177 179
ATOM    179  O   UNL     1     -10.185  14.623  18.721  0.00  0.00    -0.391 OA
ATOM    180  H   UNL     1      -9.556  14.948  19.389  0.00  0.00    +0.210 HD
ENDBRANCH 177 179
BRANCH 177 181
ATOM    181  C   UNL     1     -10.631  17.021  18.940  0.00  0.00    -0.017 C 
ATOM    182  H   UNL     1     -10.605  17.627  18.023  0.00  0.00    +0.032 HD
BRANCH 181 183
ATOM    183  C   UNL     1     -11.520  17.727  19.978  0.00  0.00    -0.060 C 
ATOM    184  H   UNL     1     -12.220  18.396  19.468  0.00  0.00    +0.023 HD
ATOM    185  H   UNL     1     -10.947  18.318  20.697  0.00  0.00    +0.023 HD
ATOM    186  H   UNL     1     -12.086  17.013  20.578  0.00  0.00    +0.023 HD
ENDBRANCH 181 183
BRANCH 181 187
ATOM    187  C   UNL     1      -9.170  16.917  19.472  0.00  0.00    -0.046 C 
ATOM    188  H   UNL     1      -8.481  17.229  18.683  0.00  0.00    +0.027 HD
ATOM    189  H   UNL     1      -8.968  15.862  19.691  0.00  0.00    +0.027 HD
BRANCH 187 190
ATOM    190  C   UNL     1      -8.890  17.763  20.729  0.00  0.00    -0.026 C 
ATOM    191  H   UNL     1      -8.190  17.210  21.363  0.00  0.00    +0.029 HD
ATOM    192  H   UNL     1      -9.823  17.867  21.296  0.00  0.00    +0.029 HD
BRANCH 190 193
ATOM    193  C   UNL     1      -8.261  19.162  20.548  0.00  0.00    +0.061 C 
ATOM    194  O   UNL     1      -6.977  19.286  21.159  0.00  0.00    -0.373 OA
ATOM    195  C   UNL     1      -6.958  19.659  22.531  0.00  0.00    +0.059 C 
ATOM    196  C   UNL     1      -7.724  20.952  22.771  0.00  0.00    -0.000 C 
ATOM    197  C   UNL     1      -9.167  20.815  22.272  0.00  0.00    +0.063 C 
ATOM    198  C   UNL     1      -9.165  20.367  20.813  0.00  0.00    -0.000 C 
ATOM    199  H   UNL     1      -8.031  19.204  19.474  0.00  0.00    +0.060 HD
ATOM    200  H   UNL     1      -7.382  18.845  23.128  0.00  0.00    +0.059 HD
ATOM    201  H   UNL     1      -7.711  21.206  23.836  0.00  0.00    +0.032 HD
ATOM    202  H   UNL     1      -7.252  21.790  22.245  0.00  0.00    +0.032 HD
ATOM    203  H   UNL     1      -9.698  20.087  22.889  0.00  0.00    +0.060 HD
ATOM    204  H   UNL     1      -8.786  21.210  20.217  0.00  0.00    +0.032 HD
ATOM    205  H   UNL     1     -10.186  20.190  20.453  0.00  0.00    +0.032 HD
BRANCH 195 206
ATOM    206  C   UNL     1      -5.499  19.831  22.936  0.00  0.00    -0.039 C 
ATOM    207  H   UNL     1      -5.415  20.076  23.996  0.00  0.00    +0.025 HD
ATOM    208  H   UNL     1      -4.932  18.918  22.743  0.00  0.00    +0.025 HD
ATOM    209  H   UNL     1      -5.023  20.626  22.357  0.00  0.00    +0.025 HD
ENDBRANCH 195 206
BRANCH 197 210
ATOM    210  O   UNL     1      -9.896  22.048  22.330  0.00  0.00    -0.380 OA
BRANCH 210 211
ATOM    211  C   UNL     1      -9.618  22.938  21.261  0.00  0.00    +0.037 C 
ATOM    212  H   UNL     1     -10.549  23.323  20.843  0.00  0.00    +0.052 HD
ATOM    213  H   UNL     1      -9.056  23.787  21.660  0.00  0.00    +0.052 HD
ATOM    214  H   UNL     1      -9.021  22.455  20.485  0.00  0.00    +0.052 HD
ENDBRANCH 210 211
ENDBRANCH 197 210
ENDBRANCH 190 193
ENDBRANCH 187 190
ENDBRANCH 181 187
ENDBRANCH 177 181
ENDBRANCH 171 177
ENDBRANCH  22 171
BRANCH  20 215
ATOM    215  O   UNL     1     -14.094  14.064  19.979  0.00  0.00    -0.391 OA
ATOM    216  H   UNL     1     -13.454  13.490  19.524  0.00  0.00    +0.210 HD
ENDBRANCH  20 215
BRANCH  18 217
ATOM    217  O   UNL     1     -13.829  15.611  22.151  0.00  0.00    -0.391 OA
ATOM    218  H   UNL     1     -13.147  15.937  22.777  0.00  0.00    +0.210 HD
ENDBRANCH  18 217
BRANCH  10 219
ATOM    219  O   UNL     1      -8.502  19.968  27.632  0.00  0.00    -0.391 OA
ATOM    220  H   UNL     1      -9.199  20.636  27.506  0.00  0.00    +0.210 HD
ENDBRANCH  10 219
BRANCH  37 221
ATOM    221  O   UNL     1      -7.566   9.871  19.437  0.00  0.00    -0.379 OA
BRANCH 221 222
ATOM    222  C   UNL     1      -8.375   8.918  18.760  0.00  0.00    +0.037 C 
ATOM    223  H   UNL     1      -9.374   9.326  18.573  0.00  0.00    +0.052 HD
ATOM    224  H   UNL     1      -8.458   7.991  19.335  0.00  0.00    +0.052 HD
ATOM    225  H   UNL     1      -7.909   8.684  17.797  0.00  0.00    +0.052 HD
ENDBRANCH 221 222
ENDBRANCH  37 221
BRANCH  16 226
ATOM    226  O   UNL     1     -14.407  16.748  24.601  0.00  0.00    -0.379 OA
BRANCH 226 227
ATOM    227  C   UNL     1     -15.500  16.162  25.292  0.00  0.00    +0.037 C 
ATOM    228  H   UNL     1     -15.871  16.894  26.014  0.00  0.00    +0.052 HD
ATOM    229  H   UNL     1     -16.318  15.918  24.603  0.00  0.00    +0.052 HD
ATOM    230  H   UNL     1     -15.190  15.272  25.846  0.00  0.00    +0.052 HD
ENDBRANCH 226 227
ENDBRANCH  16 226
TORSDOF 40
ENDMDL
MODEL 10
REMARK VINA RESULT:      -5.1     11.016     18.580
REMARK  Name = Swinholide A_conf2
REMARK  40 active torsions:
REMARK  status: ('A' for Active; 'I' for Inactive)
REMARK    1  A    between atoms: C_1  and  C_2
REMARK    2  A    between atoms: C_4  and  C_10
REMARK    3  A    between atoms: C_6  and  O_8
REMARK    4  A    between atoms: O_8  and  C_9
REMARK    5  A    between atoms: C_10  and  C_11
REMARK    6  A    between atoms: C_11  and  C_12
REMARK    7  A    between atoms: C_12  and  C_13
REMARK    8  A    between atoms: C_12  and  C_98
REMARK    9  A    between atoms: C_13  and  O_14
REMARK   10  A    between atoms: C_13  and  C_15
REMARK   11  A    between atoms: C_15  and  C_16
REMARK   12  A    between atoms: C_15  and  C_97
REMARK   13  A    between atoms: C_22  and  C_96
REMARK   14  A    between atoms: C_25  and  O_95
REMARK   15  A    between atoms: C_31  and  O_90
REMARK   16  A    between atoms: C_32  and  C_89
REMARK   17  A    between atoms: C_33  and  O_88
REMARK   18  A    between atoms: C_35  and  O_87
REMARK   19  A    between atoms: C_36  and  C_86
REMARK   20  A    between atoms: C_37  and  C_69
REMARK   21  A    between atoms: C_43  and  C_68
REMARK   22  A    between atoms: C_46  and  O_67
REMARK   23  A    between atoms: C_52  and  O_62
REMARK   24  A    between atoms: C_53  and  C_61
REMARK   25  A    between atoms: C_54  and  O_60
REMARK   26  A    between atoms: C_56  and  O_59
REMARK   27  A    between atoms: C_57  and  C_58
REMARK   28  A    between atoms: O_62  and  C_63
REMARK   29  A    between atoms: C_69  and  C_70
REMARK   30  A    between atoms: C_69  and  C_85
REMARK   31  A    between atoms: C_70  and  O_71
REMARK   32  A    between atoms: C_70  and  C_72
REMARK   33  A    between atoms: C_72  and  C_73
REMARK   34  A    between atoms: C_72  and  C_84
REMARK   35  A    between atoms: C_73  and  C_74
REMARK   36  A    between atoms: C_74  and  C_75
REMARK   37  A    between atoms: C_77  and  C_83
REMARK   38  A    between atoms: C_79  and  O_81
REMARK   39  A    between atoms: O_81  and  C_82
REMARK   40  A    between atoms: O_90  and  C_91
REMARK                            x       y       z     vdW  Elec       q    Type
REMARK                         _______ _______ _______ _____ _____    ______ ____
ROOT
ATOM      1  C   UNL     1      -8.364  -0.553  15.891  0.00  0.00    +0.113 C 
ATOM      2  O   UNL     1      -8.502   0.697  15.166  0.00  0.00    -0.458 OA
ATOM      3  C   UNL     1      -9.724   0.947  14.637  0.00  0.00    +0.332 C 
ATOM      4  O   UNL     1     -10.722   0.255  14.734  0.00  0.00    -0.246 OA
ATOM      5  C   UNL     1      -9.653   2.205  13.861  0.00  0.00    +0.023 C 
ATOM      6  C   UNL     1     -10.776   2.705  13.321  0.00  0.00    -0.052 C 
ATOM      7  C   UNL     1     -10.871   3.880  12.463  0.00  0.00    -0.054 C 
ATOM      8  C   UNL     1     -10.047   4.939  12.590  0.00  0.00    -0.079 C 
ATOM      9  C   UNL     1     -10.112   6.221  11.799  0.00  0.00    -0.008 C 
ATOM     10  C   UNL     1      -8.896   6.462  10.881  0.00  0.00    +0.061 C 
ATOM     11  C   UNL     1      -8.873   5.509   9.675  0.00  0.00    +0.003 C 
ATOM     12  C   UNL     1      -7.810   5.853   8.609  0.00  0.00    +0.080 C 
ATOM     13  O   UNL     1      -7.416   4.665   7.886  0.00  0.00    -0.369 OA
ATOM     14  C   UNL     1      -8.353   4.261   6.869  0.00  0.00    +0.065 C 
ATOM     15  C   UNL     1      -7.849   2.918   6.310  0.00  0.00    +0.000 C 
ATOM     16  C   UNL     1      -8.656   2.366   5.113  0.00  0.00    +0.066 C 
ATOM     17  C   UNL     1      -8.293   0.886   4.748  0.00  0.00    +0.009 C 
ATOM     18  C   UNL     1      -8.463  -0.114   5.919  0.00  0.00    +0.063 C 
ATOM     19  C   UNL     1      -8.182  -1.585   5.521  0.00  0.00    -0.000 C 
ATOM     20  C   UNL     1      -8.548  -2.520   6.684  0.00  0.00    +0.064 C 
ATOM     21  C   UNL     1      -7.825  -3.892   6.651  0.00  0.00    +0.020 C 
ATOM     22  C   UNL     1      -7.899  -4.642   8.019  0.00  0.00    +0.113 C 
ATOM     23  O   UNL     1      -9.320  -4.858   8.242  0.00  0.00    -0.458 OA
ATOM     24  C   UNL     1      -9.765  -6.049   8.697  0.00  0.00    +0.332 C 
ATOM     25  O   UNL     1      -9.075  -6.980   9.115  0.00  0.00    -0.246 OA
ATOM     26  C   UNL     1     -11.242  -6.117   8.647  0.00  0.00    +0.023 C 
ATOM     27  C   UNL     1     -12.027  -5.068   8.325  0.00  0.00    -0.052 C 
ATOM     28  C   UNL     1     -13.485  -5.029   8.264  0.00  0.00    -0.054 C 
ATOM     29  C   UNL     1     -14.077  -3.841   8.019  0.00  0.00    -0.079 C 
ATOM     30  C   UNL     1     -15.544  -3.518   7.989  0.00  0.00    -0.008 C 
ATOM     31  C   UNL     1     -15.973  -2.271   8.787  0.00  0.00    +0.061 C 
ATOM     32  C   UNL     1     -15.764  -2.318  10.315  0.00  0.00    +0.003 C 
ATOM     33  C   UNL     1     -14.425  -1.884  10.945  0.00  0.00    +0.080 C 
ATOM     34  O   UNL     1     -13.410  -2.855  10.674  0.00  0.00    -0.369 OA
ATOM     35  C   UNL     1     -12.088  -2.485  11.077  0.00  0.00    +0.065 C 
ATOM     36  C   UNL     1     -11.910  -2.396  12.603  0.00  0.00    +0.000 C 
ATOM     37  C   UNL     1     -12.008  -3.787  13.275  0.00  0.00    +0.066 C 
ATOM     38  C   UNL     1     -11.234  -3.812  14.624  0.00  0.00    +0.009 C 
ATOM     39  C   UNL     1      -9.708  -4.064  14.438  0.00  0.00    +0.063 C 
ATOM     40  C   UNL     1      -8.892  -3.664  15.696  0.00  0.00    -0.000 C 
ATOM     41  C   UNL     1      -7.529  -2.995  15.474  0.00  0.00    +0.064 C 
ATOM     42  C   UNL     1      -7.567  -1.530  14.971  0.00  0.00    +0.020 C 
ATOM     43  C   UNL     1     -11.647  -1.210  10.338  0.00  0.00    -0.008 C 
ATOM     44  C   UNL     1     -12.726  -0.172  10.278  0.00  0.00    -0.083 C 
ATOM     45  C   UNL     1     -13.990  -0.491  10.569  0.00  0.00    -0.059 C 
ATOM     46  C   UNL     1      -8.458   5.341   5.781  0.00  0.00    -0.008 C 
ATOM     47  C   UNL     1      -8.569   6.713   6.373  0.00  0.00    -0.083 C 
ATOM     48  C   UNL     1      -8.255   6.936   7.654  0.00  0.00    -0.059 C 
ATOM     49  H   UNL     1      -9.347  -1.006  16.011  0.00  0.00    +0.074 HD
ATOM     50  H   UNL     1      -8.680   2.655  13.734  0.00  0.00    +0.069 HD
ATOM     51  H   UNL     1     -11.715   2.175  13.478  0.00  0.00    +0.062 HD
ATOM     52  H   UNL     1      -9.279   4.931  13.363  0.00  0.00    +0.058 HD
ATOM     53  H   UNL     1     -10.181   7.043  12.522  0.00  0.00    +0.033 HD
ATOM     54  H   UNL     1     -11.030   6.303  11.210  0.00  0.00    +0.033 HD
ATOM     55  H   UNL     1      -7.974   6.337  11.454  0.00  0.00    +0.060 HD
ATOM     56  H   UNL     1      -8.707   4.486  10.031  0.00  0.00    +0.032 HD
ATOM     57  H   UNL     1      -9.859   5.500   9.196  0.00  0.00    +0.032 HD
ATOM     58  H   UNL     1      -6.897   6.191   9.109  0.00  0.00    +0.064 HD
ATOM     59  H   UNL     1      -9.330   4.097   7.340  0.00  0.00    +0.060 HD
ATOM     60  H   UNL     1      -6.794   3.006   6.027  0.00  0.00    +0.032 HD
ATOM     61  H   UNL     1      -7.873   2.211   7.148  0.00  0.00    +0.032 HD
ATOM     62  H   UNL     1      -8.419   2.992   4.240  0.00  0.00    +0.060 HD
ATOM     63  H   UNL     1      -8.990   0.573   3.963  0.00  0.00    +0.035 HD
ATOM     64  H   UNL     1      -7.755   0.133   6.719  0.00  0.00    +0.060 HD
ATOM     65  H   UNL     1      -7.120  -1.698   5.268  0.00  0.00    +0.032 HD
ATOM     66  H   UNL     1      -8.773  -1.843   4.638  0.00  0.00    +0.032 HD
ATOM     67  H   UNL     1      -8.281  -2.001   7.604  0.00  0.00    +0.060 HD
ATOM     68  H   UNL     1      -6.775  -3.692   6.416  0.00  0.00    +0.036 HD
ATOM     69  H   UNL     1      -7.391  -5.609   7.919  0.00  0.00    +0.074 HD
ATOM     70  H   UNL     1     -11.650  -7.083   8.920  0.00  0.00    +0.069 HD
ATOM     71  H   UNL     1     -11.541  -4.114   8.116  0.00  0.00    +0.062 HD
ATOM     72  H   UNL     1     -13.437  -2.969   7.863  0.00  0.00    +0.058 HD
ATOM     73  H   UNL     1     -15.809  -3.358   6.935  0.00  0.00    +0.033 HD
ATOM     74  H   UNL     1     -16.145  -4.359   8.339  0.00  0.00    +0.033 HD
ATOM     75  H   UNL     1     -17.061  -2.227   8.652  0.00  0.00    +0.060 HD
ATOM     76  H   UNL     1     -15.994  -3.335  10.660  0.00  0.00    +0.032 HD
ATOM     77  H   UNL     1     -16.527  -1.667  10.752  0.00  0.00    +0.032 HD
ATOM     78  H   UNL     1     -14.598  -1.894  12.026  0.00  0.00    +0.064 HD
ATOM     79  H   UNL     1     -11.427  -3.286  10.719  0.00  0.00    +0.060 HD
ATOM     80  H   UNL     1     -12.652  -1.722  13.044  0.00  0.00    +0.032 HD
ATOM     81  H   UNL     1     -10.933  -1.939  12.799  0.00  0.00    +0.032 HD
ATOM     82  H   UNL     1     -11.594  -4.563  12.619  0.00  0.00    +0.060 HD
ATOM     83  H   UNL     1     -11.377  -2.830  15.094  0.00  0.00    +0.035 HD
ATOM     84  H   UNL     1      -9.561  -5.139  14.269  0.00  0.00    +0.060 HD
ATOM     85  H   UNL     1      -8.719  -4.595  16.258  0.00  0.00    +0.032 HD
ATOM     86  H   UNL     1      -9.501  -3.057  16.368  0.00  0.00    +0.032 HD
ATOM     87  H   UNL     1      -6.966  -3.016  16.412  0.00  0.00    +0.060 HD
ATOM     88  H   UNL     1      -8.084  -1.510  14.002  0.00  0.00    +0.036 HD
ATOM     89  H   UNL     1     -10.747  -0.786  10.798  0.00  0.00    +0.033 HD
ATOM     90  H   UNL     1     -11.397  -1.463   9.299  0.00  0.00    +0.033 HD
ATOM     91  H   UNL     1     -12.463   0.829   9.952  0.00  0.00    +0.057 HD
ATOM     92  H   UNL     1     -14.764   0.275  10.517  0.00  0.00    +0.059 HD
ATOM     93  H   UNL     1      -7.578   5.320   5.130  0.00  0.00    +0.033 HD
ATOM     94  H   UNL     1      -9.335   5.150   5.153  0.00  0.00    +0.033 HD
ATOM     95  H   UNL     1      -8.885   7.525   5.732  0.00  0.00    +0.057 HD
ATOM     96  H   UNL     1      -8.339   7.943   8.054  0.00  0.00    +0.059 HD
ENDROOT
BRANCH  28  97
ATOM     97  C   UNL     1     -14.233  -6.318   8.498  0.00  0.00    -0.040 C 
ATOM     98  H   UNL     1     -13.530  -7.135   8.691  0.00  0.00    +0.028 HD
ATOM     99  H   UNL     1     -14.830  -6.640   7.640  0.00  0.00    +0.028 HD
ATOM    100  H   UNL     1     -14.912  -6.225   9.352  0.00  0.00    +0.028 HD
ENDBRANCH  28  97
BRANCH  21 101
ATOM    101  C   UNL     1      -8.345  -4.802   5.530  0.00  0.00    -0.057 C 
ATOM    102  H   UNL     1      -9.390  -4.587   5.298  0.00  0.00    +0.023 HD
ATOM    103  H   UNL     1      -7.765  -4.647   4.618  0.00  0.00    +0.023 HD
ATOM    104  H   UNL     1      -8.272  -5.864   5.786  0.00  0.00    +0.023 HD
ENDBRANCH  21 101
BRANCH  42 105
ATOM    105  C   UNL     1      -6.149  -1.046  14.620  0.00  0.00    -0.057 C 
ATOM    106  H   UNL     1      -5.393  -1.547  15.227  0.00  0.00    +0.023 HD
ATOM    107  H   UNL     1      -6.047   0.036  14.728  0.00  0.00    +0.023 HD
ATOM    108  H   UNL     1      -5.919  -1.292  13.580  0.00  0.00    +0.023 HD
ENDBRANCH  42 105
BRANCH  17 109
ATOM    109  C   UNL     1      -6.885   0.811   4.147  0.00  0.00    -0.058 C 
ATOM    110  H   UNL     1      -6.519   1.797   3.864  0.00  0.00    +0.023 HD
ATOM    111  H   UNL     1      -6.890   0.202   3.238  0.00  0.00    +0.023 HD
ATOM    112  H   UNL     1      -6.173   0.366   4.842  0.00  0.00    +0.023 HD
ENDBRANCH  17 109
BRANCH  38 113
ATOM    113  C   UNL     1     -11.785  -4.853  15.615  0.00  0.00    -0.058 C 
ATOM    114  H   UNL     1     -10.991  -5.325  16.206  0.00  0.00    +0.023 HD
ATOM    115  H   UNL     1     -12.496  -4.387  16.315  0.00  0.00    +0.023 HD
ATOM    116  H   UNL     1     -12.313  -5.657  15.096  0.00  0.00    +0.023 HD
ENDBRANCH  38 113
BRANCH   7 117
ATOM    117  C   UNL     1     -11.989   3.823  11.454  0.00  0.00    -0.040 C 
ATOM    118  H   UNL     1     -12.447   2.830  11.451  0.00  0.00    +0.028 HD
ATOM    119  H   UNL     1     -11.625   4.029  10.443  0.00  0.00    +0.028 HD
ATOM    120  H   UNL     1     -12.767   4.567  11.661  0.00  0.00    +0.028 HD
ENDBRANCH   7 117
BRANCH   1 121
ATOM    121  C   UNL     1      -7.829  -0.288  17.328  0.00  0.00    +0.020 C 
ATOM    122  H   UNL     1      -6.881   0.256  17.256  0.00  0.00    +0.036 HD
BRANCH 121 123
ATOM    123  C   UNL     1      -8.761   0.587  18.188  0.00  0.00    -0.057 C 
ATOM    124  H   UNL     1      -8.218   1.149  18.952  0.00  0.00    +0.023 HD
ATOM    125  H   UNL     1      -9.314   1.300  17.570  0.00  0.00    +0.023 HD
ATOM    126  H   UNL     1      -9.527  -0.019  18.676  0.00  0.00    +0.023 HD
ENDBRANCH 121 123
BRANCH 121 127
ATOM    127  C   UNL     1      -7.548  -1.610  18.120  0.00  0.00    +0.064 C 
ATOM    128  H   UNL     1      -7.842  -2.460  17.491  0.00  0.00    +0.060 HD
BRANCH 127 129
ATOM    129  C   UNL     1      -8.304  -1.761  19.472  0.00  0.00    -0.017 C 
ATOM    130  H   UNL     1      -8.802  -0.819  19.718  0.00  0.00    +0.032 HD
BRANCH 129 131
ATOM    131  C   UNL     1      -9.365  -2.864  19.402  0.00  0.00    -0.060 C 
ATOM    132  H   UNL     1      -9.339  -3.523  20.274  0.00  0.00    +0.023 HD
ATOM    133  H   UNL     1     -10.373  -2.440  19.331  0.00  0.00    +0.023 HD
ATOM    134  H   UNL     1      -9.205  -3.500  18.524  0.00  0.00    +0.023 HD
ENDBRANCH 129 131
BRANCH 129 135
ATOM    135  C   UNL     1      -7.367  -2.086  20.664  0.00  0.00    -0.046 C 
ATOM    136  H   UNL     1      -6.337  -1.888  20.343  0.00  0.00    +0.027 HD
ATOM    137  H   UNL     1      -7.564  -1.406  21.502  0.00  0.00    +0.027 HD
BRANCH 135 138
ATOM    138  C   UNL     1      -7.451  -3.536  21.160  0.00  0.00    -0.026 C 
ATOM    139  H   UNL     1      -7.473  -3.553  22.254  0.00  0.00    +0.029 HD
ATOM    140  H   UNL     1      -8.395  -3.976  20.815  0.00  0.00    +0.029 HD
BRANCH 138 143
ATOM    141  C   UNL     1      -7.409  -5.803  19.112  0.00  0.00    +0.059 C 
ATOM    142  O   UNL     1      -6.392  -4.821  19.339  0.00  0.00    -0.373 OA
ATOM    143  C   UNL     1      -6.258  -4.389  20.697  0.00  0.00    +0.061 C 
ATOM    144  C   UNL     1      -5.998  -5.589  21.609  0.00  0.00    -0.000 C 
ATOM    145  C   UNL     1      -7.058  -6.674  21.435  0.00  0.00    +0.063 C 
ATOM    146  C   UNL     1      -7.165  -7.045  19.958  0.00  0.00    -0.000 C 
ATOM    147  H   UNL     1      -8.386  -5.366  19.344  0.00  0.00    +0.059 HD
ATOM    148  H   UNL     1      -5.367  -3.748  20.721  0.00  0.00    +0.060 HD
ATOM    149  H   UNL     1      -5.016  -6.017  21.360  0.00  0.00    +0.032 HD
ATOM    150  H   UNL     1      -5.932  -5.279  22.658  0.00  0.00    +0.032 HD
ATOM    151  H   UNL     1      -8.022  -6.300  21.802  0.00  0.00    +0.060 HD
ATOM    152  H   UNL     1      -7.964  -7.779  19.796  0.00  0.00    +0.032 HD
ATOM    153  H   UNL     1      -6.230  -7.537  19.651  0.00  0.00    +0.032 HD
BRANCH 141 154
ATOM    154  C   UNL     1      -7.389  -6.137  17.628  0.00  0.00    -0.039 C 
ATOM    155  H   UNL     1      -7.798  -7.134  17.435  0.00  0.00    +0.025 HD
ATOM    156  H   UNL     1      -7.974  -5.403  17.061  0.00  0.00    +0.025 HD
ATOM    157  H   UNL     1      -6.368  -6.093  17.232  0.00  0.00    +0.025 HD
ENDBRANCH 141 154
BRANCH 145 158
ATOM    158  O   UNL     1      -6.665  -7.788  22.243  0.00  0.00    -0.380 OA
BRANCH 158 159
ATOM    159  C   UNL     1      -5.842  -7.424  23.344  0.00  0.00    +0.037 C 
ATOM    160  H   UNL     1      -6.483  -7.308  24.221  0.00  0.00    +0.052 HD
ATOM    161  H   UNL     1      -5.347  -6.470  23.155  0.00  0.00    +0.052 HD
ATOM    162  H   UNL     1      -5.100  -8.198  23.562  0.00  0.00    +0.052 HD
ENDBRANCH 158 159
ENDBRANCH 145 158
ENDBRANCH 138 143
ENDBRANCH 135 138
ENDBRANCH 129 135
ENDBRANCH 127 129
BRANCH 127 163
ATOM    163  O   UNL     1      -6.146  -1.738  18.345  0.00  0.00    -0.391 OA
ATOM    164  H   UNL     1      -5.736  -0.869  18.206  0.00  0.00    +0.210 HD
ENDBRANCH 127 163
ENDBRANCH 121 127
ENDBRANCH   1 121
BRANCH  41 165
ATOM    165  O   UNL     1      -6.798  -3.797  14.533  0.00  0.00    -0.391 OA
ATOM    166  H   UNL     1      -6.463  -3.197  13.841  0.00  0.00    +0.210 HD
ENDBRANCH  41 165
BRANCH  39 167
ATOM    167  O   UNL     1      -9.221  -3.436  13.267  0.00  0.00    -0.391 OA
ATOM    168  H   UNL     1      -9.944  -2.871  12.919  0.00  0.00    +0.210 HD
ENDBRANCH  39 167
BRANCH  31 169
ATOM    169  O   UNL     1     -15.502  -1.055   8.214  0.00  0.00    -0.391 OA
ATOM    170  H   UNL     1     -15.820  -1.002   7.294  0.00  0.00    +0.210 HD
ENDBRANCH  31 169
BRANCH  22 171
ATOM    171  C   UNL     1      -7.298  -3.871   9.240  0.00  0.00    +0.020 C 
ATOM    172  H   UNL     1      -7.020  -2.877   8.885  0.00  0.00    +0.036 HD
BRANCH 171 173
ATOM    173  C   UNL     1      -8.374  -3.590  10.306  0.00  0.00    -0.057 C 
ATOM    174  H   UNL     1      -8.087  -4.013  11.275  0.00  0.00    +0.023 HD
ATOM    175  H   UNL     1      -8.514  -2.511  10.451  0.00  0.00    +0.023 HD
ATOM    176  H   UNL     1      -9.347  -3.998  10.014  0.00  0.00    +0.023 HD
ENDBRANCH 171 173
BRANCH 171 177
ATOM    177  C   UNL     1      -6.069  -4.522   9.965  0.00  0.00    +0.064 C 
ATOM    178  H   UNL     1      -6.352  -5.526  10.314  0.00  0.00    +0.060 HD
BRANCH 177 179
ATOM    179  O   UNL     1      -4.997  -4.741   9.050  0.00  0.00    -0.391 OA
ATOM    180  H   UNL     1      -4.348  -5.321   9.486  0.00  0.00    +0.210 HD
ENDBRANCH 177 179
BRANCH 177 181
ATOM    181  C   UNL     1      -5.548  -3.713  11.203  0.00  0.00    -0.017 C 
ATOM    182  H   UNL     1      -6.421  -3.303  11.730  0.00  0.00    +0.032 HD
BRANCH 181 183
ATOM    183  C   UNL     1      -4.763  -4.618  12.168  0.00  0.00    -0.060 C 
ATOM    184  H   UNL     1      -4.369  -4.019  12.995  0.00  0.00    +0.023 HD
ATOM    185  H   UNL     1      -3.925  -5.128  11.686  0.00  0.00    +0.023 HD
ATOM    186  H   UNL     1      -5.389  -5.414  12.576  0.00  0.00    +0.023 HD
ENDBRANCH 181 183
BRANCH 181 187
ATOM    187  C   UNL     1      -4.663  -2.510  10.761  0.00  0.00    -0.046 C 
ATOM    188  H   UNL     1      -4.485  -2.574   9.685  0.00  0.00    +0.027 HD
ATOM    189  H   UNL     1      -3.692  -2.605  11.264  0.00  0.00    +0.027 HD
BRANCH 187 190
ATOM    190  C   UNL     1      -5.267  -1.127  11.076  0.00  0.00    -0.026 C 
ATOM    191  H   UNL     1      -4.465  -0.481  11.445  0.00  0.00    +0.029 HD
ATOM    192  H   UNL     1      -5.991  -1.239  11.892  0.00  0.00    +0.029 HD
BRANCH 190 193
ATOM    193  C   UNL     1      -5.932  -0.338   9.927  0.00  0.00    +0.061 C 
ATOM    194  O   UNL     1      -5.229   0.856   9.583  0.00  0.00    -0.373 OA
ATOM    195  C   UNL     1      -5.556   2.023  10.327  0.00  0.00    +0.059 C 
ATOM    196  C   UNL     1      -7.048   2.320  10.277  0.00  0.00    -0.000 C 
ATOM    197  C   UNL     1      -7.846   1.117  10.790  0.00  0.00    +0.063 C 
ATOM    198  C   UNL     1      -7.445  -0.135  10.013  0.00  0.00    -0.000 C 
ATOM    199  H   UNL     1      -5.776  -0.980   9.049  0.00  0.00    +0.060 HD
ATOM    200  H   UNL     1      -5.224   1.892  11.362  0.00  0.00    +0.059 HD
ATOM    201  H   UNL     1      -7.275   3.211  10.872  0.00  0.00    +0.032 HD
ATOM    202  H   UNL     1      -7.370   2.540   9.253  0.00  0.00    +0.032 HD
ATOM    203  H   UNL     1      -7.650   0.977  11.856  0.00  0.00    +0.060 HD
ATOM    204  H   UNL     1      -7.827  -0.015   8.989  0.00  0.00    +0.032 HD
ATOM    205  H   UNL     1      -7.949  -1.024  10.411  0.00  0.00    +0.032 HD
BRANCH 195 206
ATOM    206  C   UNL     1      -4.771   3.182   9.723  0.00  0.00    -0.039 C 
ATOM    207  H   UNL     1      -4.862   4.078  10.339  0.00  0.00    +0.025 HD
ATOM    208  H   UNL     1      -3.713   2.928   9.632  0.00  0.00    +0.025 HD
ATOM    209  H   UNL     1      -5.127   3.414   8.716  0.00  0.00    +0.025 HD
ENDBRANCH 195 206
BRANCH 197 210
ATOM    210  O   UNL     1      -9.261   1.275  10.626  0.00  0.00    -0.380 OA
BRANCH 210 211
ATOM    211  C   UNL     1      -9.641   1.867   9.394  0.00  0.00    +0.037 C 
ATOM    212  H   UNL     1     -10.714   1.752   9.239  0.00  0.00    +0.052 HD
ATOM    213  H   UNL     1      -9.426   2.938   9.448  0.00  0.00    +0.052 HD
ATOM    214  H   UNL     1      -9.084   1.439   8.558  0.00  0.00    +0.052 HD
ENDBRANCH 210 211
ENDBRANCH 197 210
ENDBRANCH 190 193
ENDBRANCH 187 190
ENDBRANCH 181 187
ENDBRANCH 177 181
ENDBRANCH 171 177
ENDBRANCH  22 171
BRANCH  20 215
ATOM    215  O   UNL     1      -9.977  -2.637   6.684  0.00  0.00    -0.391 OA
ATOM    216  H   UNL     1     -10.215  -3.578   6.744  0.00  0.00    +0.210 HD
ENDBRANCH  20 215
BRANCH  18 217
ATOM    217  O   UNL     1      -9.771   0.026   6.464  0.00  0.00    -0.391 OA
ATOM    218  H   UNL     1      -9.901   0.940   6.798  0.00  0.00    +0.210 HD
ENDBRANCH  18 217
BRANCH  10 219
ATOM    219  O   UNL     1      -8.939   7.824  10.451  0.00  0.00    -0.391 OA
ATOM    220  H   UNL     1      -8.388   7.902   9.652  0.00  0.00    +0.210 HD
ENDBRANCH  10 219
BRANCH  37 221
ATOM    221  O   UNL     1     -13.400  -4.034  13.527  0.00  0.00    -0.379 OA
BRANCH 221 222
ATOM    222  C   UNL     1     -14.031  -2.953  14.200  0.00  0.00    +0.037 C 
ATOM    223  H   UNL     1     -14.867  -3.315  14.808  0.00  0.00    +0.052 HD
ATOM    224  H   UNL     1     -14.390  -2.201  13.491  0.00  0.00    +0.052 HD
ATOM    225  H   UNL     1     -13.300  -2.478  14.864  0.00  0.00    +0.052 HD
ENDBRANCH 221 222
ENDBRANCH  37 221
BRANCH  16 226
ATOM    226  O   UNL     1     -10.047   2.560   5.402  0.00  0.00    -0.379 OA
BRANCH 226 227
ATOM    227  C   UNL     1     -10.887   2.640   4.260  0.00  0.00    +0.037 C 
ATOM    228  H   UNL     1     -11.482   3.553   4.346  0.00  0.00    +0.052 HD
ATOM    229  H   UNL     1     -10.297   2.704   3.339  0.00  0.00    +0.052 HD
ATOM    230  H   UNL     1     -11.577   1.793   4.214  0.00  0.00    +0.052 HD
ENDBRANCH 226 227
ENDBRANCH  16 226
TORSDOF 40
ENDMDL
