MODEL 1
REMARK VINA RESULT:      -4.9      0.000      0.000
REMARK  Name = 2a_conf1
REMARK  32 active torsions:
REMARK  status: ('A' for Active; 'I' for Inactive)
REMARK    1  A    between atoms: C_2  and  C_3
REMARK    2  A    between atoms: C_2  and  O_8
REMARK    3  A    between atoms: O_8  and  C_9
REMARK    4  A    between atoms: C_9  and  C_10
REMARK    5  A    between atoms: C_9  and  C_29
REMARK    6  A    between atoms: C_10  and  C_11
REMARK    7  A    between atoms: C_11  and  C_12
REMARK    8  A    between atoms: C_12  and  C_13
REMARK    9  A    between atoms: C_12  and  C_14
REMARK   10  A    between atoms: C_14  and  O_15
REMARK   11  A    between atoms: C_14  and  C_17
REMARK   12  A    between atoms: O_15  and  C_16
REMARK   13  A    between atoms: C_17  and  C_18
REMARK   14  A    between atoms: C_18  and  O_19
REMARK   15  A    between atoms: C_18  and  C_26
REMARK   16  A    between atoms: O_19  and  C_20
REMARK   17  A    between atoms: C_20  and  C_21
REMARK   18  A    between atoms: C_21  and  C_22
REMARK   19  A    between atoms: C_22  and  C_23
REMARK   20  A    between atoms: C_23  and  N_24
REMARK   21  A    between atoms: C_26  and  C_27
REMARK   22  A    between atoms: C_26  and  C_28
REMARK   23  A    between atoms: C_29  and  C_30
REMARK   24  A    between atoms: C_29  and  C_31
REMARK   25  A    between atoms: C_31  and  O_32
REMARK   26  A    between atoms: C_31  and  C_34
REMARK   27  A    between atoms: O_32  and  C_33
REMARK   28  A    between atoms: C_34  and  C_35
REMARK   29  A    between atoms: C_34  and  C_36
REMARK   30  A    between atoms: C_37  and  N_38
REMARK   31  A    between atoms: N_38  and  C_39
REMARK   32  A    between atoms: C_39  and  C_40
REMARK                            x       y       z     vdW  Elec       q    Type
REMARK                         _______ _______ _______ _____ _____    ______ ____
ROOT
ATOM      1  C   UNL     1     149.925 165.628 191.102  0.00  0.00    +0.108 C 
ATOM      2  H   UNL     1     149.422 164.676 190.890  0.00  0.00    +0.074 HD
ENDROOT
BRANCH   1   3
ATOM      3  C   UNL     1     150.931 165.889 189.964  0.00  0.00    -0.015 C 
ATOM      4  H   UNL     1     150.898 165.081 189.226  0.00  0.00    +0.030 HD
ATOM      5  H   UNL     1     150.656 166.816 189.459  0.00  0.00    +0.030 HD
BRANCH   3   6
ATOM      6  C   UNL     1     152.370 166.020 190.478  0.00  0.00    -0.045 C 
ATOM      7  H   UNL     1     152.622 167.073 190.638  0.00  0.00    +0.027 HD
ATOM      8  H   UNL     1     152.415 165.548 191.469  0.00  0.00    +0.027 HD
BRANCH   6   9
ATOM      9  C   UNL     1     153.424 165.346 189.565  0.00  0.00    -0.017 C 
ATOM     10  H   UNL     1     153.891 164.548 190.154  0.00  0.00    +0.032 HD
BRANCH   9  11
ATOM     11  C   UNL     1     154.537 166.359 189.251  0.00  0.00    -0.060 C 
ATOM     12  H   UNL     1     155.362 165.879 188.711  0.00  0.00    +0.023 HD
ATOM     13  H   UNL     1     154.171 167.196 188.647  0.00  0.00    +0.023 HD
ATOM     14  H   UNL     1     154.956 166.774 190.174  0.00  0.00    +0.023 HD
ENDBRANCH   9  11
BRANCH   9  15
ATOM     15  C   UNL     1     152.877 164.716 188.246  0.00  0.00    +0.064 C 
ATOM     16  H   UNL     1     151.783 164.732 188.300  0.00  0.00    +0.060 HD
BRANCH  15  17
ATOM     17  C   UNL     1     153.335 163.255 188.041  0.00  0.00    +0.011 C 
ATOM     18  H   UNL     1     153.475 163.087 186.965  0.00  0.00    +0.033 HD
ATOM     19  H   UNL     1     154.308 163.097 188.519  0.00  0.00    +0.033 HD
BRANCH  17  20
ATOM     20  C   UNL     1     152.369 162.162 188.558  0.00  0.00    +0.108 C 
ATOM     21  H   UNL     1     152.364 161.346 187.824  0.00  0.00    +0.074 HD
BRANCH  20  22
ATOM     22  C   UNL     1     152.752 161.550 189.929  0.00  0.00    -0.009 C 
ATOM     23  H   UNL     1     153.833 161.656 190.084  0.00  0.00    +0.033 HD
BRANCH  22  24
ATOM     24  C   UNL     1     152.078 162.317 191.077  0.00  0.00    -0.059 C 
ATOM     25  H   UNL     1     152.476 162.000 192.048  0.00  0.00    +0.023 HD
ATOM     26  H   UNL     1     150.997 162.145 191.083  0.00  0.00    +0.023 HD
ATOM     27  H   UNL     1     152.253 163.393 190.987  0.00  0.00    +0.023 HD
ENDBRANCH  22  24
BRANCH  22  28
ATOM     28  C   UNL     1     152.382 160.069 190.035  0.00  0.00    -0.059 C 
ATOM     29  H   UNL     1     152.945 159.579 190.840  0.00  0.00    +0.023 HD
ATOM     30  H   UNL     1     151.316 159.928 190.233  0.00  0.00    +0.023 HD
ATOM     31  H   UNL     1     152.605 159.545 189.099  0.00  0.00    +0.023 HD
ENDBRANCH  22  28
ENDBRANCH  20  22
BRANCH  20  32
ATOM     32  O   UNL     1     151.023 162.676 188.671  0.00  0.00    -0.461 OA
BRANCH  32  33
ATOM     33  C   UNL     1     150.049 161.989 188.012  0.00  0.00    +0.307 C 
ATOM     34  O   UNL     1     150.241 161.113 187.180  0.00  0.00    -0.251 OA
BRANCH  33  35
ATOM     35  C   UNL     1     148.690 162.476 188.456  0.00  0.00    +0.046 C 
ATOM     36  H   UNL     1     147.932 161.862 187.962  0.00  0.00    +0.038 HD
ATOM     37  H   UNL     1     148.570 163.515 188.130  0.00  0.00    +0.038 HD
BRANCH  35  38
ATOM     38  C   UNL     1     148.553 162.407 189.978  0.00  0.00    -0.031 C 
ATOM     39  H   UNL     1     149.357 162.985 190.454  0.00  0.00    +0.028 HD
ATOM     40  H   UNL     1     147.615 162.891 190.276  0.00  0.00    +0.028 HD
BRANCH  38  41
ATOM     41  C   UNL     1     148.557 160.976 190.512  0.00  0.00    -0.006 C 
ATOM     42  H   UNL     1     149.322 160.384 189.999  0.00  0.00    +0.042 HD
ATOM     43  H   UNL     1     147.586 160.507 190.309  0.00  0.00    +0.042 HD
BRANCH  41  44
ATOM     44  N   UNL     1     148.806 160.948 191.950  0.00  0.00    -0.330 NA
ATOM     45  H   UNL     1     149.667 161.461 192.149  0.00  0.00    +0.118 HD
ATOM     46  H   UNL     1     148.065 161.462 192.428  0.00  0.00    +0.118 HD
ENDBRANCH  41  44
ENDBRANCH  38  41
ENDBRANCH  35  38
ENDBRANCH  33  35
ENDBRANCH  32  33
ENDBRANCH  20  32
ENDBRANCH  17  20
ENDBRANCH  15  17
BRANCH  15  47
ATOM     47  O   UNL     1     153.282 165.467 187.094  0.00  0.00    -0.379 OA
BRANCH  47  48
ATOM     48  C   UNL     1     153.636 164.667 185.976  0.00  0.00    +0.037 C 
ATOM     49  H   UNL     1     154.683 164.826 185.705  0.00  0.00    +0.052 HD
ATOM     50  H   UNL     1     152.985 164.874 185.124  0.00  0.00    +0.052 HD
ATOM     51  H   UNL     1     153.514 163.618 186.259  0.00  0.00    +0.052 HD
ENDBRANCH  47  48
ENDBRANCH  15  47
ENDBRANCH   9  15
ENDBRANCH   6   9
ENDBRANCH   3   6
ENDBRANCH   1   3
BRANCH   1  52
ATOM     52  C   UNL     1     148.842 166.743 191.242  0.00  0.00    +0.020 C 
ATOM     53  H   UNL     1     147.929 166.244 191.594  0.00  0.00    +0.036 HD
BRANCH  52  54
ATOM     54  C   UNL     1     148.543 167.325 189.850  0.00  0.00    -0.057 C 
ATOM     55  H   UNL     1     149.410 167.211 189.188  0.00  0.00    +0.023 HD
ATOM     56  H   UNL     1     148.289 168.391 189.897  0.00  0.00    +0.023 HD
ATOM     57  H   UNL     1     147.712 166.802 189.369  0.00  0.00    +0.023 HD
ENDBRANCH  52  54
BRANCH  52  58
ATOM     58  C   UNL     1     149.196 167.844 192.294  0.00  0.00    +0.070 C 
ATOM     59  H   UNL     1     149.993 167.465 192.944  0.00  0.00    +0.061 HD
BRANCH  58  60
ATOM     60  C   UNL     1     149.712 169.182 191.674  0.00  0.00    +0.002 C 
ATOM     61  H   UNL     1     149.799 169.037 190.589  0.00  0.00    +0.037 HD
BRANCH  60  62
ATOM     62  C   UNL     1     148.795 170.358 191.955  0.00  0.00    -0.065 C 
ATOM     63  C   UNL     1     148.911 171.546 191.341  0.00  0.00    -0.005 C 
ATOM     64  H   UNL     1     148.025 170.179 192.703  0.00  0.00    +0.059 HD
ATOM     65  H   UNL     1     149.710 171.675 190.611  0.00  0.00    +0.078 HD
BRANCH  63  66
ATOM     66  N   UNL     1     148.116 172.663 191.549  0.00  0.00    -0.281 N 
ATOM     67  C   UNL     1     146.924 172.814 190.845  0.00  0.00    +0.206 C 
ATOM     68  O   UNL     1     146.156 173.766 190.905  0.00  0.00    -0.279 OA
ATOM     69  H   UNL     1     146.709 171.964 190.181  0.00  0.00    +0.126 HD
BRANCH  66  70
ATOM     70  C   UNL     1     148.492 173.742 192.461  0.00  0.00    +0.016 C 
ATOM     71  H   UNL     1     148.138 174.701 192.072  0.00  0.00    +0.047 HD
ATOM     72  H   UNL     1     149.587 173.819 192.494  0.00  0.00    +0.047 HD
BRANCH  70  73
ATOM     73  C   UNL     1     147.985 173.502 193.874  0.00  0.00    -0.049 C 
ATOM     74  H   UNL     1     147.350 172.610 193.924  0.00  0.00    +0.024 HD
ATOM     75  H   UNL     1     147.402 174.362 194.216  0.00  0.00    +0.024 HD
ATOM     76  H   UNL     1     148.819 173.350 194.565  0.00  0.00    +0.024 HD
ENDBRANCH  70  73
ENDBRANCH  66  70
ENDBRANCH  63  66
ENDBRANCH  60  62
BRANCH  60  77
ATOM     77  C   UNL     1     151.120 169.530 192.174  0.00  0.00    -0.057 C 
ATOM     78  H   UNL     1     151.894 168.934 191.676  0.00  0.00    +0.024 HD
ATOM     79  H   UNL     1     151.338 170.591 192.003  0.00  0.00    +0.024 HD
ATOM     80  H   UNL     1     151.206 169.346 193.251  0.00  0.00    +0.024 HD
ENDBRANCH  60  77
ENDBRANCH  58  60
BRANCH  58  81
ATOM     81  O   UNL     1     148.019 168.135 193.070  0.00  0.00    -0.379 OA
BRANCH  81  82
ATOM     82  C   UNL     1     147.548 167.039 193.841  0.00  0.00    +0.037 C 
ATOM     83  H   UNL     1     146.725 167.347 194.489  0.00  0.00    +0.052 HD
ATOM     84  H   UNL     1     147.232 166.212 193.199  0.00  0.00    +0.052 HD
ATOM     85  H   UNL     1     148.371 166.696 194.474  0.00  0.00    +0.052 HD
ENDBRANCH  81  82
ENDBRANCH  58  81
ENDBRANCH  52  58
ENDBRANCH   1  52
BRANCH   1  86
ATOM     86  O   UNL     1     150.688 165.494 192.319  0.00  0.00    -0.459 OA
BRANCH  86  88
ATOM     87  O   UNL     1     149.250 163.876 193.080  0.00  0.00    -0.248 OA
ATOM     88  C   UNL     1     150.257 164.561 193.213  0.00  0.00    +0.337 C 
BRANCH  88  89
ATOM     89  C   UNL     1     151.214 164.522 194.415  0.00  0.00    +0.155 C 
ATOM     90  O   UNL     1     150.605 163.935 195.579  0.00  0.00    -0.365 OA
ATOM     91  C   UNL     1     150.289 164.970 196.515  0.00  0.00    +0.049 C 
ATOM     92  C   UNL     1     150.555 166.293 195.830  0.00  0.00    -0.027 C 
ATOM     93  C   UNL     1     151.615 165.934 194.813  0.00  0.00    -0.014 C 
ATOM     94  H   UNL     1     152.079 163.906 194.143  0.00  0.00    +0.071 HD
ATOM     95  H   UNL     1     150.933 164.843 197.390  0.00  0.00    +0.056 HD
ATOM     96  H   UNL     1     149.247 164.869 196.831  0.00  0.00    +0.056 HD
ATOM     97  H   UNL     1     150.864 167.075 196.526  0.00  0.00    +0.029 HD
ATOM     98  H   UNL     1     149.650 166.640 195.317  0.00  0.00    +0.029 HD
ATOM     99  H   UNL     1     151.652 166.648 193.985  0.00  0.00    +0.030 HD
ATOM    100  H   UNL     1     152.600 165.915 195.303  0.00  0.00    +0.030 HD
ENDBRANCH  88  89
ENDBRANCH  86  88
ENDBRANCH   1  86
TORSDOF 32
ENDMDL
MODEL 2
REMARK VINA RESULT:      -4.8      2.984      4.880
REMARK  Name = 2a_conf1
REMARK  32 active torsions:
REMARK  status: ('A' for Active; 'I' for Inactive)
REMARK    1  A    between atoms: C_2  and  C_3
REMARK    2  A    between atoms: C_2  and  O_8
REMARK    3  A    between atoms: O_8  and  C_9
REMARK    4  A    between atoms: C_9  and  C_10
REMARK    5  A    between atoms: C_9  and  C_29
REMARK    6  A    between atoms: C_10  and  C_11
REMARK    7  A    between atoms: C_11  and  C_12
REMARK    8  A    between atoms: C_12  and  C_13
REMARK    9  A    between atoms: C_12  and  C_14
REMARK   10  A    between atoms: C_14  and  O_15
REMARK   11  A    between atoms: C_14  and  C_17
REMARK   12  A    between atoms: O_15  and  C_16
REMARK   13  A    between atoms: C_17  and  C_18
REMARK   14  A    between atoms: C_18  and  O_19
REMARK   15  A    between atoms: C_18  and  C_26
REMARK   16  A    between atoms: O_19  and  C_20
REMARK   17  A    between atoms: C_20  and  C_21
REMARK   18  A    between atoms: C_21  and  C_22
REMARK   19  A    between atoms: C_22  and  C_23
REMARK   20  A    between atoms: C_23  and  N_24
REMARK   21  A    between atoms: C_26  and  C_27
REMARK   22  A    between atoms: C_26  and  C_28
REMARK   23  A    between atoms: C_29  and  C_30
REMARK   24  A    between atoms: C_29  and  C_31
REMARK   25  A    between atoms: C_31  and  O_32
REMARK   26  A    between atoms: C_31  and  C_34
REMARK   27  A    between atoms: O_32  and  C_33
REMARK   28  A    between atoms: C_34  and  C_35
REMARK   29  A    between atoms: C_34  and  C_36
REMARK   30  A    between atoms: C_37  and  N_38
REMARK   31  A    between atoms: N_38  and  C_39
REMARK   32  A    between atoms: C_39  and  C_40
REMARK                            x       y       z     vdW  Elec       q    Type
REMARK                         _______ _______ _______ _____ _____    ______ ____
ROOT
ATOM      1  C   UNL     1     149.783 165.508 191.081  0.00  0.00    +0.108 C 
ATOM      2  H   UNL     1     149.206 164.580 190.985  0.00  0.00    +0.074 HD
ENDROOT
BRANCH   1   3
ATOM      3  C   UNL     1     150.718 165.605 189.861  0.00  0.00    -0.015 C 
ATOM      4  H   UNL     1     150.579 164.746 189.196  0.00  0.00    +0.030 HD
ATOM      5  H   UNL     1     150.470 166.508 189.299  0.00  0.00    +0.030 HD
BRANCH   3   6
ATOM      6  C   UNL     1     152.197 165.672 190.264  0.00  0.00    -0.045 C 
ATOM      7  H   UNL     1     152.295 165.653 191.354  0.00  0.00    +0.027 HD
ATOM      8  H   UNL     1     152.683 164.755 189.904  0.00  0.00    +0.027 HD
BRANCH   6   9
ATOM      9  C   UNL     1     152.951 166.890 189.676  0.00  0.00    -0.017 C 
ATOM     10  H   UNL     1     153.225 167.533 190.521  0.00  0.00    +0.032 HD
BRANCH   9  11
ATOM     11  C   UNL     1     151.982 167.709 188.807  0.00  0.00    -0.060 C 
ATOM     12  H   UNL     1     151.759 167.185 187.870  0.00  0.00    +0.023 HD
ATOM     13  H   UNL     1     151.038 167.909 189.324  0.00  0.00    +0.023 HD
ATOM     14  H   UNL     1     152.424 168.675 188.538  0.00  0.00    +0.023 HD
ENDBRANCH   9  11
BRANCH   9  15
ATOM     15  C   UNL     1     154.251 166.564 188.878  0.00  0.00    +0.064 C 
ATOM     16  H   UNL     1     154.540 167.468 188.330  0.00  0.00    +0.060 HD
BRANCH  15  17
ATOM     17  C   UNL     1     154.063 165.414 187.862  0.00  0.00    +0.011 C 
ATOM     18  H   UNL     1     154.873 164.688 188.013  0.00  0.00    +0.033 HD
ATOM     19  H   UNL     1     153.122 164.892 188.059  0.00  0.00    +0.033 HD
BRANCH  17  20
ATOM     20  C   UNL     1     154.078 165.820 186.369  0.00  0.00    +0.108 C 
ATOM     21  H   UNL     1     154.827 165.199 185.861  0.00  0.00    +0.074 HD
BRANCH  20  22
ATOM     22  C   UNL     1     152.731 165.624 185.627  0.00  0.00    -0.009 C 
ATOM     23  H   UNL     1     152.252 166.600 185.483  0.00  0.00    +0.033 HD
BRANCH  22  24
ATOM     24  C   UNL     1     152.961 165.048 184.222  0.00  0.00    -0.059 C 
ATOM     25  H   UNL     1     154.013 165.139 183.928  0.00  0.00    +0.023 HD
ATOM     26  H   UNL     1     152.356 165.576 183.477  0.00  0.00    +0.023 HD
ATOM     27  H   UNL     1     152.701 163.986 184.184  0.00  0.00    +0.023 HD
ENDBRANCH  22  24
BRANCH  22  28
ATOM     28  C   UNL     1     151.769 164.710 186.389  0.00  0.00    -0.059 C 
ATOM     29  H   UNL     1     152.131 163.674 186.393  0.00  0.00    +0.023 HD
ATOM     30  H   UNL     1     151.640 165.029 187.427  0.00  0.00    +0.023 HD
ATOM     31  H   UNL     1     150.776 164.720 185.927  0.00  0.00    +0.023 HD
ENDBRANCH  22  28
ENDBRANCH  20  22
BRANCH  20  32
ATOM     32  O   UNL     1     154.461 167.205 186.215  0.00  0.00    -0.461 OA
BRANCH  32  33
ATOM     33  C   UNL     1     155.523 167.459 185.401  0.00  0.00    +0.307 C 
ATOM     34  O   UNL     1     155.731 168.513 184.816  0.00  0.00    -0.251 OA
BRANCH  33  35
ATOM     35  C   UNL     1     156.407 166.237 185.317  0.00  0.00    +0.046 C 
ATOM     36  H   UNL     1     156.635 166.054 184.263  0.00  0.00    +0.038 HD
ATOM     37  H   UNL     1     155.852 165.379 185.713  0.00  0.00    +0.038 HD
BRANCH  35  38
ATOM     38  C   UNL     1     157.686 166.429 186.135  0.00  0.00    -0.031 C 
ATOM     39  H   UNL     1     157.488 167.085 186.994  0.00  0.00    +0.028 HD
ATOM     40  H   UNL     1     157.991 165.464 186.555  0.00  0.00    +0.028 HD
BRANCH  38  41
ATOM     41  C   UNL     1     158.841 166.991 185.309  0.00  0.00    -0.006 C 
ATOM     42  H   UNL     1     158.741 166.686 184.262  0.00  0.00    +0.042 HD
ATOM     43  H   UNL     1     159.790 166.585 185.682  0.00  0.00    +0.042 HD
BRANCH  41  44
ATOM     44  N   UNL     1     158.887 168.449 185.385  0.00  0.00    -0.330 NA
ATOM     45  H   UNL     1     159.834 168.740 185.632  0.00  0.00    +0.118 HD
ATOM     46  H   UNL     1     158.714 168.838 184.457  0.00  0.00    +0.118 HD
ENDBRANCH  41  44
ENDBRANCH  38  41
ENDBRANCH  35  38
ENDBRANCH  33  35
ENDBRANCH  32  33
ENDBRANCH  20  32
ENDBRANCH  17  20
ENDBRANCH  15  17
BRANCH  15  47
ATOM     47  O   UNL     1     155.330 166.203 189.750  0.00  0.00    -0.379 OA
BRANCH  47  48
ATOM     48  C   UNL     1     156.153 165.158 189.254  0.00  0.00    +0.037 C 
ATOM     49  H   UNL     1     156.330 164.406 190.028  0.00  0.00    +0.052 HD
ATOM     50  H   UNL     1     157.100 165.550 188.878  0.00  0.00    +0.052 HD
ATOM     51  H   UNL     1     155.624 164.676 188.427  0.00  0.00    +0.052 HD
ENDBRANCH  47  48
ENDBRANCH  15  47
ENDBRANCH   9  15
ENDBRANCH   6   9
ENDBRANCH   3   6
ENDBRANCH   1   3
BRANCH   1  52
ATOM     52  C   UNL     1     148.786 166.704 191.197  0.00  0.00    +0.020 C 
ATOM     53  H   UNL     1     147.826 166.277 191.516  0.00  0.00    +0.036 HD
BRANCH  52  54
ATOM     54  C   UNL     1     148.578 167.316 189.801  0.00  0.00    -0.057 C 
ATOM     55  H   UNL     1     149.057 168.301 189.733  0.00  0.00    +0.023 HD
ATOM     56  H   UNL     1     147.514 167.439 189.562  0.00  0.00    +0.023 HD
ATOM     57  H   UNL     1     149.028 166.695 189.021  0.00  0.00    +0.023 HD
ENDBRANCH  52  54
BRANCH  52  58
ATOM     58  C   UNL     1     149.192 167.768 192.268  0.00  0.00    +0.070 C 
ATOM     59  H   UNL     1     149.964 167.337 192.916  0.00  0.00    +0.061 HD
BRANCH  58  60
ATOM     60  C   UNL     1     149.784 169.086 191.672  0.00  0.00    +0.002 C 
ATOM     61  H   UNL     1     149.834 168.968 190.582  0.00  0.00    +0.037 HD
BRANCH  60  62
ATOM     62  C   UNL     1     148.957 170.313 192.010  0.00  0.00    -0.065 C 
ATOM     63  C   UNL     1     149.493 171.522 192.239  0.00  0.00    -0.005 C 
ATOM     64  H   UNL     1     147.883 170.148 192.065  0.00  0.00    +0.059 HD
ATOM     65  H   UNL     1     150.577 171.626 192.187  0.00  0.00    +0.078 HD
BRANCH  63  66
ATOM     66  N   UNL     1     148.803 172.683 192.557  0.00  0.00    -0.281 N 
ATOM     67  C   UNL     1     148.314 172.875 193.846  0.00  0.00    +0.206 C 
ATOM     68  O   UNL     1     147.657 173.830 194.243  0.00  0.00    -0.279 OA
ATOM     69  H   UNL     1     148.570 172.052 194.528  0.00  0.00    +0.126 HD
BRANCH  66  70
ATOM     70  C   UNL     1     148.514 173.724 191.572  0.00  0.00    +0.016 C 
ATOM     71  H   UNL     1     149.395 173.904 190.949  0.00  0.00    +0.047 HD
ATOM     72  H   UNL     1     148.319 174.669 192.094  0.00  0.00    +0.047 HD
BRANCH  70  73
ATOM     73  C   UNL     1     147.301 173.387 190.720  0.00  0.00    -0.049 C 
ATOM     74  H   UNL     1     147.525 173.478 189.651  0.00  0.00    +0.024 HD
ATOM     75  H   UNL     1     146.473 174.061 190.960  0.00  0.00    +0.024 HD
ATOM     76  H   UNL     1     146.974 172.359 190.901  0.00  0.00    +0.024 HD
ENDBRANCH  70  73
ENDBRANCH  66  70
ENDBRANCH  63  66
ENDBRANCH  60  62
BRANCH  60  77
ATOM     77  C   UNL     1     151.225 169.322 192.143  0.00  0.00    -0.057 C 
ATOM     78  H   UNL     1     151.272 170.009 192.996  0.00  0.00    +0.024 HD
ATOM     79  H   UNL     1     151.696 168.377 192.435  0.00  0.00    +0.024 HD
ATOM     80  H   UNL     1     151.830 169.756 191.338  0.00  0.00    +0.024 HD
ENDBRANCH  60  77
ENDBRANCH  58  60
BRANCH  58  81
ATOM     81  O   UNL     1     148.028 168.111 193.042  0.00  0.00    -0.379 OA
BRANCH  81  82
ATOM     82  C   UNL     1     147.592 167.081 193.919  0.00  0.00    +0.037 C 
ATOM     83  H   UNL     1     148.185 167.078 194.836  0.00  0.00    +0.052 HD
ATOM     84  H   UNL     1     146.531 167.190 194.157  0.00  0.00    +0.052 HD
ATOM     85  H   UNL     1     147.741 166.124 193.413  0.00  0.00    +0.052 HD
ENDBRANCH  81  82
ENDBRANCH  58  81
ENDBRANCH  52  58
ENDBRANCH   1  52
BRANCH   1  86
ATOM     86  O   UNL     1     150.621 165.421 192.251  0.00  0.00    -0.459 OA
BRANCH  86  88
ATOM     87  O   UNL     1     149.216 163.862 193.180  0.00  0.00    -0.248 OA
ATOM     88  C   UNL     1     150.236 164.539 193.216  0.00  0.00    +0.337 C 
BRANCH  88  89
ATOM     89  C   UNL     1     151.267 164.545 194.356  0.00  0.00    +0.155 C 
ATOM     90  O   UNL     1     150.765 163.917 195.550  0.00  0.00    -0.365 OA
ATOM     91  C   UNL     1     150.450 164.925 196.514  0.00  0.00    +0.049 C 
ATOM     92  C   UNL     1     150.600 166.266 195.827  0.00  0.00    -0.027 C 
ATOM     93  C   UNL     1     151.613 165.974 194.744  0.00  0.00    -0.014 C 
ATOM     94  H   UNL     1     152.146 163.980 194.025  0.00  0.00    +0.071 HD
ATOM     95  H   UNL     1     151.153 164.829 197.347  0.00  0.00    +0.056 HD
ATOM     96  H   UNL     1     149.437 164.765 196.892  0.00  0.00    +0.056 HD
ATOM     97  H   UNL     1     150.908 167.060 196.512  0.00  0.00    +0.029 HD
ATOM     98  H   UNL     1     149.648 166.566 195.375  0.00  0.00    +0.029 HD
ATOM     99  H   UNL     1     151.560 166.695 193.922  0.00  0.00    +0.030 HD
ATOM    100  H   UNL     1     152.626 166.007 195.172  0.00  0.00    +0.030 HD
ENDBRANCH  88  89
ENDBRANCH  86  88
ENDBRANCH   1  86
TORSDOF 32
ENDMDL
MODEL 3
REMARK VINA RESULT:      -4.8      3.713      7.509
REMARK  Name = 2a_conf1
REMARK  32 active torsions:
REMARK  status: ('A' for Active; 'I' for Inactive)
REMARK    1  A    between atoms: C_2  and  C_3
REMARK    2  A    between atoms: C_2  and  O_8
REMARK    3  A    between atoms: O_8  and  C_9
REMARK    4  A    between atoms: C_9  and  C_10
REMARK    5  A    between atoms: C_9  and  C_29
REMARK    6  A    between atoms: C_10  and  C_11
REMARK    7  A    between atoms: C_11  and  C_12
REMARK    8  A    between atoms: C_12  and  C_13
REMARK    9  A    between atoms: C_12  and  C_14
REMARK   10  A    between atoms: C_14  and  O_15
REMARK   11  A    between atoms: C_14  and  C_17
REMARK   12  A    between atoms: O_15  and  C_16
REMARK   13  A    between atoms: C_17  and  C_18
REMARK   14  A    between atoms: C_18  and  O_19
REMARK   15  A    between atoms: C_18  and  C_26
REMARK   16  A    between atoms: O_19  and  C_20
REMARK   17  A    between atoms: C_20  and  C_21
REMARK   18  A    between atoms: C_21  and  C_22
REMARK   19  A    between atoms: C_22  and  C_23
REMARK   20  A    between atoms: C_23  and  N_24
REMARK   21  A    between atoms: C_26  and  C_27
REMARK   22  A    between atoms: C_26  and  C_28
REMARK   23  A    between atoms: C_29  and  C_30
REMARK   24  A    between atoms: C_29  and  C_31
REMARK   25  A    between atoms: C_31  and  O_32
REMARK   26  A    between atoms: C_31  and  C_34
REMARK   27  A    between atoms: O_32  and  C_33
REMARK   28  A    between atoms: C_34  and  C_35
REMARK   29  A    between atoms: C_34  and  C_36
REMARK   30  A    between atoms: C_37  and  N_38
REMARK   31  A    between atoms: N_38  and  C_39
REMARK   32  A    between atoms: C_39  and  C_40
REMARK                            x       y       z     vdW  Elec       q    Type
REMARK                         _______ _______ _______ _____ _____    ______ ____
ROOT
ATOM      1  C   UNL     1     146.569 170.600 190.553  0.00  0.00    +0.108 C 
ATOM      2  H   UNL     1     145.905 170.976 191.340  0.00  0.00    +0.074 HD
ENDROOT
BRANCH   1   3
ATOM      3  C   UNL     1     147.513 169.565 191.193  0.00  0.00    -0.015 C 
ATOM      4  H   UNL     1     148.543 169.717 190.853  0.00  0.00    +0.030 HD
ATOM      5  H   UNL     1     147.494 169.695 192.276  0.00  0.00    +0.030 HD
BRANCH   3   6
ATOM      6  C   UNL     1     147.103 168.123 190.867  0.00  0.00    -0.045 C 
ATOM      7  H   UNL     1     146.026 167.991 191.013  0.00  0.00    +0.027 HD
ATOM      8  H   UNL     1     147.282 167.959 189.795  0.00  0.00    +0.027 HD
BRANCH   6   9
ATOM      9  C   UNL     1     147.891 167.053 191.664  0.00  0.00    -0.017 C 
ATOM     10  H   UNL     1     148.956 167.262 191.509  0.00  0.00    +0.032 HD
BRANCH   9  11
ATOM     11  C   UNL     1     147.627 165.671 191.045  0.00  0.00    -0.060 C 
ATOM     12  H   UNL     1     148.069 165.600 190.045  0.00  0.00    +0.023 HD
ATOM     13  H   UNL     1     148.035 164.862 191.661  0.00  0.00    +0.023 HD
ATOM     14  H   UNL     1     146.552 165.494 190.935  0.00  0.00    +0.023 HD
ENDBRANCH   9  11
BRANCH   9  15
ATOM     15  C   UNL     1     147.624 167.019 193.201  0.00  0.00    +0.064 C 
ATOM     16  H   UNL     1     147.958 167.976 193.617  0.00  0.00    +0.060 HD
BRANCH  15  17
ATOM     17  C   UNL     1     148.383 165.881 193.920  0.00  0.00    +0.011 C 
ATOM     18  H   UNL     1     147.815 165.602 194.817  0.00  0.00    +0.033 HD
ATOM     19  H   UNL     1     148.425 164.996 193.277  0.00  0.00    +0.033 HD
BRANCH  17  20
ATOM     20  C   UNL     1     149.827 166.210 194.371  0.00  0.00    +0.108 C 
ATOM     21  H   UNL     1     150.036 167.250 194.092  0.00  0.00    +0.074 HD
BRANCH  20  22
ATOM     22  C   UNL     1     150.078 166.079 195.896  0.00  0.00    -0.009 C 
ATOM     23  H   UNL     1     150.651 166.948 196.243  0.00  0.00    +0.033 HD
BRANCH  22  24
ATOM     24  C   UNL     1     148.753 166.104 196.671  0.00  0.00    -0.059 C 
ATOM     25  H   UNL     1     147.915 166.352 196.009  0.00  0.00    +0.023 HD
ATOM     26  H   UNL     1     148.780 166.849 197.473  0.00  0.00    +0.023 HD
ATOM     27  H   UNL     1     148.539 165.128 197.117  0.00  0.00    +0.023 HD
ENDBRANCH  22  24
BRANCH  22  28
ATOM     28  C   UNL     1     150.844 164.806 196.258  0.00  0.00    -0.059 C 
ATOM     29  H   UNL     1     151.139 164.811 197.315  0.00  0.00    +0.023 HD
ATOM     30  H   UNL     1     150.249 163.906 196.076  0.00  0.00    +0.023 HD
ATOM     31  H   UNL     1     151.753 164.714 195.653  0.00  0.00    +0.023 HD
ENDBRANCH  22  28
ENDBRANCH  20  22
BRANCH  20  32
ATOM     32  O   UNL     1     150.783 165.360 193.699  0.00  0.00    -0.461 OA
BRANCH  32  33
ATOM     33  C   UNL     1     151.312 165.836 192.538  0.00  0.00    +0.307 C 
ATOM     34  O   UNL     1     151.166 165.329 191.433  0.00  0.00    -0.251 OA
BRANCH  33  35
ATOM     35  C   UNL     1     152.119 167.081 192.816  0.00  0.00    +0.046 C 
ATOM     36  H   UNL     1     153.070 166.996 192.284  0.00  0.00    +0.038 HD
ATOM     37  H   UNL     1     152.320 167.132 193.892  0.00  0.00    +0.038 HD
BRANCH  35  38
ATOM     38  C   UNL     1     151.355 168.336 192.388  0.00  0.00    -0.031 C 
ATOM     39  H   UNL     1     150.276 168.185 192.528  0.00  0.00    +0.028 HD
ATOM     40  H   UNL     1     151.633 169.167 193.047  0.00  0.00    +0.028 HD
BRANCH  38  41
ATOM     41  C   UNL     1     151.639 168.741 190.943  0.00  0.00    -0.006 C 
ATOM     42  H   UNL     1     150.844 168.375 190.285  0.00  0.00    +0.042 HD
ATOM     43  H   UNL     1     152.579 168.281 190.611  0.00  0.00    +0.042 HD
BRANCH  41  44
ATOM     44  N   UNL     1     151.747 170.191 190.811  0.00  0.00    -0.330 NA
ATOM     45  H   UNL     1     151.132 170.635 191.495  0.00  0.00    +0.118 HD
ATOM     46  H   UNL     1     152.693 170.480 191.065  0.00  0.00    +0.118 HD
ENDBRANCH  41  44
ENDBRANCH  38  41
ENDBRANCH  35  38
ENDBRANCH  33  35
ENDBRANCH  32  33
ENDBRANCH  20  32
ENDBRANCH  17  20
ENDBRANCH  15  17
BRANCH  15  47
ATOM     47  O   UNL     1     146.229 166.865 193.492  0.00  0.00    -0.379 OA
BRANCH  47  48
ATOM     48  C   UNL     1     145.921 165.712 194.261  0.00  0.00    +0.037 C 
ATOM     49  H   UNL     1     146.520 164.858 193.935  0.00  0.00    +0.052 HD
ATOM     50  H   UNL     1     144.856 165.476 194.205  0.00  0.00    +0.052 HD
ATOM     51  H   UNL     1     146.173 165.925 195.304  0.00  0.00    +0.052 HD
ENDBRANCH  47  48
ENDBRANCH  15  47
ENDBRANCH   9  15
ENDBRANCH   6   9
ENDBRANCH   3   6
ENDBRANCH   1   3
BRANCH   1  52
ATOM     52  C   UNL     1     145.695 170.016 189.400  0.00  0.00    +0.020 C 
ATOM     53  H   UNL     1     145.678 168.927 189.547  0.00  0.00    +0.036 HD
BRANCH  52  54
ATOM     54  C   UNL     1     146.395 170.288 188.057  0.00  0.00    -0.057 C 
ATOM     55  H   UNL     1     147.241 169.605 187.915  0.00  0.00    +0.023 HD
ATOM     56  H   UNL     1     146.774 171.316 187.994  0.00  0.00    +0.023 HD
ATOM     57  H   UNL     1     145.718 170.128 187.213  0.00  0.00    +0.023 HD
ENDBRANCH  52  54
BRANCH  52  58
ATOM     58  C   UNL     1     144.210 170.504 189.417  0.00  0.00    +0.070 C 
ATOM     59  H   UNL     1     143.597 169.783 188.863  0.00  0.00    +0.061 HD
BRANCH  58  60
ATOM     60  C   UNL     1     143.590 170.624 190.846  0.00  0.00    +0.002 C 
ATOM     61  H   UNL     1     144.262 170.111 191.547  0.00  0.00    +0.037 HD
BRANCH  60  62
ATOM     62  C   UNL     1     143.401 172.063 191.291  0.00  0.00    -0.065 C 
ATOM     63  C   UNL     1     142.273 172.516 191.859  0.00  0.00    -0.005 C 
ATOM     64  H   UNL     1     144.249 172.720 191.111  0.00  0.00    +0.059 HD
ATOM     65  H   UNL     1     141.449 171.816 192.002  0.00  0.00    +0.078 HD
BRANCH  63  66
ATOM     66  N   UNL     1     142.027 173.813 192.285  0.00  0.00    -0.281 N 
ATOM     67  C   UNL     1     143.064 174.740 192.335  0.00  0.00    +0.206 C 
ATOM     68  O   UNL     1     142.990 175.899 192.729  0.00  0.00    -0.279 OA
ATOM     69  H   UNL     1     144.021 174.332 191.980  0.00  0.00    +0.126 HD
BRANCH  66  70
ATOM     70  C   UNL     1     140.711 174.259 192.739  0.00  0.00    +0.016 C 
ATOM     71  H   UNL     1     139.946 173.965 192.014  0.00  0.00    +0.047 HD
ATOM     72  H   UNL     1     140.692 175.356 192.763  0.00  0.00    +0.047 HD
BRANCH  70  73
ATOM     73  C   UNL     1     140.378 173.742 194.128  0.00  0.00    -0.049 C 
ATOM     74  H   UNL     1     139.381 174.067 194.448  0.00  0.00    +0.024 HD
ATOM     75  H   UNL     1     141.111 174.107 194.853  0.00  0.00    +0.024 HD
ATOM     76  H   UNL     1     140.388 172.648 194.147  0.00  0.00    +0.024 HD
ENDBRANCH  70  73
ENDBRANCH  66  70
ENDBRANCH  63  66
ENDBRANCH  60  62
BRANCH  60  77
ATOM     77  C   UNL     1     142.240 169.902 190.939  0.00  0.00    -0.057 C 
ATOM     78  H   UNL     1     142.324 168.935 191.448  0.00  0.00    +0.024 HD
ATOM     79  H   UNL     1     141.511 170.515 191.482  0.00  0.00    +0.024 HD
ATOM     80  H   UNL     1     141.831 169.713 189.940  0.00  0.00    +0.024 HD
ENDBRANCH  60  77
ENDBRANCH  58  60
BRANCH  58  81
ATOM     81  O   UNL     1     144.143 171.798 188.790  0.00  0.00    -0.379 OA
BRANCH  81  82
ATOM     82  C   UNL     1     143.174 171.890 187.755  0.00  0.00    +0.037 C 
ATOM     83  H   UNL     1     143.150 170.972 187.165  0.00  0.00    +0.052 HD
ATOM     84  H   UNL     1     142.182 172.102 188.161  0.00  0.00    +0.052 HD
ATOM     85  H   UNL     1     143.465 172.712 187.095  0.00  0.00    +0.052 HD
ENDBRANCH  81  82
ENDBRANCH  58  81
ENDBRANCH  52  58
ENDBRANCH   1  52
BRANCH   1  86
ATOM     86  O   UNL     1     147.392 171.685 190.076  0.00  0.00    -0.459 OA
BRANCH  86  88
ATOM     87  O   UNL     1     146.219 173.498 190.850  0.00  0.00    -0.248 OA
ATOM     88  C   UNL     1     147.267 172.878 190.721  0.00  0.00    +0.337 C 
BRANCH  88  89
ATOM     89  C   UNL     1     148.643 173.330 191.235  0.00  0.00    +0.155 C 
ATOM     90  O   UNL     1     149.522 172.220 191.493  0.00  0.00    -0.365 OA
ATOM     91  C   UNL     1     149.626 172.022 192.906  0.00  0.00    +0.049 C 
ATOM     92  C   UNL     1     148.625 172.947 193.564  0.00  0.00    -0.027 C 
ATOM     93  C   UNL     1     148.494 174.067 192.558  0.00  0.00    -0.014 C 
ATOM     94  H   UNL     1     149.108 173.954 190.463  0.00  0.00    +0.071 HD
ATOM     95  H   UNL     1     150.648 172.269 193.207  0.00  0.00    +0.056 HD
ATOM     96  H   UNL     1     149.438 170.972 193.142  0.00  0.00    +0.056 HD
ATOM     97  H   UNL     1     148.947 173.283 194.553  0.00  0.00    +0.029 HD
ATOM     98  H   UNL     1     147.662 172.437 193.682  0.00  0.00    +0.029 HD
ATOM     99  H   UNL     1     147.554 174.616 192.670  0.00  0.00    +0.030 HD
ATOM    100  H   UNL     1     149.328 174.773 192.684  0.00  0.00    +0.030 HD
ENDBRANCH  88  89
ENDBRANCH  86  88
ENDBRANCH   1  86
TORSDOF 32
ENDMDL
MODEL 4
REMARK VINA RESULT:      -4.8      2.998      8.466
REMARK  Name = 2a_conf1
REMARK  32 active torsions:
REMARK  status: ('A' for Active; 'I' for Inactive)
REMARK    1  A    between atoms: C_2  and  C_3
REMARK    2  A    between atoms: C_2  and  O_8
REMARK    3  A    between atoms: O_8  and  C_9
REMARK    4  A    between atoms: C_9  and  C_10
REMARK    5  A    between atoms: C_9  and  C_29
REMARK    6  A    between atoms: C_10  and  C_11
REMARK    7  A    between atoms: C_11  and  C_12
REMARK    8  A    between atoms: C_12  and  C_13
REMARK    9  A    between atoms: C_12  and  C_14
REMARK   10  A    between atoms: C_14  and  O_15
REMARK   11  A    between atoms: C_14  and  C_17
REMARK   12  A    between atoms: O_15  and  C_16
REMARK   13  A    between atoms: C_17  and  C_18
REMARK   14  A    between atoms: C_18  and  O_19
REMARK   15  A    between atoms: C_18  and  C_26
REMARK   16  A    between atoms: O_19  and  C_20
REMARK   17  A    between atoms: C_20  and  C_21
REMARK   18  A    between atoms: C_21  and  C_22
REMARK   19  A    between atoms: C_22  and  C_23
REMARK   20  A    between atoms: C_23  and  N_24
REMARK   21  A    between atoms: C_26  and  C_27
REMARK   22  A    between atoms: C_26  and  C_28
REMARK   23  A    between atoms: C_29  and  C_30
REMARK   24  A    between atoms: C_29  and  C_31
REMARK   25  A    between atoms: C_31  and  O_32
REMARK   26  A    between atoms: C_31  and  C_34
REMARK   27  A    between atoms: O_32  and  C_33
REMARK   28  A    between atoms: C_34  and  C_35
REMARK   29  A    between atoms: C_34  and  C_36
REMARK   30  A    between atoms: C_37  and  N_38
REMARK   31  A    between atoms: N_38  and  C_39
REMARK   32  A    between atoms: C_39  and  C_40
REMARK                            x       y       z     vdW  Elec       q    Type
REMARK                         _______ _______ _______ _____ _____    ______ ____
ROOT
ATOM      1  C   UNL     1     150.430 166.198 191.360  0.00  0.00    +0.108 C 
ATOM      2  H   UNL     1     149.746 166.840 190.792  0.00  0.00    +0.074 HD
ENDROOT
BRANCH   1   3
ATOM      3  C   UNL     1     151.273 167.106 192.275  0.00  0.00    -0.015 C 
ATOM      4  H   UNL     1     151.569 166.573 193.184  0.00  0.00    +0.030 HD
ATOM      5  H   UNL     1     152.182 167.394 191.743  0.00  0.00    +0.030 HD
BRANCH   3   6
ATOM      6  C   UNL     1     150.522 168.381 192.683  0.00  0.00    -0.045 C 
ATOM      7  H   UNL     1     149.563 168.126 193.145  0.00  0.00    +0.027 HD
ATOM      8  H   UNL     1     151.109 168.877 193.468  0.00  0.00    +0.027 HD
BRANCH   6   9
ATOM      9  C   UNL     1     150.313 169.382 191.521  0.00  0.00    -0.017 C 
ATOM     10  H   UNL     1     150.605 168.865 190.599  0.00  0.00    +0.032 HD
BRANCH   9  11
ATOM     11  C   UNL     1     151.292 170.555 191.686  0.00  0.00    -0.060 C 
ATOM     12  H   UNL     1     152.232 170.358 191.158  0.00  0.00    +0.023 HD
ATOM     13  H   UNL     1     150.875 171.494 191.308  0.00  0.00    +0.023 HD
ATOM     14  H   UNL     1     151.542 170.706 192.742  0.00  0.00    +0.023 HD
ENDBRANCH   9  11
BRANCH   9  15
ATOM     15  C   UNL     1     148.857 169.913 191.335  0.00  0.00    +0.064 C 
ATOM     16  H   UNL     1     148.882 170.682 190.555  0.00  0.00    +0.060 HD
BRANCH  15  17
ATOM     17  C   UNL     1     148.275 170.538 192.622  0.00  0.00    +0.011 C 
ATOM     18  H   UNL     1     147.610 169.801 193.092  0.00  0.00    +0.033 HD
ATOM     19  H   UNL     1     149.079 170.746 193.334  0.00  0.00    +0.033 HD
BRANCH  17  20
ATOM     20  C   UNL     1     147.459 171.840 192.434  0.00  0.00    +0.108 C 
ATOM     21  H   UNL     1     146.642 171.833 193.167  0.00  0.00    +0.074 HD
BRANCH  20  22
ATOM     22  C   UNL     1     148.263 173.149 192.649  0.00  0.00    -0.009 C 
ATOM     23  H   UNL     1     147.596 173.919 193.056  0.00  0.00    +0.033 HD
BRANCH  22  24
ATOM     24  C   UNL     1     149.369 172.944 193.694  0.00  0.00    -0.059 C 
ATOM     25  H   UNL     1     150.360 173.106 193.254  0.00  0.00    +0.023 HD
ATOM     26  H   UNL     1     149.343 171.927 194.100  0.00  0.00    +0.023 HD
ATOM     27  H   UNL     1     149.261 173.647 194.525  0.00  0.00    +0.023 HD
ENDBRANCH  22  24
BRANCH  22  28
ATOM     28  C   UNL     1     148.890 173.672 191.355  0.00  0.00    -0.059 C 
ATOM     29  H   UNL     1     149.879 173.228 191.189  0.00  0.00    +0.023 HD
ATOM     30  H   UNL     1     148.268 173.453 190.483  0.00  0.00    +0.023 HD
ATOM     31  H   UNL     1     149.011 174.761 191.395  0.00  0.00    +0.023 HD
ENDBRANCH  22  28
ENDBRANCH  20  22
BRANCH  20  32
ATOM     32  O   UNL     1     146.880 171.899 191.111  0.00  0.00    -0.461 OA
BRANCH  32  33
ATOM     33  C   UNL     1     145.519 171.893 191.040  0.00  0.00    +0.307 C 
ATOM     34  O   UNL     1     144.808 170.907 191.182  0.00  0.00    -0.251 OA
BRANCH  33  35
ATOM     35  C   UNL     1     145.016 173.286 190.749  0.00  0.00    +0.046 C 
ATOM     36  H   UNL     1     144.551 173.279 189.759  0.00  0.00    +0.038 HD
ATOM     37  H   UNL     1     145.873 173.969 190.732  0.00  0.00    +0.038 HD
BRANCH  35  38
ATOM     38  C   UNL     1     144.028 173.747 191.822  0.00  0.00    -0.031 C 
ATOM     39  H   UNL     1     143.259 172.979 191.980  0.00  0.00    +0.028 HD
ATOM     40  H   UNL     1     144.557 173.846 192.778  0.00  0.00    +0.028 HD
BRANCH  38  41
ATOM     41  C   UNL     1     143.366 175.082 191.488  0.00  0.00    -0.006 C 
ATOM     42  H   UNL     1     142.308 174.930 191.250  0.00  0.00    +0.042 HD
ATOM     43  H   UNL     1     143.844 175.516 190.600  0.00  0.00    +0.042 HD
BRANCH  41  44
ATOM     44  N   UNL     1     143.482 176.023 192.598  0.00  0.00    -0.330 NA
ATOM     45  H   UNL     1     143.855 176.907 192.248  0.00  0.00    +0.118 HD
ATOM     46  H   UNL     1     142.549 176.241 192.951  0.00  0.00    +0.118 HD
ENDBRANCH  41  44
ENDBRANCH  38  41
ENDBRANCH  35  38
ENDBRANCH  33  35
ENDBRANCH  32  33
ENDBRANCH  20  32
ENDBRANCH  17  20
ENDBRANCH  15  17
BRANCH  15  47
ATOM     47  O   UNL     1     147.965 168.873 190.913  0.00  0.00    -0.379 OA
BRANCH  47  48
ATOM     48  C   UNL     1     147.581 168.957 189.549  0.00  0.00    +0.037 C 
ATOM     49  H   UNL     1     148.437 168.772 188.895  0.00  0.00    +0.052 HD
ATOM     50  H   UNL     1     147.132 169.927 189.328  0.00  0.00    +0.052 HD
ATOM     51  H   UNL     1     146.835 168.180 189.360  0.00  0.00    +0.052 HD
ENDBRANCH  47  48
ENDBRANCH  15  47
ENDBRANCH   9  15
ENDBRANCH   6   9
ENDBRANCH   3   6
ENDBRANCH   1   3
BRANCH   1  52
ATOM     52  C   UNL     1     149.589 165.138 192.139  0.00  0.00    +0.020 C 
ATOM     53  H   UNL     1     149.751 165.340 193.206  0.00  0.00    +0.036 HD
BRANCH  52  54
ATOM     54  C   UNL     1     150.155 163.739 191.843  0.00  0.00    -0.057 C 
ATOM     55  H   UNL     1     151.170 163.637 192.245  0.00  0.00    +0.023 HD
ATOM     56  H   UNL     1     150.194 163.532 190.766  0.00  0.00    +0.023 HD
ATOM     57  H   UNL     1     149.552 162.957 192.313  0.00  0.00    +0.023 HD
ENDBRANCH  52  54
BRANCH  52  58
ATOM     58  C   UNL     1     148.051 165.235 191.883  0.00  0.00    +0.070 C 
ATOM     59  H   UNL     1     147.592 164.271 192.136  0.00  0.00    +0.061 HD
BRANCH  58  60
ATOM     60  C   UNL     1     147.324 166.321 192.739  0.00  0.00    +0.002 C 
ATOM     61  H   UNL     1     147.654 167.305 192.382  0.00  0.00    +0.037 HD
BRANCH  60  62
ATOM     62  C   UNL     1     145.811 166.233 192.648  0.00  0.00    -0.065 C 
ATOM     63  C   UNL     1     145.086 166.917 191.749  0.00  0.00    -0.005 C 
ATOM     64  H   UNL     1     145.339 165.574 193.375  0.00  0.00    +0.059 HD
ATOM     65  H   UNL     1     145.610 167.575 191.055  0.00  0.00    +0.078 HD
BRANCH  63  66
ATOM     66  N   UNL     1     143.706 166.890 191.611  0.00  0.00    -0.281 N 
ATOM     67  C   UNL     1     143.115 166.067 190.656  0.00  0.00    +0.206 C 
ATOM     68  O   UNL     1     141.919 165.982 190.404  0.00  0.00    -0.279 OA
ATOM     69  H   UNL     1     143.847 165.465 190.098  0.00  0.00    +0.126 HD
BRANCH  66  70
ATOM     70  C   UNL     1     142.816 167.734 192.406  0.00  0.00    +0.016 C 
ATOM     71  H   UNL     1     141.924 167.988 191.825  0.00  0.00    +0.047 HD
ATOM     72  H   UNL     1     143.317 168.688 192.615  0.00  0.00    +0.047 HD
BRANCH  70  73
ATOM     73  C   UNL     1     142.443 167.087 193.730  0.00  0.00    -0.049 C 
ATOM     74  H   UNL     1     142.116 167.834 194.462  0.00  0.00    +0.024 HD
ATOM     75  H   UNL     1     143.302 166.549 194.142  0.00  0.00    +0.024 HD
ATOM     76  H   UNL     1     141.621 166.377 193.596  0.00  0.00    +0.024 HD
ENDBRANCH  70  73
ENDBRANCH  66  70
ENDBRANCH  63  66
ENDBRANCH  60  62
BRANCH  60  77
ATOM     77  C   UNL     1     147.730 166.243 194.216  0.00  0.00    -0.057 C 
ATOM     78  H   UNL     1     148.234 165.300 194.456  0.00  0.00    +0.024 HD
ATOM     79  H   UNL     1     148.402 167.069 194.476  0.00  0.00    +0.024 HD
ATOM     80  H   UNL     1     146.850 166.319 194.865  0.00  0.00    +0.024 HD
ENDBRANCH  60  77
ENDBRANCH  58  60
BRANCH  58  81
ATOM     81  O   UNL     1     147.832 165.539 190.494  0.00  0.00    -0.379 OA
BRANCH  81  82
ATOM     82  C   UNL     1     147.265 164.471 189.748  0.00  0.00    +0.037 C 
ATOM     83  H   UNL     1     147.928 163.604 189.749  0.00  0.00    +0.052 HD
ATOM     84  H   UNL     1     146.284 164.193 190.142  0.00  0.00    +0.052 HD
ATOM     85  H   UNL     1     147.145 164.809 188.716  0.00  0.00    +0.052 HD
ENDBRANCH  81  82
ENDBRANCH  58  81
ENDBRANCH  52  58
ENDBRANCH   1  52
BRANCH   1  86
ATOM     86  O   UNL     1     151.342 165.558 190.443  0.00  0.00    -0.459 OA
BRANCH  86  88
ATOM     87  O   UNL     1     150.688 165.724 188.249  0.00  0.00    -0.248 OA
ATOM     88  C   UNL     1     151.402 166.071 189.182  0.00  0.00    +0.337 C 
BRANCH  88  89
ATOM     89  C   UNL     1     152.515 167.129 189.111  0.00  0.00    +0.155 C 
ATOM     90  O   UNL     1     152.736 167.602 187.770  0.00  0.00    -0.365 OA
ATOM     91  C   UNL     1     153.947 167.032 187.265  0.00  0.00    +0.049 C 
ATOM     92  C   UNL     1     154.422 166.014 188.278  0.00  0.00    -0.027 C 
ATOM     93  C   UNL     1     153.837 166.533 189.572  0.00  0.00    -0.014 C 
ATOM     94  H   UNL     1     152.211 167.986 189.723  0.00  0.00    +0.071 HD
ATOM     95  H   UNL     1     154.676 167.839 187.146  0.00  0.00    +0.056 HD
ATOM     96  H   UNL     1     153.758 166.585 186.285  0.00  0.00    +0.056 HD
ATOM     97  H   UNL     1     155.509 165.913 188.299  0.00  0.00    +0.029 HD
ATOM     98  H   UNL     1     154.000 165.028 188.048  0.00  0.00    +0.029 HD
ATOM     99  H   UNL     1     153.743 165.748 190.328  0.00  0.00    +0.030 HD
ATOM    100  H   UNL     1     154.482 167.329 189.972  0.00  0.00    +0.030 HD
ENDBRANCH  88  89
ENDBRANCH  86  88
ENDBRANCH   1  86
TORSDOF 32
ENDMDL
MODEL 5
REMARK VINA RESULT:      -4.7      3.441      6.704
REMARK  Name = 2a_conf1
REMARK  32 active torsions:
REMARK  status: ('A' for Active; 'I' for Inactive)
REMARK    1  A    between atoms: C_2  and  C_3
REMARK    2  A    between atoms: C_2  and  O_8
REMARK    3  A    between atoms: O_8  and  C_9
REMARK    4  A    between atoms: C_9  and  C_10
REMARK    5  A    between atoms: C_9  and  C_29
REMARK    6  A    between atoms: C_10  and  C_11
REMARK    7  A    between atoms: C_11  and  C_12
REMARK    8  A    between atoms: C_12  and  C_13
REMARK    9  A    between atoms: C_12  and  C_14
REMARK   10  A    between atoms: C_14  and  O_15
REMARK   11  A    between atoms: C_14  and  C_17
REMARK   12  A    between atoms: O_15  and  C_16
REMARK   13  A    between atoms: C_17  and  C_18
REMARK   14  A    between atoms: C_18  and  O_19
REMARK   15  A    between atoms: C_18  and  C_26
REMARK   16  A    between atoms: O_19  and  C_20
REMARK   17  A    between atoms: C_20  and  C_21
REMARK   18  A    between atoms: C_21  and  C_22
REMARK   19  A    between atoms: C_22  and  C_23
REMARK   20  A    between atoms: C_23  and  N_24
REMARK   21  A    between atoms: C_26  and  C_27
REMARK   22  A    between atoms: C_26  and  C_28
REMARK   23  A    between atoms: C_29  and  C_30
REMARK   24  A    between atoms: C_29  and  C_31
REMARK   25  A    between atoms: C_31  and  O_32
REMARK   26  A    between atoms: C_31  and  C_34
REMARK   27  A    between atoms: O_32  and  C_33
REMARK   28  A    between atoms: C_34  and  C_35
REMARK   29  A    between atoms: C_34  and  C_36
REMARK   30  A    between atoms: C_37  and  N_38
REMARK   31  A    between atoms: N_38  and  C_39
REMARK   32  A    between atoms: C_39  and  C_40
REMARK                            x       y       z     vdW  Elec       q    Type
REMARK                         _______ _______ _______ _____ _____    ______ ____
ROOT
ATOM      1  C   UNL     1     144.471 169.337 190.249  0.00  0.00    +0.108 C 
ATOM      2  H   UNL     1     144.075 169.138 189.246  0.00  0.00    +0.074 HD
ENDROOT
BRANCH   1   3
ATOM      3  C   UNL     1     146.009 169.295 190.161  0.00  0.00    -0.015 C 
ATOM      4  H   UNL     1     146.334 169.174 189.123  0.00  0.00    +0.030 HD
ATOM      5  H   UNL     1     146.407 170.242 190.530  0.00  0.00    +0.030 HD
BRANCH   3   6
ATOM      6  C   UNL     1     146.609 168.155 190.994  0.00  0.00    -0.045 C 
ATOM      7  H   UNL     1     147.399 168.538 191.649  0.00  0.00    +0.027 HD
ATOM      8  H   UNL     1     145.822 167.780 191.663  0.00  0.00    +0.027 HD
BRANCH   6   9
ATOM      9  C   UNL     1     147.137 166.972 190.146  0.00  0.00    -0.017 C 
ATOM     10  H   UNL     1     146.691 167.072 189.149  0.00  0.00    +0.032 HD
BRANCH   9  11
ATOM     11  C   UNL     1     146.598 165.656 190.731  0.00  0.00    -0.060 C 
ATOM     12  H   UNL     1     147.408 165.062 191.169  0.00  0.00    +0.023 HD
ATOM     13  H   UNL     1     145.841 165.830 191.503  0.00  0.00    +0.023 HD
ATOM     14  H   UNL     1     146.137 165.044 189.947  0.00  0.00    +0.023 HD
ENDBRANCH   9  11
BRANCH   9  15
ATOM     15  C   UNL     1     148.686 166.895 189.976  0.00  0.00    +0.064 C 
ATOM     16  H   UNL     1     148.982 165.848 190.102  0.00  0.00    +0.060 HD
BRANCH  15  17
ATOM     17  C   UNL     1     149.450 167.749 191.013  0.00  0.00    +0.011 C 
ATOM     18  H   UNL     1     150.215 168.330 190.483  0.00  0.00    +0.033 HD
ATOM     19  H   UNL     1     148.768 168.466 191.482  0.00  0.00    +0.033 HD
BRANCH  17  20
ATOM     20  C   UNL     1     150.164 166.965 192.141  0.00  0.00    +0.108 C 
ATOM     21  H   UNL     1     150.150 165.901 191.870  0.00  0.00    +0.074 HD
BRANCH  20  22
ATOM     22  C   UNL     1     151.644 167.365 192.374  0.00  0.00    -0.009 C 
ATOM     23  H   UNL     1     151.990 166.933 193.322  0.00  0.00    +0.033 HD
BRANCH  22  24
ATOM     24  C   UNL     1     152.547 166.776 191.281  0.00  0.00    -0.059 C 
ATOM     25  H   UNL     1     151.966 166.174 190.573  0.00  0.00    +0.023 HD
ATOM     26  H   UNL     1     153.321 166.133 191.713  0.00  0.00    +0.023 HD
ATOM     27  H   UNL     1     153.040 167.568 190.709  0.00  0.00    +0.023 HD
ENDBRANCH  22  24
BRANCH  22  28
ATOM     28  C   UNL     1     151.843 168.881 192.422  0.00  0.00    -0.059 C 
ATOM     29  H   UNL     1     152.742 169.178 191.868  0.00  0.00    +0.023 HD
ATOM     30  H   UNL     1     150.989 169.418 191.999  0.00  0.00    +0.023 HD
ATOM     31  H   UNL     1     151.954 169.226 193.457  0.00  0.00    +0.023 HD
ENDBRANCH  22  28
ENDBRANCH  20  22
BRANCH  20  32
ATOM     32  O   UNL     1     149.468 167.122 193.398  0.00  0.00    -0.461 OA
BRANCH  32  33
ATOM     33  C   UNL     1     149.159 165.979 194.070  0.00  0.00    +0.307 C 
ATOM     34  O   UNL     1     148.671 164.974 193.571  0.00  0.00    -0.251 OA
BRANCH  33  35
ATOM     35  C   UNL     1     149.499 166.137 195.533  0.00  0.00    +0.046 C 
ATOM     36  H   UNL     1     148.905 165.415 196.100  0.00  0.00    +0.038 HD
ATOM     37  H   UNL     1     149.220 167.149 195.847  0.00  0.00    +0.038 HD
BRANCH  35  38
ATOM     38  C   UNL     1     150.996 165.932 195.772  0.00  0.00    -0.031 C 
ATOM     39  H   UNL     1     151.577 166.527 195.054  0.00  0.00    +0.028 HD
ATOM     40  H   UNL     1     151.256 166.318 196.765  0.00  0.00    +0.028 HD
BRANCH  38  41
ATOM     41  C   UNL     1     151.417 164.466 195.690  0.00  0.00    -0.006 C 
ATOM     42  H   UNL     1     152.491 164.370 195.877  0.00  0.00    +0.042 HD
ATOM     43  H   UNL     1     151.223 164.085 194.679  0.00  0.00    +0.042 HD
BRANCH  41  44
ATOM     44  N   UNL     1     150.683 163.650 196.653  0.00  0.00    -0.330 NA
ATOM     45  H   UNL     1     150.968 163.913 197.598  0.00  0.00    +0.118 HD
ATOM     46  H   UNL     1     149.689 163.876 196.594  0.00  0.00    +0.118 HD
ENDBRANCH  41  44
ENDBRANCH  38  41
ENDBRANCH  35  38
ENDBRANCH  33  35
ENDBRANCH  32  33
ENDBRANCH  20  32
ENDBRANCH  17  20
ENDBRANCH  15  17
BRANCH  15  47
ATOM     47  O   UNL     1     149.096 167.324 188.671  0.00  0.00    -0.379 OA
BRANCH  47  48
ATOM     48  C   UNL     1     149.852 166.360 187.955  0.00  0.00    +0.037 C 
ATOM     49  H   UNL     1     150.313 165.644 188.640  0.00  0.00    +0.052 HD
ATOM     50  H   UNL     1     150.612 166.840 187.334  0.00  0.00    +0.052 HD
ATOM     51  H   UNL     1     149.167 165.812 187.301  0.00  0.00    +0.052 HD
ENDBRANCH  47  48
ENDBRANCH  15  47
ENDBRANCH   9  15
ENDBRANCH   6   9
ENDBRANCH   3   6
ENDBRANCH   1   3
BRANCH   1  52
ATOM     52  C   UNL     1     143.913 170.708 190.743  0.00  0.00    +0.020 C 
ATOM     53  H   UNL     1     144.652 171.105 191.452  0.00  0.00    +0.036 HD
BRANCH  52  54
ATOM     54  C   UNL     1     142.610 170.464 191.523  0.00  0.00    -0.057 C 
ATOM     55  H   UNL     1     141.742 170.508 190.853  0.00  0.00    +0.023 HD
ATOM     56  H   UNL     1     142.463 171.205 192.318  0.00  0.00    +0.023 HD
ATOM     57  H   UNL     1     142.600 169.472 191.983  0.00  0.00    +0.023 HD
ENDBRANCH  52  54
BRANCH  52  58
ATOM     58  C   UNL     1     143.748 171.772 189.610  0.00  0.00    +0.070 C 
ATOM     59  H   UNL     1     142.771 172.258 189.724  0.00  0.00    +0.061 HD
BRANCH  58  60
ATOM     60  C   UNL     1     144.823 172.906 189.633  0.00  0.00    +0.002 C 
ATOM     61  H   UNL     1     144.322 173.849 189.377  0.00  0.00    +0.037 HD
BRANCH  60  62
ATOM     62  C   UNL     1     145.506 173.048 190.981  0.00  0.00    -0.065 C 
ATOM     63  C   UNL     1     146.757 172.626 191.221  0.00  0.00    -0.005 C 
ATOM     64  H   UNL     1     144.906 173.516 191.759  0.00  0.00    +0.059 HD
ATOM     65  H   UNL     1     147.307 172.150 190.409  0.00  0.00    +0.078 HD
BRANCH  63  66
ATOM     66  N   UNL     1     147.441 172.717 192.424  0.00  0.00    -0.281 N 
ATOM     67  C   UNL     1     146.998 173.587 193.417  0.00  0.00    +0.206 C 
ATOM     68  O   UNL     1     147.532 173.792 194.501  0.00  0.00    -0.279 OA
ATOM     69  H   UNL     1     146.077 174.119 193.139  0.00  0.00    +0.126 HD
BRANCH  66  70
ATOM     70  C   UNL     1     148.663 171.961 192.697  0.00  0.00    +0.016 C 
ATOM     71  H   UNL     1     148.438 171.110 193.346  0.00  0.00    +0.047 HD
ATOM     72  H   UNL     1     149.358 172.594 193.264  0.00  0.00    +0.047 HD
BRANCH  70  73
ATOM     73  C   UNL     1     149.355 171.511 191.421  0.00  0.00    -0.049 C 
ATOM     74  H   UNL     1     149.646 170.456 191.475  0.00  0.00    +0.024 HD
ATOM     75  H   UNL     1     150.254 172.111 191.247  0.00  0.00    +0.024 HD
ATOM     76  H   UNL     1     148.691 171.624 190.559  0.00  0.00    +0.024 HD
ENDBRANCH  70  73
ENDBRANCH  66  70
ENDBRANCH  63  66
ENDBRANCH  60  62
BRANCH  60  77
ATOM     77  C   UNL     1     145.898 172.688 188.561  0.00  0.00    -0.057 C 
ATOM     78  H   UNL     1     145.524 172.100 187.715  0.00  0.00    +0.024 HD
ATOM     79  H   UNL     1     146.263 173.649 188.179  0.00  0.00    +0.024 HD
ATOM     80  H   UNL     1     146.759 172.153 188.978  0.00  0.00    +0.024 HD
ENDBRANCH  60  77
ENDBRANCH  58  60
BRANCH  58  81
ATOM     81  O   UNL     1     143.827 171.107 188.337  0.00  0.00    -0.379 OA
BRANCH  81  82
ATOM     82  C   UNL     1     142.634 171.185 187.568  0.00  0.00    +0.037 C 
ATOM     83  H   UNL     1     141.928 171.884 188.019  0.00  0.00    +0.052 HD
ATOM     84  H   UNL     1     142.849 171.482 186.538  0.00  0.00    +0.052 HD
ATOM     85  H   UNL     1     142.175 170.193 187.557  0.00  0.00    +0.052 HD
ENDBRANCH  81  82
ENDBRANCH  58  81
ENDBRANCH  52  58
ENDBRANCH   1  52
BRANCH   1  86
ATOM     86  O   UNL     1     144.069 168.269 191.133  0.00  0.00    -0.459 OA
BRANCH  86  88
ATOM     87  O   UNL     1     142.658 167.427 189.530  0.00  0.00    -0.248 OA
ATOM     88  C   UNL     1     143.197 167.352 190.627  0.00  0.00    +0.337 C 
BRANCH  88  89
ATOM     89  C   UNL     1     142.982 166.230 191.655  0.00  0.00    +0.155 C 
ATOM     90  O   UNL     1     141.607 166.119 192.064  0.00  0.00    -0.365 OA
ATOM     91  C   UNL     1     141.464 166.657 193.382  0.00  0.00    +0.049 C 
ATOM     92  C   UNL     1     142.786 167.295 193.752  0.00  0.00    -0.027 C 
ATOM     93  C   UNL     1     143.777 166.515 192.919  0.00  0.00    -0.014 C 
ATOM     94  H   UNL     1     143.269 165.280 191.189  0.00  0.00    +0.071 HD
ATOM     95  H   UNL     1     141.222 165.832 194.059  0.00  0.00    +0.056 HD
ATOM     96  H   UNL     1     140.640 167.374 193.396  0.00  0.00    +0.056 HD
ATOM     97  H   UNL     1     142.989 167.255 194.825  0.00  0.00    +0.029 HD
ATOM     98  H   UNL     1     142.793 168.348 193.449  0.00  0.00    +0.029 HD
ATOM     99  H   UNL     1     144.707 167.067 192.757  0.00  0.00    +0.030 HD
ATOM    100  H   UNL     1     144.017 165.568 193.427  0.00  0.00    +0.030 HD
ENDBRANCH  88  89
ENDBRANCH  86  88
ENDBRANCH   1  86
TORSDOF 32
ENDMDL
MODEL 6
REMARK VINA RESULT:      -4.7      2.910      7.833
REMARK  Name = 2a_conf1
REMARK  32 active torsions:
REMARK  status: ('A' for Active; 'I' for Inactive)
REMARK    1  A    between atoms: C_2  and  C_3
REMARK    2  A    between atoms: C_2  and  O_8
REMARK    3  A    between atoms: O_8  and  C_9
REMARK    4  A    between atoms: C_9  and  C_10
REMARK    5  A    between atoms: C_9  and  C_29
REMARK    6  A    between atoms: C_10  and  C_11
REMARK    7  A    between atoms: C_11  and  C_12
REMARK    8  A    between atoms: C_12  and  C_13
REMARK    9  A    between atoms: C_12  and  C_14
REMARK   10  A    between atoms: C_14  and  O_15
REMARK   11  A    between atoms: C_14  and  C_17
REMARK   12  A    between atoms: O_15  and  C_16
REMARK   13  A    between atoms: C_17  and  C_18
REMARK   14  A    between atoms: C_18  and  O_19
REMARK   15  A    between atoms: C_18  and  C_26
REMARK   16  A    between atoms: O_19  and  C_20
REMARK   17  A    between atoms: C_20  and  C_21
REMARK   18  A    between atoms: C_21  and  C_22
REMARK   19  A    between atoms: C_22  and  C_23
REMARK   20  A    between atoms: C_23  and  N_24
REMARK   21  A    between atoms: C_26  and  C_27
REMARK   22  A    between atoms: C_26  and  C_28
REMARK   23  A    between atoms: C_29  and  C_30
REMARK   24  A    between atoms: C_29  and  C_31
REMARK   25  A    between atoms: C_31  and  O_32
REMARK   26  A    between atoms: C_31  and  C_34
REMARK   27  A    between atoms: O_32  and  C_33
REMARK   28  A    between atoms: C_34  and  C_35
REMARK   29  A    between atoms: C_34  and  C_36
REMARK   30  A    between atoms: C_37  and  N_38
REMARK   31  A    between atoms: N_38  and  C_39
REMARK   32  A    between atoms: C_39  and  C_40
REMARK                            x       y       z     vdW  Elec       q    Type
REMARK                         _______ _______ _______ _____ _____    ______ ____
ROOT
ATOM      1  C   UNL     1     150.733 167.075 192.327  0.00  0.00    +0.108 C 
ATOM      2  H   UNL     1     150.069 166.651 191.564  0.00  0.00    +0.074 HD
ENDROOT
BRANCH   1   3
ATOM      3  C   UNL     1     150.688 168.609 192.185  0.00  0.00    -0.015 C 
ATOM      4  H   UNL     1     151.132 169.091 193.062  0.00  0.00    +0.030 HD
ATOM      5  H   UNL     1     151.273 168.897 191.311  0.00  0.00    +0.030 HD
BRANCH   3   6
ATOM      6  C   UNL     1     149.258 169.136 192.012  0.00  0.00    -0.045 C 
ATOM      7  H   UNL     1     148.750 168.601 191.203  0.00  0.00    +0.027 HD
ATOM      8  H   UNL     1     148.700 168.893 192.927  0.00  0.00    +0.027 HD
BRANCH   6   9
ATOM      9  C   UNL     1     149.179 170.665 191.781  0.00  0.00    -0.017 C 
ATOM     10  H   UNL     1     149.068 170.818 190.701  0.00  0.00    +0.032 HD
BRANCH   9  11
ATOM     11  C   UNL     1     150.523 171.302 192.172  0.00  0.00    -0.060 C 
ATOM     12  H   UNL     1     150.757 172.152 191.521  0.00  0.00    +0.023 HD
ATOM     13  H   UNL     1     150.524 171.651 193.210  0.00  0.00    +0.023 HD
ATOM     14  H   UNL     1     151.340 170.580 192.065  0.00  0.00    +0.023 HD
ENDBRANCH   9  11
BRANCH   9  15
ATOM     15  C   UNL     1     148.002 171.400 192.495  0.00  0.00    +0.064 C 
ATOM     16  H   UNL     1     147.374 170.638 192.968  0.00  0.00    +0.060 HD
BRANCH  15  17
ATOM     17  C   UNL     1     147.128 172.224 191.525  0.00  0.00    +0.011 C 
ATOM     18  H   UNL     1     146.516 172.917 192.117  0.00  0.00    +0.033 HD
ATOM     19  H   UNL     1     147.763 172.832 190.873  0.00  0.00    +0.033 HD
BRANCH  17  20
ATOM     20  C   UNL     1     146.164 171.412 190.626  0.00  0.00    +0.108 C 
ATOM     21  H   UNL     1     146.129 170.385 191.014  0.00  0.00    +0.074 HD
BRANCH  20  22
ATOM     22  C   UNL     1     144.708 171.942 190.585  0.00  0.00    -0.009 C 
ATOM     23  H   UNL     1     144.439 172.181 189.549  0.00  0.00    +0.033 HD
BRANCH  22  24
ATOM     24  C   UNL     1     143.720 170.861 191.046  0.00  0.00    -0.059 C 
ATOM     25  H   UNL     1     143.068 170.548 190.223  0.00  0.00    +0.023 HD
ATOM     26  H   UNL     1     143.084 171.230 191.858  0.00  0.00    +0.023 HD
ATOM     27  H   UNL     1     144.248 169.971 191.402  0.00  0.00    +0.023 HD
ENDBRANCH  22  24
BRANCH  22  28
ATOM     28  C   UNL     1     144.515 173.193 191.445  0.00  0.00    -0.059 C 
ATOM     29  H   UNL     1     143.458 173.334 191.703  0.00  0.00    +0.023 HD
ATOM     30  H   UNL     1     145.088 173.141 192.375  0.00  0.00    +0.023 HD
ATOM     31  H   UNL     1     144.855 174.088 190.911  0.00  0.00    +0.023 HD
ENDBRANCH  22  28
ENDBRANCH  20  22
BRANCH  20  32
ATOM     32  O   UNL     1     146.647 171.363 189.265  0.00  0.00    -0.461 OA
BRANCH  32  33
ATOM     33  C   UNL     1     146.411 170.214 188.573  0.00  0.00    +0.307 C 
ATOM     34  O   UNL     1     145.973 170.152 187.432  0.00  0.00    -0.251 OA
BRANCH  33  35
ATOM     35  C   UNL     1     146.760 169.020 189.429  0.00  0.00    +0.046 C 
ATOM     36  H   UNL     1     145.828 168.546 189.748  0.00  0.00    +0.038 HD
ATOM     37  H   UNL     1     147.298 169.374 190.316  0.00  0.00    +0.038 HD
BRANCH  35  38
ATOM     38  C   UNL     1     147.648 168.037 188.662  0.00  0.00    -0.031 C 
ATOM     39  H   UNL     1     147.234 167.860 187.660  0.00  0.00    +0.028 HD
ATOM     40  H   UNL     1     148.634 168.491 188.507  0.00  0.00    +0.028 HD
BRANCH  38  41
ATOM     41  C   UNL     1     147.829 166.707 189.391  0.00  0.00    -0.006 C 
ATOM     42  H   UNL     1     147.167 165.948 188.961  0.00  0.00    +0.042 HD
ATOM     43  H   UNL     1     147.553 166.826 190.446  0.00  0.00    +0.042 HD
BRANCH  41  44
ATOM     44  N   UNL     1     149.212 166.244 189.311  0.00  0.00    -0.330 NA
ATOM     45  H   UNL     1     149.792 166.992 188.926  0.00  0.00    +0.118 HD
ATOM     46  H   UNL     1     149.565 166.083 190.255  0.00  0.00    +0.118 HD
ENDBRANCH  41  44
ENDBRANCH  38  41
ENDBRANCH  35  38
ENDBRANCH  33  35
ENDBRANCH  32  33
ENDBRANCH  20  32
ENDBRANCH  17  20
ENDBRANCH  15  17
BRANCH  15  47
ATOM     47  O   UNL     1     148.476 172.288 193.516  0.00  0.00    -0.379 OA
BRANCH  47  48
ATOM     48  C   UNL     1     147.647 173.420 193.732  0.00  0.00    +0.037 C 
ATOM     49  H   UNL     1     147.229 173.777 192.787  0.00  0.00    +0.052 HD
ATOM     50  H   UNL     1     148.197 174.219 194.233  0.00  0.00    +0.052 HD
ATOM     51  H   UNL     1     146.817 173.113 194.375  0.00  0.00    +0.052 HD
ENDBRANCH  47  48
ENDBRANCH  15  47
ENDBRANCH   9  15
ENDBRANCH   6   9
ENDBRANCH   3   6
ENDBRANCH   1   3
BRANCH   1  52
ATOM     52  C   UNL     1     150.272 166.566 193.728  0.00  0.00    +0.020 C 
ATOM     53  H   UNL     1     150.020 167.460 194.314  0.00  0.00    +0.036 HD
BRANCH  52  54
ATOM     54  C   UNL     1     151.460 165.878 194.423  0.00  0.00    -0.057 C 
ATOM     55  H   UNL     1     151.769 164.983 193.869  0.00  0.00    +0.023 HD
ATOM     56  H   UNL     1     151.216 165.575 195.449  0.00  0.00    +0.023 HD
ATOM     57  H   UNL     1     152.333 166.536 194.466  0.00  0.00    +0.023 HD
ENDBRANCH  52  54
BRANCH  52  58
ATOM     58  C   UNL     1     148.993 165.668 193.690  0.00  0.00    +0.070 C 
ATOM     59  H   UNL     1     149.128 164.834 194.388  0.00  0.00    +0.061 HD
BRANCH  58  60
ATOM     60  C   UNL     1     147.680 166.403 194.110  0.00  0.00    +0.002 C 
ATOM     61  H   UNL     1     147.947 167.428 194.400  0.00  0.00    +0.037 HD
BRANCH  60  62
ATOM     62  C   UNL     1     146.644 166.447 193.001  0.00  0.00    -0.065 C 
ATOM     63  C   UNL     1     145.329 166.285 193.214  0.00  0.00    -0.005 C 
ATOM     64  H   UNL     1     147.041 166.613 192.001  0.00  0.00    +0.059 HD
ATOM     65  H   UNL     1     144.989 166.105 194.235  0.00  0.00    +0.078 HD
BRANCH  63  66
ATOM     66  N   UNL     1     144.329 166.307 192.254  0.00  0.00    -0.281 N 
ATOM     67  C   UNL     1     144.654 166.210 190.903  0.00  0.00    +0.206 C 
ATOM     68  O   UNL     1     143.875 166.259 189.959  0.00  0.00    -0.279 OA
ATOM     69  H   UNL     1     145.733 166.086 190.731  0.00  0.00    +0.126 HD
BRANCH  66  70
ATOM     70  C   UNL     1     142.916 166.476 192.589  0.00  0.00    +0.016 C 
ATOM     71  H   UNL     1     142.420 165.501 192.621  0.00  0.00    +0.047 HD
ATOM     72  H   UNL     1     142.421 167.037 191.786  0.00  0.00    +0.047 HD
BRANCH  70  73
ATOM     73  C   UNL     1     142.723 167.233 193.893  0.00  0.00    -0.049 C 
ATOM     74  H   UNL     1     141.873 167.924 193.832  0.00  0.00    +0.024 HD
ATOM     75  H   UNL     1     143.622 167.809 194.131  0.00  0.00    +0.024 HD
ATOM     76  H   UNL     1     142.525 166.542 194.717  0.00  0.00    +0.024 HD
ENDBRANCH  70  73
ENDBRANCH  66  70
ENDBRANCH  63  66
ENDBRANCH  60  62
BRANCH  60  77
ATOM     77  C   UNL     1     147.043 165.760 195.349  0.00  0.00    -0.057 C 
ATOM     78  H   UNL     1     145.949 165.823 195.330  0.00  0.00    +0.024 HD
ATOM     79  H   UNL     1     147.326 164.704 195.423  0.00  0.00    +0.024 HD
ATOM     80  H   UNL     1     147.385 166.257 196.264  0.00  0.00    +0.024 HD
ENDBRANCH  60  77
ENDBRANCH  58  60
BRANCH  58  81
ATOM     81  O   UNL     1     148.819 165.172 192.350  0.00  0.00    -0.379 OA
BRANCH  81  82
ATOM     82  C   UNL     1     149.104 163.787 192.204  0.00  0.00    +0.037 C 
ATOM     83  H   UNL     1     150.133 163.638 191.872  0.00  0.00    +0.052 HD
ATOM     84  H   UNL     1     148.928 163.248 193.138  0.00  0.00    +0.052 HD
ATOM     85  H   UNL     1     148.436 163.386 191.437  0.00  0.00    +0.052 HD
ENDBRANCH  81  82
ENDBRANCH  58  81
ENDBRANCH  52  58
ENDBRANCH   1  52
BRANCH   1  86
ATOM     86  O   UNL     1     152.088 166.664 192.050  0.00  0.00    -0.459 OA
BRANCH  86  88
ATOM     87  O   UNL     1     151.876 164.933 190.559  0.00  0.00    -0.248 OA
ATOM     88  C   UNL     1     152.307 166.039 190.860  0.00  0.00    +0.337 C 
BRANCH  88  89
ATOM     89  C   UNL     1     153.194 166.925 189.970  0.00  0.00    +0.155 C 
ATOM     90  O   UNL     1     152.423 167.775 189.103  0.00  0.00    -0.365 OA
ATOM     91  C   UNL     1     152.481 167.261 187.769  0.00  0.00    +0.049 C 
ATOM     92  C   UNL     1     153.185 165.922 187.834  0.00  0.00    -0.027 C 
ATOM     93  C   UNL     1     154.056 166.063 189.061  0.00  0.00    -0.014 C 
ATOM     94  H   UNL     1     153.795 167.570 190.622  0.00  0.00    +0.071 HD
ATOM     95  H   UNL     1     153.043 167.972 187.156  0.00  0.00    +0.056 HD
ATOM     96  H   UNL     1     151.469 167.177 187.366  0.00  0.00    +0.056 HD
ATOM     97  H   UNL     1     153.744 165.694 186.924  0.00  0.00    +0.029 HD
ATOM     98  H   UNL     1     152.454 165.119 187.987  0.00  0.00    +0.029 HD
ATOM     99  H   UNL     1     154.335 165.093 189.484  0.00  0.00    +0.030 HD
ATOM    100  H   UNL     1     154.975 166.607 188.797  0.00  0.00    +0.030 HD
ENDBRANCH  88  89
ENDBRANCH  86  88
ENDBRANCH   1  86
TORSDOF 32
ENDMDL
MODEL 7
REMARK VINA RESULT:      -4.7      3.877      7.065
REMARK  Name = 2a_conf1
REMARK  32 active torsions:
REMARK  status: ('A' for Active; 'I' for Inactive)
REMARK    1  A    between atoms: C_2  and  C_3
REMARK    2  A    between atoms: C_2  and  O_8
REMARK    3  A    between atoms: O_8  and  C_9
REMARK    4  A    between atoms: C_9  and  C_10
REMARK    5  A    between atoms: C_9  and  C_29
REMARK    6  A    between atoms: C_10  and  C_11
REMARK    7  A    between atoms: C_11  and  C_12
REMARK    8  A    between atoms: C_12  and  C_13
REMARK    9  A    between atoms: C_12  and  C_14
REMARK   10  A    between atoms: C_14  and  O_15
REMARK   11  A    between atoms: C_14  and  C_17
REMARK   12  A    between atoms: O_15  and  C_16
REMARK   13  A    between atoms: C_17  and  C_18
REMARK   14  A    between atoms: C_18  and  O_19
REMARK   15  A    between atoms: C_18  and  C_26
REMARK   16  A    between atoms: O_19  and  C_20
REMARK   17  A    between atoms: C_20  and  C_21
REMARK   18  A    between atoms: C_21  and  C_22
REMARK   19  A    between atoms: C_22  and  C_23
REMARK   20  A    between atoms: C_23  and  N_24
REMARK   21  A    between atoms: C_26  and  C_27
REMARK   22  A    between atoms: C_26  and  C_28
REMARK   23  A    between atoms: C_29  and  C_30
REMARK   24  A    between atoms: C_29  and  C_31
REMARK   25  A    between atoms: C_31  and  O_32
REMARK   26  A    between atoms: C_31  and  C_34
REMARK   27  A    between atoms: O_32  and  C_33
REMARK   28  A    between atoms: C_34  and  C_35
REMARK   29  A    between atoms: C_34  and  C_36
REMARK   30  A    between atoms: C_37  and  N_38
REMARK   31  A    between atoms: N_38  and  C_39
REMARK   32  A    between atoms: C_39  and  C_40
REMARK                            x       y       z     vdW  Elec       q    Type
REMARK                         _______ _______ _______ _____ _____    ______ ____
ROOT
ATOM      1  C   UNL     1     145.858 169.922 189.901  0.00  0.00    +0.108 C 
ATOM      2  H   UNL     1     145.897 169.222 189.057  0.00  0.00    +0.074 HD
ENDROOT
BRANCH   1   3
ATOM      3  C   UNL     1     147.309 170.262 190.293  0.00  0.00    -0.015 C 
ATOM      4  H   UNL     1     148.018 169.679 189.697  0.00  0.00    +0.030 HD
ATOM      5  H   UNL     1     147.489 171.319 190.091  0.00  0.00    +0.030 HD
BRANCH   3   6
ATOM      6  C   UNL     1     147.589 169.995 191.778  0.00  0.00    -0.045 C 
ATOM      7  H   UNL     1     147.107 170.757 192.399  0.00  0.00    +0.027 HD
ATOM      8  H   UNL     1     147.104 169.044 192.043  0.00  0.00    +0.027 HD
BRANCH   6   9
ATOM      9  C   UNL     1     149.095 169.890 192.122  0.00  0.00    -0.017 C 
ATOM     10  H   UNL     1     149.181 170.002 193.209  0.00  0.00    +0.032 HD
BRANCH   9  11
ATOM     11  C   UNL     1     149.835 171.088 191.504  0.00  0.00    -0.060 C 
ATOM     12  H   UNL     1     149.314 171.452 190.611  0.00  0.00    +0.023 HD
ATOM     13  H   UNL     1     149.929 171.919 192.211  0.00  0.00    +0.023 HD
ATOM     14  H   UNL     1     150.846 170.801 191.193  0.00  0.00    +0.023 HD
ENDBRANCH   9  11
BRANCH   9  15
ATOM     15  C   UNL     1     149.793 168.555 191.718  0.00  0.00    +0.064 C 
ATOM     16  H   UNL     1     149.956 168.580 190.635  0.00  0.00    +0.060 HD
BRANCH  15  17
ATOM     17  C   UNL     1     148.949 167.306 192.057  0.00  0.00    +0.011 C 
ATOM     18  H   UNL     1     147.899 167.529 191.826  0.00  0.00    +0.033 HD
ATOM     19  H   UNL     1     149.247 166.468 191.418  0.00  0.00    +0.033 HD
BRANCH  17  20
ATOM     20  C   UNL     1     149.008 166.827 193.527  0.00  0.00    +0.108 C 
ATOM     21  H   UNL     1     149.809 167.386 194.029  0.00  0.00    +0.074 HD
BRANCH  20  22
ATOM     22  C   UNL     1     147.706 167.053 194.339  0.00  0.00    -0.009 C 
ATOM     23  H   UNL     1     147.435 168.115 194.297  0.00  0.00    +0.033 HD
BRANCH  22  24
ATOM     24  C   UNL     1     146.533 166.286 193.712  0.00  0.00    -0.059 C 
ATOM     25  H   UNL     1     145.573 166.713 194.025  0.00  0.00    +0.023 HD
ATOM     26  H   UNL     1     146.546 165.233 194.012  0.00  0.00    +0.023 HD
ATOM     27  H   UNL     1     146.571 166.332 192.620  0.00  0.00    +0.023 HD
ENDBRANCH  22  24
BRANCH  22  28
ATOM     28  C   UNL     1     147.848 166.637 195.804  0.00  0.00    -0.059 C 
ATOM     29  H   UNL     1     147.003 166.013 196.120  0.00  0.00    +0.023 HD
ATOM     30  H   UNL     1     148.770 166.075 195.981  0.00  0.00    +0.023 HD
ATOM     31  H   UNL     1     147.881 167.517 196.456  0.00  0.00    +0.023 HD
ENDBRANCH  22  28
ENDBRANCH  20  22
BRANCH  20  32
ATOM     32  O   UNL     1     149.326 165.419 193.598  0.00  0.00    -0.461 OA
BRANCH  32  33
ATOM     33  C   UNL     1     150.642 165.084 193.491  0.00  0.00    +0.307 C 
ATOM     34  O   UNL     1     151.117 164.349 192.637  0.00  0.00    -0.251 OA
BRANCH  33  35
ATOM     35  C   UNL     1     151.430 165.749 194.594  0.00  0.00    +0.046 C 
ATOM     36  H   UNL     1     151.307 166.831 194.494  0.00  0.00    +0.038 HD
ATOM     37  H   UNL     1     152.489 165.501 194.462  0.00  0.00    +0.038 HD
BRANCH  35  38
ATOM     38  C   UNL     1     150.967 165.264 195.969  0.00  0.00    -0.031 C 
ATOM     39  H   UNL     1     151.132 166.049 196.719  0.00  0.00    +0.028 HD
ATOM     40  H   UNL     1     149.885 165.092 195.942  0.00  0.00    +0.028 HD
BRANCH  38  41
ATOM     41  C   UNL     1     151.658 163.974 196.408  0.00  0.00    -0.006 C 
ATOM     42  H   UNL     1     152.275 164.159 197.293  0.00  0.00    +0.042 HD
ATOM     43  H   UNL     1     152.323 163.624 195.608  0.00  0.00    +0.042 HD
BRANCH  41  44
ATOM     44  N   UNL     1     150.684 162.928 196.707  0.00  0.00    -0.330 NA
ATOM     45  H   UNL     1     150.480 162.408 195.851  0.00  0.00    +0.118 HD
ATOM     46  H   UNL     1     151.105 162.252 197.345  0.00  0.00    +0.118 HD
ENDBRANCH  41  44
ENDBRANCH  38  41
ENDBRANCH  35  38
ENDBRANCH  33  35
ENDBRANCH  32  33
ENDBRANCH  20  32
ENDBRANCH  17  20
ENDBRANCH  15  17
BRANCH  15  47
ATOM     47  O   UNL     1     151.066 168.409 192.360  0.00  0.00    -0.379 OA
BRANCH  47  48
ATOM     48  C   UNL     1     152.093 167.922 191.510  0.00  0.00    +0.037 C 
ATOM     49  H   UNL     1     151.779 166.998 191.016  0.00  0.00    +0.052 HD
ATOM     50  H   UNL     1     153.019 167.762 192.066  0.00  0.00    +0.052 HD
ATOM     51  H   UNL     1     152.277 168.674 190.738  0.00  0.00    +0.052 HD
ENDBRANCH  47  48
ENDBRANCH  15  47
ENDBRANCH   9  15
ENDBRANCH   6   9
ENDBRANCH   3   6
ENDBRANCH   1   3
BRANCH   1  52
ATOM     52  C   UNL     1     145.021 171.169 189.475  0.00  0.00    +0.020 C 
ATOM     53  H   UNL     1     144.240 170.799 188.797  0.00  0.00    +0.036 HD
BRANCH  52  54
ATOM     54  C   UNL     1     145.921 172.120 188.666  0.00  0.00    -0.057 C 
ATOM     55  H   UNL     1     146.169 173.013 189.253  0.00  0.00    +0.023 HD
ATOM     56  H   UNL     1     145.440 172.447 187.736  0.00  0.00    +0.023 HD
ATOM     57  H   UNL     1     146.871 171.645 188.404  0.00  0.00    +0.023 HD
ENDBRANCH  52  54
BRANCH  52  58
ATOM     58  C   UNL     1     144.298 171.885 190.661  0.00  0.00    +0.070 C 
ATOM     59  H   UNL     1     144.395 171.262 191.558  0.00  0.00    +0.061 HD
BRANCH  58  60
ATOM     60  C   UNL     1     144.884 173.289 191.017  0.00  0.00    +0.002 C 
ATOM     61  H   UNL     1     145.451 173.646 190.148  0.00  0.00    +0.037 HD
BRANCH  60  62
ATOM     62  C   UNL     1     143.814 174.304 191.374  0.00  0.00    -0.065 C 
ATOM     63  C   UNL     1     143.434 174.562 192.636  0.00  0.00    -0.005 C 
ATOM     64  H   UNL     1     143.358 174.816 190.529  0.00  0.00    +0.059 HD
ATOM     65  H   UNL     1     143.914 174.008 193.443  0.00  0.00    +0.078 HD
BRANCH  63  66
ATOM     66  N   UNL     1     142.464 175.469 193.035  0.00  0.00    -0.281 N 
ATOM     67  C   UNL     1     142.271 176.647 192.320  0.00  0.00    +0.206 C 
ATOM     68  O   UNL     1     141.481 177.545 192.590  0.00  0.00    -0.279 OA
ATOM     69  H   UNL     1     142.925 176.726 191.440  0.00  0.00    +0.126 HD
BRANCH  66  70
ATOM     70  C   UNL     1     141.640 175.269 194.227  0.00  0.00    +0.016 C 
ATOM     71  H   UNL     1     141.007 176.146 194.394  0.00  0.00    +0.047 HD
ATOM     72  H   UNL     1     142.292 175.199 195.107  0.00  0.00    +0.047 HD
BRANCH  70  73
ATOM     73  C   UNL     1     140.809 174.000 194.142  0.00  0.00    -0.049 C 
ATOM     74  H   UNL     1     140.031 174.081 193.373  0.00  0.00    +0.024 HD
ATOM     75  H   UNL     1     140.326 173.800 195.104  0.00  0.00    +0.024 HD
ATOM     76  H   UNL     1     141.436 173.142 193.885  0.00  0.00    +0.024 HD
ENDBRANCH  70  73
ENDBRANCH  66  70
ENDBRANCH  63  66
ENDBRANCH  60  62
BRANCH  60  77
ATOM     77  C   UNL     1     145.885 173.206 192.177  0.00  0.00    -0.057 C 
ATOM     78  H   UNL     1     146.573 172.360 192.068  0.00  0.00    +0.024 HD
ATOM     79  H   UNL     1     146.478 174.126 192.241  0.00  0.00    +0.024 HD
ATOM     80  H   UNL     1     145.363 173.084 193.132  0.00  0.00    +0.024 HD
ENDBRANCH  60  77
ENDBRANCH  58  60
BRANCH  58  81
ATOM     81  O   UNL     1     142.910 172.053 190.320  0.00  0.00    -0.379 OA
BRANCH  81  82
ATOM     82  C   UNL     1     142.014 171.369 191.185  0.00  0.00    +0.037 C 
ATOM     83  H   UNL     1     141.563 172.060 191.900  0.00  0.00    +0.052 HD
ATOM     84  H   UNL     1     141.235 170.853 190.618  0.00  0.00    +0.052 HD
ATOM     85  H   UNL     1     142.589 170.627 191.745  0.00  0.00    +0.052 HD
ENDBRANCH  81  82
ENDBRANCH  58  81
ENDBRANCH  52  58
ENDBRANCH   1  52
BRANCH   1  86
ATOM     86  O   UNL     1     145.257 169.261 191.033  0.00  0.00    -0.459 OA
BRANCH  86  88
ATOM     87  O   UNL     1     145.329 167.087 190.303  0.00  0.00    -0.248 OA
ATOM     88  C   UNL     1     144.729 168.025 190.811  0.00  0.00    +0.337 C 
BRANCH  88  89
ATOM     89  C   UNL     1     143.263 168.004 191.275  0.00  0.00    +0.155 C 
ATOM     90  O   UNL     1     143.117 168.423 192.644  0.00  0.00    -0.365 OA
ATOM     91  C   UNL     1     142.859 167.277 193.461  0.00  0.00    +0.049 C 
ATOM     92  C   UNL     1     143.023 166.054 192.584  0.00  0.00    -0.027 C 
ATOM     93  C   UNL     1     142.710 166.588 191.205  0.00  0.00    -0.014 C 
ATOM     94  H   UNL     1     142.696 168.702 190.648  0.00  0.00    +0.071 HD
ATOM     95  H   UNL     1     141.836 167.355 193.840  0.00  0.00    +0.056 HD
ATOM     96  H   UNL     1     143.547 167.273 194.310  0.00  0.00    +0.056 HD
ATOM     97  H   UNL     1     142.379 165.226 192.889  0.00  0.00    +0.029 HD
ATOM     98  H   UNL     1     144.060 165.701 192.620  0.00  0.00    +0.029 HD
ATOM     99  H   UNL     1     143.143 165.969 190.413  0.00  0.00    +0.030 HD
ATOM    100  H   UNL     1     141.620 166.623 191.065  0.00  0.00    +0.030 HD
ENDBRANCH  88  89
ENDBRANCH  86  88
ENDBRANCH   1  86
TORSDOF 32
ENDMDL
MODEL 8
REMARK VINA RESULT:      -4.6      2.929      7.319
REMARK  Name = 2a_conf1
REMARK  32 active torsions:
REMARK  status: ('A' for Active; 'I' for Inactive)
REMARK    1  A    between atoms: C_2  and  C_3
REMARK    2  A    between atoms: C_2  and  O_8
REMARK    3  A    between atoms: O_8  and  C_9
REMARK    4  A    between atoms: C_9  and  C_10
REMARK    5  A    between atoms: C_9  and  C_29
REMARK    6  A    between atoms: C_10  and  C_11
REMARK    7  A    between atoms: C_11  and  C_12
REMARK    8  A    between atoms: C_12  and  C_13
REMARK    9  A    between atoms: C_12  and  C_14
REMARK   10  A    between atoms: C_14  and  O_15
REMARK   11  A    between atoms: C_14  and  C_17
REMARK   12  A    between atoms: O_15  and  C_16
REMARK   13  A    between atoms: C_17  and  C_18
REMARK   14  A    between atoms: C_18  and  O_19
REMARK   15  A    between atoms: C_18  and  C_26
REMARK   16  A    between atoms: O_19  and  C_20
REMARK   17  A    between atoms: C_20  and  C_21
REMARK   18  A    between atoms: C_21  and  C_22
REMARK   19  A    between atoms: C_22  and  C_23
REMARK   20  A    between atoms: C_23  and  N_24
REMARK   21  A    between atoms: C_26  and  C_27
REMARK   22  A    between atoms: C_26  and  C_28
REMARK   23  A    between atoms: C_29  and  C_30
REMARK   24  A    between atoms: C_29  and  C_31
REMARK   25  A    between atoms: C_31  and  O_32
REMARK   26  A    between atoms: C_31  and  C_34
REMARK   27  A    between atoms: O_32  and  C_33
REMARK   28  A    between atoms: C_34  and  C_35
REMARK   29  A    between atoms: C_34  and  C_36
REMARK   30  A    between atoms: C_37  and  N_38
REMARK   31  A    between atoms: N_38  and  C_39
REMARK   32  A    between atoms: C_39  and  C_40
REMARK                            x       y       z     vdW  Elec       q    Type
REMARK                         _______ _______ _______ _____ _____    ______ ____
ROOT
ATOM      1  C   UNL     1     147.125 168.894 191.077  0.00  0.00    +0.108 C 
ATOM      2  H   UNL     1     146.442 169.159 191.894  0.00  0.00    +0.074 HD
ENDROOT
BRANCH   1   3
ATOM      3  C   UNL     1     148.287 168.084 191.683  0.00  0.00    -0.015 C 
ATOM      4  H   UNL     1     148.415 167.134 191.155  0.00  0.00    +0.030 HD
ATOM      5  H   UNL     1     149.209 168.658 191.571  0.00  0.00    +0.030 HD
BRANCH   3   6
ATOM      6  C   UNL     1     148.076 167.787 193.174  0.00  0.00    -0.045 C 
ATOM      7  H   UNL     1     148.655 168.484 193.787  0.00  0.00    +0.027 HD
ATOM      8  H   UNL     1     147.021 167.989 193.408  0.00  0.00    +0.027 HD
BRANCH   6   9
ATOM      9  C   UNL     1     148.395 166.325 193.571  0.00  0.00    -0.017 C 
ATOM     10  H   UNL     1     148.506 165.759 192.638  0.00  0.00    +0.032 HD
BRANCH   9  11
ATOM     11  C   UNL     1     147.180 165.725 194.298  0.00  0.00    -0.060 C 
ATOM     12  H   UNL     1     147.092 166.131 195.312  0.00  0.00    +0.023 HD
ATOM     13  H   UNL     1     146.245 165.923 193.764  0.00  0.00    +0.023 HD
ATOM     14  H   UNL     1     147.283 164.639 194.394  0.00  0.00    +0.023 HD
ENDBRANCH   9  11
BRANCH   9  15
ATOM     15  C   UNL     1     149.690 166.118 194.417  0.00  0.00    +0.064 C 
ATOM     16  H   UNL     1     150.069 167.109 194.690  0.00  0.00    +0.060 HD
BRANCH  15  17
ATOM     17  C   UNL     1     150.798 165.364 193.649  0.00  0.00    +0.011 C 
ATOM     18  H   UNL     1     151.737 165.469 194.209  0.00  0.00    +0.033 HD
ATOM     19  H   UNL     1     150.565 164.295 193.611  0.00  0.00    +0.033 HD
BRANCH  17  20
ATOM     20  C   UNL     1     151.067 165.844 192.203  0.00  0.00    +0.108 C 
ATOM     21  H   UNL     1     150.165 166.360 191.848  0.00  0.00    +0.074 HD
BRANCH  20  22
ATOM     22  C   UNL     1     152.254 166.831 192.054  0.00  0.00    -0.009 C 
ATOM     23  H   UNL     1     153.027 166.579 192.791  0.00  0.00    +0.033 HD
BRANCH  22  24
ATOM     24  C   UNL     1     152.913 166.688 190.675  0.00  0.00    -0.059 C 
ATOM     25  H   UNL     1     153.264 165.662 190.512  0.00  0.00    +0.023 HD
ATOM     26  H   UNL     1     153.775 167.357 190.579  0.00  0.00    +0.023 HD
ATOM     27  H   UNL     1     152.206 166.923 189.874  0.00  0.00    +0.023 HD
ENDBRANCH  22  24
BRANCH  22  28
ATOM     28  C   UNL     1     151.835 168.288 192.258  0.00  0.00    -0.059 C 
ATOM     29  H   UNL     1     152.672 168.969 192.060  0.00  0.00    +0.023 HD
ATOM     30  H   UNL     1     151.005 168.569 191.603  0.00  0.00    +0.023 HD
ATOM     31  H   UNL     1     151.499 168.455 193.287  0.00  0.00    +0.023 HD
ENDBRANCH  22  28
ENDBRANCH  20  22
BRANCH  20  32
ATOM     32  O   UNL     1     151.321 164.723 191.327  0.00  0.00    -0.461 OA
BRANCH  32  33
ATOM     33  C   UNL     1     150.231 164.053 190.861  0.00  0.00    +0.307 C 
ATOM     34  O   UNL     1     150.036 162.851 190.981  0.00  0.00    -0.251 OA
BRANCH  33  35
ATOM     35  C   UNL     1     149.298 165.014 190.164  0.00  0.00    +0.046 C 
ATOM     36  H   UNL     1     149.143 165.873 190.822  0.00  0.00    +0.038 HD
ATOM     37  H   UNL     1     148.337 164.512 190.007  0.00  0.00    +0.038 HD
BRANCH  35  38
ATOM     38  C   UNL     1     149.867 165.447 188.812  0.00  0.00    -0.031 C 
ATOM     39  H   UNL     1     150.872 165.024 188.674  0.00  0.00    +0.028 HD
ATOM     40  H   UNL     1     149.249 165.023 188.011  0.00  0.00    +0.028 HD
BRANCH  38  41
ATOM     41  C   UNL     1     149.915 166.964 188.644  0.00  0.00    -0.006 C 
ATOM     42  H   UNL     1     150.708 167.388 189.270  0.00  0.00    +0.042 HD
ATOM     43  H   UNL     1     148.964 167.399 188.977  0.00  0.00    +0.042 HD
BRANCH  41  44
ATOM     44  N   UNL     1     150.146 167.336 187.251  0.00  0.00    -0.330 NA
ATOM     45  H   UNL     1     150.406 166.502 186.722  0.00  0.00    +0.118 HD
ATOM     46  H   UNL     1     149.268 167.657 186.842  0.00  0.00    +0.118 HD
ENDBRANCH  41  44
ENDBRANCH  38  41
ENDBRANCH  35  38
ENDBRANCH  33  35
ENDBRANCH  32  33
ENDBRANCH  20  32
ENDBRANCH  17  20
ENDBRANCH  15  17
BRANCH  15  47
ATOM     47  O   UNL     1     149.422 165.391 195.623  0.00  0.00    -0.379 OA
BRANCH  47  48
ATOM     48  C   UNL     1     150.586 164.941 196.300  0.00  0.00    +0.037 C 
ATOM     49  H   UNL     1     150.512 165.145 197.371  0.00  0.00    +0.052 HD
ATOM     50  H   UNL     1     151.484 165.402 195.884  0.00  0.00    +0.052 HD
ATOM     51  H   UNL     1     150.658 163.858 196.165  0.00  0.00    +0.052 HD
ENDBRANCH  47  48
ENDBRANCH  15  47
ENDBRANCH   9  15
ENDBRANCH   6   9
ENDBRANCH   3   6
ENDBRANCH   1   3
BRANCH   1  52
ATOM     52  C   UNL     1     146.322 168.111 189.991  0.00  0.00    +0.020 C 
ATOM     53  H   UNL     1     146.692 167.077 190.019  0.00  0.00    +0.036 HD
BRANCH  52  54
ATOM     54  C   UNL     1     146.665 168.687 188.607  0.00  0.00    -0.057 C 
ATOM     55  H   UNL     1     147.458 168.100 188.127  0.00  0.00    +0.023 HD
ATOM     56  H   UNL     1     147.005 169.729 188.669  0.00  0.00    +0.023 HD
ATOM     57  H   UNL     1     145.803 168.655 187.935  0.00  0.00    +0.023 HD
ENDBRANCH  52  54
BRANCH  52  58
ATOM     58  C   UNL     1     144.783 168.053 190.256  0.00  0.00    +0.070 C 
ATOM     59  H   UNL     1     144.257 168.262 189.317  0.00  0.00    +0.061 HD
BRANCH  58  60
ATOM     60  C   UNL     1     144.270 166.667 190.765  0.00  0.00    +0.002 C 
ATOM     61  H   UNL     1     143.216 166.572 190.473  0.00  0.00    +0.037 HD
BRANCH  60  62
ATOM     62  C   UNL     1     145.058 165.500 190.197  0.00  0.00    -0.065 C 
ATOM     63  C   UNL     1     144.581 164.684 189.244  0.00  0.00    -0.005 C 
ATOM     64  H   UNL     1     146.049 165.357 190.623  0.00  0.00    +0.059 HD
ATOM     65  H   UNL     1     143.576 164.864 188.864  0.00  0.00    +0.078 HD
BRANCH  63  66
ATOM     66  N   UNL     1     145.239 163.599 188.683  0.00  0.00    -0.281 N 
ATOM     67  C   UNL     1     144.651 162.338 188.703  0.00  0.00    +0.206 C 
ATOM     68  O   UNL     1     145.141 161.296 188.282  0.00  0.00    -0.279 OA
ATOM     69  H   UNL     1     143.652 162.339 189.162  0.00  0.00    +0.126 HD
BRANCH  66  70
ATOM     70  C   UNL     1     146.573 163.704 188.093  0.00  0.00    +0.016 C 
ATOM     71  H   UNL     1     146.910 162.719 187.755  0.00  0.00    +0.047 HD
ATOM     72  H   UNL     1     147.285 164.013 188.868  0.00  0.00    +0.047 HD
BRANCH  70  73
ATOM     73  C   UNL     1     146.622 164.719 186.963  0.00  0.00    -0.049 C 
ATOM     74  H   UNL     1     146.840 165.725 187.339  0.00  0.00    +0.024 HD
ATOM     75  H   UNL     1     145.663 164.745 186.437  0.00  0.00    +0.024 HD
ATOM     76  H   UNL     1     147.404 164.461 186.243  0.00  0.00    +0.024 HD
ENDBRANCH  70  73
ENDBRANCH  66  70
ENDBRANCH  63  66
ENDBRANCH  60  62
BRANCH  60  77
ATOM     77  C   UNL     1     144.302 166.579 192.296  0.00  0.00    -0.057 C 
ATOM     78  H   UNL     1     144.650 165.600 192.645  0.00  0.00    +0.024 HD
ATOM     79  H   UNL     1     144.960 167.349 192.713  0.00  0.00    +0.024 HD
ATOM     80  H   UNL     1     143.301 166.740 192.714  0.00  0.00    +0.024 HD
ENDBRANCH  60  77
ENDBRANCH  58  60
BRANCH  58  81
ATOM     81  O   UNL     1     144.447 169.044 191.244  0.00  0.00    -0.379 OA
BRANCH  81  82
ATOM     82  C   UNL     1     143.492 169.999 190.805  0.00  0.00    +0.037 C 
ATOM     83  H   UNL     1     142.496 169.555 190.755  0.00  0.00    +0.052 HD
ATOM     84  H   UNL     1     143.480 170.875 191.460  0.00  0.00    +0.052 HD
ATOM     85  H   UNL     1     143.775 170.319 189.799  0.00  0.00    +0.052 HD
ENDBRANCH  81  82
ENDBRANCH  58  81
ENDBRANCH  52  58
ENDBRANCH   1  52
BRANCH   1  86
ATOM     86  O   UNL     1     147.691 170.102 190.528  0.00  0.00    -0.459 OA
BRANCH  86  88
ATOM     87  O   UNL     1     146.471 171.618 191.744  0.00  0.00    -0.248 OA
ATOM     88  C   UNL     1     147.530 171.240 191.259  0.00  0.00    +0.337 C 
BRANCH  88  89
ATOM     89  C   UNL     1     148.874 171.980 191.357  0.00  0.00    +0.155 C 
ATOM     90  O   UNL     1     149.558 171.709 192.593  0.00  0.00    -0.365 OA
ATOM     91  C   UNL     1     149.450 172.849 193.450  0.00  0.00    +0.049 C 
ATOM     92  C   UNL     1     148.501 173.822 192.785  0.00  0.00    -0.027 C 
ATOM     93  C   UNL     1     148.650 173.484 191.319  0.00  0.00    -0.014 C 
ATOM     94  H   UNL     1     149.514 171.635 190.537  0.00  0.00    +0.071 HD
ATOM     95  H   UNL     1     150.447 173.285 193.562  0.00  0.00    +0.056 HD
ATOM     96  H   UNL     1     149.096 172.532 194.435  0.00  0.00    +0.056 HD
ATOM     97  H   UNL     1     148.731 174.864 193.019  0.00  0.00    +0.029 HD
ATOM     98  H   UNL     1     147.472 173.626 193.109  0.00  0.00    +0.029 HD
ATOM     99  H   UNL     1     147.784 173.801 190.731  0.00  0.00    +0.030 HD
ATOM    100  H   UNL     1     149.545 173.982 190.918  0.00  0.00    +0.030 HD
ENDBRANCH  88  89
ENDBRANCH  86  88
ENDBRANCH   1  86
TORSDOF 32
ENDMDL
MODEL 9
REMARK VINA RESULT:      -4.6      2.411      3.473
REMARK  Name = 2a_conf1
REMARK  32 active torsions:
REMARK  status: ('A' for Active; 'I' for Inactive)
REMARK    1  A    between atoms: C_2  and  C_3
REMARK    2  A    between atoms: C_2  and  O_8
REMARK    3  A    between atoms: O_8  and  C_9
REMARK    4  A    between atoms: C_9  and  C_10
REMARK    5  A    between atoms: C_9  and  C_29
REMARK    6  A    between atoms: C_10  and  C_11
REMARK    7  A    between atoms: C_11  and  C_12
REMARK    8  A    between atoms: C_12  and  C_13
REMARK    9  A    between atoms: C_12  and  C_14
REMARK   10  A    between atoms: C_14  and  O_15
REMARK   11  A    between atoms: C_14  and  C_17
REMARK   12  A    between atoms: O_15  and  C_16
REMARK   13  A    between atoms: C_17  and  C_18
REMARK   14  A    between atoms: C_18  and  O_19
REMARK   15  A    between atoms: C_18  and  C_26
REMARK   16  A    between atoms: O_19  and  C_20
REMARK   17  A    between atoms: C_20  and  C_21
REMARK   18  A    between atoms: C_21  and  C_22
REMARK   19  A    between atoms: C_22  and  C_23
REMARK   20  A    between atoms: C_23  and  N_24
REMARK   21  A    between atoms: C_26  and  C_27
REMARK   22  A    between atoms: C_26  and  C_28
REMARK   23  A    between atoms: C_29  and  C_30
REMARK   24  A    between atoms: C_29  and  C_31
REMARK   25  A    between atoms: C_31  and  O_32
REMARK   26  A    between atoms: C_31  and  C_34
REMARK   27  A    between atoms: O_32  and  C_33
REMARK   28  A    between atoms: C_34  and  C_35
REMARK   29  A    between atoms: C_34  and  C_36
REMARK   30  A    between atoms: C_37  and  N_38
REMARK   31  A    between atoms: N_38  and  C_39
REMARK   32  A    between atoms: C_39  and  C_40
REMARK                            x       y       z     vdW  Elec       q    Type
REMARK                         _______ _______ _______ _____ _____    ______ ____
ROOT
ATOM      1  C   UNL     1     149.578 165.616 191.059  0.00  0.00    +0.108 C 
ATOM      2  H   UNL     1     149.078 164.655 190.884  0.00  0.00    +0.074 HD
ENDROOT
BRANCH   1   3
ATOM      3  C   UNL     1     150.463 165.912 189.833  0.00  0.00    -0.015 C 
ATOM      4  H   UNL     1     150.564 165.021 189.204  0.00  0.00    +0.030 HD
ATOM      5  H   UNL     1     149.986 166.692 189.236  0.00  0.00    +0.030 HD
BRANCH   3   6
ATOM      6  C   UNL     1     151.867 166.389 190.228  0.00  0.00    -0.045 C 
ATOM      7  H   UNL     1     151.805 167.115 191.044  0.00  0.00    +0.027 HD
ATOM      8  H   UNL     1     152.409 165.525 190.637  0.00  0.00    +0.027 HD
BRANCH   6   9
ATOM      9  C   UNL     1     152.685 166.969 189.049  0.00  0.00    -0.017 C 
ATOM     10  H   UNL     1     153.060 167.947 189.373  0.00  0.00    +0.032 HD
BRANCH   9  11
ATOM     11  C   UNL     1     151.741 167.238 187.866  0.00  0.00    -0.060 C 
ATOM     12  H   UNL     1     151.979 166.586 187.018  0.00  0.00    +0.023 HD
ATOM     13  H   UNL     1     150.691 167.082 188.137  0.00  0.00    +0.023 HD
ATOM     14  H   UNL     1     151.842 168.272 187.516  0.00  0.00    +0.023 HD
ENDBRANCH   9  11
BRANCH   9  15
ATOM     15  C   UNL     1     153.906 166.115 188.584  0.00  0.00    +0.064 C 
ATOM     16  H   UNL     1     154.448 166.696 187.830  0.00  0.00    +0.060 HD
BRANCH  15  17
ATOM     17  C   UNL     1     153.494 164.764 187.959  0.00  0.00    +0.011 C 
ATOM     18  H   UNL     1     152.437 164.828 187.668  0.00  0.00    +0.033 HD
ATOM     19  H   UNL     1     154.069 164.584 187.045  0.00  0.00    +0.033 HD
BRANCH  17  20
ATOM     20  C   UNL     1     153.648 163.521 188.870  0.00  0.00    +0.108 C 
ATOM     21  H   UNL     1     154.097 163.853 189.815  0.00  0.00    +0.074 HD
BRANCH  20  22
ATOM     22  C   UNL     1     152.320 162.799 189.216  0.00  0.00    -0.009 C 
ATOM     23  H   UNL     1     151.476 163.416 188.883  0.00  0.00    +0.033 HD
BRANCH  22  24
ATOM     24  C   UNL     1     152.207 161.471 188.454  0.00  0.00    -0.059 C 
ATOM     25  H   UNL     1     153.185 161.149 188.079  0.00  0.00    +0.023 HD
ATOM     26  H   UNL     1     151.532 161.566 187.596  0.00  0.00    +0.023 HD
ATOM     27  H   UNL     1     151.826 160.676 189.102  0.00  0.00    +0.023 HD
ENDBRANCH  22  24
BRANCH  22  28
ATOM     28  C   UNL     1     152.172 162.529 190.714  0.00  0.00    -0.059 C 
ATOM     29  H   UNL     1     152.871 161.749 191.044  0.00  0.00    +0.023 HD
ATOM     30  H   UNL     1     152.358 163.426 191.311  0.00  0.00    +0.023 HD
ATOM     31  H   UNL     1     151.156 162.194 190.950  0.00  0.00    +0.023 HD
ENDBRANCH  22  28
ENDBRANCH  20  22
BRANCH  20  32
ATOM     32  O   UNL     1     154.529 162.547 188.267  0.00  0.00    -0.461 OA
BRANCH  32  33
ATOM     33  C   UNL     1     155.849 162.634 188.592  0.00  0.00    +0.307 C 
ATOM     34  O   UNL     1     156.763 162.798 187.795  0.00  0.00    -0.251 OA
BRANCH  33  35
ATOM     35  C   UNL     1     156.020 162.490 190.085  0.00  0.00    +0.046 C 
ATOM     36  H   UNL     1     155.351 161.695 190.428  0.00  0.00    +0.038 HD
ATOM     37  H   UNL     1     155.724 163.431 190.561  0.00  0.00    +0.038 HD
BRANCH  35  38
ATOM     38  C   UNL     1     157.475 162.182 190.442  0.00  0.00    -0.031 C 
ATOM     39  H   UNL     1     158.149 162.840 189.877  0.00  0.00    +0.028 HD
ATOM     40  H   UNL     1     157.641 162.415 191.501  0.00  0.00    +0.028 HD
BRANCH  38  41
ATOM     41  C   UNL     1     157.852 160.722 190.198  0.00  0.00    -0.006 C 
ATOM     42  H   UNL     1     156.951 160.123 190.029  0.00  0.00    +0.042 HD
ATOM     43  H   UNL     1     158.354 160.319 191.087  0.00  0.00    +0.042 HD
BRANCH  41  44
ATOM     44  N   UNL     1     158.743 160.590 189.048  0.00  0.00    -0.330 NA
ATOM     45  H   UNL     1     158.959 161.521 188.686  0.00  0.00    +0.118 HD
ATOM     46  H   UNL     1     159.635 160.204 189.360  0.00  0.00    +0.118 HD
ENDBRANCH  41  44
ENDBRANCH  38  41
ENDBRANCH  35  38
ENDBRANCH  33  35
ENDBRANCH  32  33
ENDBRANCH  20  32
ENDBRANCH  17  20
ENDBRANCH  15  17
BRANCH  15  47
ATOM     47  O   UNL     1     154.802 165.840 189.669  0.00  0.00    -0.379 OA
BRANCH  47  48
ATOM     48  C   UNL     1     156.150 166.199 189.413  0.00  0.00    +0.037 C 
ATOM     49  H   UNL     1     156.200 167.134 188.849  0.00  0.00    +0.052 HD
ATOM     50  H   UNL     1     156.674 165.403 188.881  0.00  0.00    +0.052 HD
ATOM     51  H   UNL     1     156.646 166.357 190.376  0.00  0.00    +0.052 HD
ENDBRANCH  47  48
ENDBRANCH  15  47
ENDBRANCH   9  15
ENDBRANCH   6   9
ENDBRANCH   3   6
ENDBRANCH   1   3
BRANCH   1  52
ATOM     52  C   UNL     1     148.490 166.704 191.318  0.00  0.00    +0.020 C 
ATOM     53  H   UNL     1     147.615 166.176 191.720  0.00  0.00    +0.036 HD
BRANCH  52  54
ATOM     54  C   UNL     1     148.076 167.324 189.972  0.00  0.00    -0.057 C 
ATOM     55  H   UNL     1     148.172 166.591 189.161  0.00  0.00    +0.023 HD
ATOM     56  H   UNL     1     148.691 168.196 189.716  0.00  0.00    +0.023 HD
ATOM     57  H   UNL     1     147.030 167.643 189.983  0.00  0.00    +0.023 HD
ENDBRANCH  52  54
BRANCH  52  58
ATOM     58  C   UNL     1     148.903 167.777 192.376  0.00  0.00    +0.070 C 
ATOM     59  H   UNL     1     149.776 167.409 192.927  0.00  0.00    +0.061 HD
BRANCH  58  60
ATOM     60  C   UNL     1     149.302 169.160 191.766  0.00  0.00    +0.002 C 
ATOM     61  H   UNL     1     149.175 169.095 190.678  0.00  0.00    +0.037 HD
BRANCH  60  62
ATOM     62  C   UNL     1     148.467 170.308 192.304  0.00  0.00    -0.065 C 
ATOM     63  C   UNL     1     147.720 171.105 191.523  0.00  0.00    -0.005 C 
ATOM     64  H   UNL     1     148.516 170.454 193.381  0.00  0.00    +0.059 HD
ATOM     65  H   UNL     1     147.720 170.922 190.448  0.00  0.00    +0.078 HD
BRANCH  63  66
ATOM     66  N   UNL     1     146.938 172.171 191.941  0.00  0.00    -0.281 N 
ATOM     67  C   UNL     1     145.651 172.335 191.437  0.00  0.00    +0.206 C 
ATOM     68  O   UNL     1     144.878 173.251 191.692  0.00  0.00    -0.279 OA
ATOM     69  H   UNL     1     145.359 171.535 190.742  0.00  0.00    +0.126 HD
BRANCH  66  70
ATOM     70  C   UNL     1     147.423 173.186 192.876  0.00  0.00    +0.016 C 
ATOM     71  H   UNL     1     147.641 172.727 193.845  0.00  0.00    +0.047 HD
ATOM     72  H   UNL     1     146.622 173.912 193.064  0.00  0.00    +0.047 HD
BRANCH  70  73
ATOM     73  C   UNL     1     148.632 173.932 192.336  0.00  0.00    -0.049 C 
ATOM     74  H   UNL     1     149.555 173.608 192.831  0.00  0.00    +0.024 HD
ATOM     75  H   UNL     1     148.512 175.008 192.494  0.00  0.00    +0.024 HD
ATOM     76  H   UNL     1     148.753 173.750 191.265  0.00  0.00    +0.024 HD
ENDBRANCH  70  73
ENDBRANCH  66  70
ENDBRANCH  63  66
ENDBRANCH  60  62
BRANCH  60  77
ATOM     77  C   UNL     1     150.783 169.478 192.007  0.00  0.00    -0.057 C 
ATOM     78  H   UNL     1     151.053 170.478 191.648  0.00  0.00    +0.024 HD
ATOM     79  H   UNL     1     151.021 169.419 193.075  0.00  0.00    +0.024 HD
ATOM     80  H   UNL     1     151.425 168.758 191.487  0.00  0.00    +0.024 HD
ENDBRANCH  60  77
ENDBRANCH  58  60
BRANCH  58  81
ATOM     81  O   UNL     1     147.799 167.987 193.275  0.00  0.00    -0.379 OA
BRANCH  81  82
ATOM     82  C   UNL     1     147.339 166.804 193.913  0.00  0.00    +0.037 C 
ATOM     83  H   UNL     1     146.269 166.864 194.116  0.00  0.00    +0.052 HD
ATOM     84  H   UNL     1     147.558 165.920 193.308  0.00  0.00    +0.052 HD
ATOM     85  H   UNL     1     147.863 166.712 194.868  0.00  0.00    +0.052 HD
ENDBRANCH  81  82
ENDBRANCH  58  81
ENDBRANCH  52  58
ENDBRANCH   1  52
BRANCH   1  86
ATOM     86  O   UNL     1     150.459 165.487 192.195  0.00  0.00    -0.459 OA
BRANCH  86  88
ATOM     87  O   UNL     1     149.180 163.775 193.031  0.00  0.00    -0.248 OA
ATOM     88  C   UNL     1     150.143 164.527 193.108  0.00  0.00    +0.337 C 
BRANCH  88  89
ATOM     89  C   UNL     1     151.167 164.554 194.254  0.00  0.00    +0.155 C 
ATOM     90  O   UNL     1     150.654 163.962 195.461  0.00  0.00    -0.365 OA
ATOM     91  C   UNL     1     150.343 164.999 196.396  0.00  0.00    +0.049 C 
ATOM     92  C   UNL     1     150.509 166.319 195.676  0.00  0.00    -0.027 C 
ATOM     93  C   UNL     1     151.525 165.990 194.606  0.00  0.00    -0.014 C 
ATOM     94  H   UNL     1     152.043 163.972 193.942  0.00  0.00    +0.071 HD
ATOM     95  H   UNL     1     151.041 164.917 197.235  0.00  0.00    +0.056 HD
ATOM     96  H   UNL     1     149.327 164.857 196.773  0.00  0.00    +0.056 HD
ATOM     97  H   UNL     1     150.821 167.128 196.341  0.00  0.00    +0.029 HD
ATOM     98  H   UNL     1     149.562 166.616 195.210  0.00  0.00    +0.029 HD
ATOM     99  H   UNL     1     151.483 166.689 193.766  0.00  0.00    +0.030 HD
ATOM    100  H   UNL     1     152.536 166.024 195.039  0.00  0.00    +0.030 HD
ENDBRANCH  88  89
ENDBRANCH  86  88
ENDBRANCH   1  86
TORSDOF 32
ENDMDL
MODEL 10
REMARK VINA RESULT:      -4.6      1.926      3.023
REMARK  Name = 2a_conf1
REMARK  32 active torsions:
REMARK  status: ('A' for Active; 'I' for Inactive)
REMARK    1  A    between atoms: C_2  and  C_3
REMARK    2  A    between atoms: C_2  and  O_8
REMARK    3  A    between atoms: O_8  and  C_9
REMARK    4  A    between atoms: C_9  and  C_10
REMARK    5  A    between atoms: C_9  and  C_29
REMARK    6  A    between atoms: C_10  and  C_11
REMARK    7  A    between atoms: C_11  and  C_12
REMARK    8  A    between atoms: C_12  and  C_13
REMARK    9  A    between atoms: C_12  and  C_14
REMARK   10  A    between atoms: C_14  and  O_15
REMARK   11  A    between atoms: C_14  and  C_17
REMARK   12  A    between atoms: O_15  and  C_16
REMARK   13  A    between atoms: C_17  and  C_18
REMARK   14  A    between atoms: C_18  and  O_19
REMARK   15  A    between atoms: C_18  and  C_26
REMARK   16  A    between atoms: O_19  and  C_20
REMARK   17  A    between atoms: C_20  and  C_21
REMARK   18  A    between atoms: C_21  and  C_22
REMARK   19  A    between atoms: C_22  and  C_23
REMARK   20  A    between atoms: C_23  and  N_24
REMARK   21  A    between atoms: C_26  and  C_27
REMARK   22  A    between atoms: C_26  and  C_28
REMARK   23  A    between atoms: C_29  and  C_30
REMARK   24  A    between atoms: C_29  and  C_31
REMARK   25  A    between atoms: C_31  and  O_32
REMARK   26  A    between atoms: C_31  and  C_34
REMARK   27  A    between atoms: O_32  and  C_33
REMARK   28  A    between atoms: C_34  and  C_35
REMARK   29  A    between atoms: C_34  and  C_36
REMARK   30  A    between atoms: C_37  and  N_38
REMARK   31  A    between atoms: N_38  and  C_39
REMARK   32  A    between atoms: C_39  and  C_40
REMARK                            x       y       z     vdW  Elec       q    Type
REMARK                         _______ _______ _______ _____ _____    ______ ____
ROOT
ATOM      1  C   UNL     1     150.160 166.075 191.171  0.00  0.00    +0.108 C 
ATOM      2  H   UNL     1     149.865 165.107 190.750  0.00  0.00    +0.074 HD
ENDROOT
BRANCH   1   3
ATOM      3  C   UNL     1     151.201 166.701 190.223  0.00  0.00    -0.015 C 
ATOM      4  H   UNL     1     150.952 166.485 189.179  0.00  0.00    +0.030 HD
ATOM      5  H   UNL     1     151.188 167.785 190.354  0.00  0.00    +0.030 HD
BRANCH   3   6
ATOM      6  C   UNL     1     152.621 166.193 190.499  0.00  0.00    -0.045 C 
ATOM      7  H   UNL     1     153.147 166.878 191.172  0.00  0.00    +0.027 HD
ATOM      8  H   UNL     1     152.536 165.244 191.047  0.00  0.00    +0.027 HD
BRANCH   6   9
ATOM      9  C   UNL     1     153.457 165.946 189.219  0.00  0.00    -0.017 C 
ATOM     10  H   UNL     1     153.325 164.890 188.952  0.00  0.00    +0.032 HD
BRANCH   9  11
ATOM     11  C   UNL     1     154.948 166.124 189.550  0.00  0.00    -0.060 C 
ATOM     12  H   UNL     1     155.553 166.139 188.636  0.00  0.00    +0.023 HD
ATOM     13  H   UNL     1     155.136 167.050 190.104  0.00  0.00    +0.023 HD
ATOM     14  H   UNL     1     155.311 165.292 190.163  0.00  0.00    +0.023 HD
ENDBRANCH   9  11
BRANCH   9  15
ATOM     15  C   UNL     1     153.070 166.809 187.978  0.00  0.00    +0.064 C 
ATOM     16  H   UNL     1     152.291 167.512 188.293  0.00  0.00    +0.060 HD
BRANCH  15  17
ATOM     17  C   UNL     1     152.524 165.967 186.804  0.00  0.00    +0.011 C 
ATOM     18  H   UNL     1     151.974 166.636 186.128  0.00  0.00    +0.033 HD
ATOM     19  H   UNL     1     153.355 165.543 186.230  0.00  0.00    +0.033 HD
BRANCH  17  20
ATOM     20  C   UNL     1     151.571 164.810 187.186  0.00  0.00    +0.108 C 
ATOM     21  H   UNL     1     151.571 164.723 188.280  0.00  0.00    +0.074 HD
BRANCH  20  22
ATOM     22  C   UNL     1     150.100 165.002 186.736  0.00  0.00    -0.009 C 
ATOM     23  H   UNL     1     149.910 164.390 185.846  0.00  0.00    +0.033 HD
BRANCH  22  24
ATOM     24  C   UNL     1     149.129 164.501 187.815  0.00  0.00    -0.059 C 
ATOM     25  H   UNL     1     149.358 163.468 188.100  0.00  0.00    +0.023 HD
ATOM     26  H   UNL     1     148.094 164.530 187.458  0.00  0.00    +0.023 HD
ATOM     27  H   UNL     1     149.196 165.113 188.720  0.00  0.00    +0.023 HD
ENDBRANCH  22  24
BRANCH  22  28
ATOM     28  C   UNL     1     149.772 166.461 186.409  0.00  0.00    -0.059 C 
ATOM     29  H   UNL     1     149.458 167.005 187.309  0.00  0.00    +0.023 HD
ATOM     30  H   UNL     1     150.629 166.984 185.977  0.00  0.00    +0.023 HD
ATOM     31  H   UNL     1     148.959 166.521 185.677  0.00  0.00    +0.023 HD
ENDBRANCH  22  28
ENDBRANCH  20  22
BRANCH  20  32
ATOM     32  O   UNL     1     152.034 163.557 186.633  0.00  0.00    -0.461 OA
BRANCH  32  33
ATOM     33  C   UNL     1     152.457 162.617 187.523  0.00  0.00    +0.307 C 
ATOM     34  O   UNL     1     151.836 162.247 188.511  0.00  0.00    -0.251 OA
BRANCH  33  35
ATOM     35  C   UNL     1     153.816 162.101 187.115  0.00  0.00    +0.046 C 
ATOM     36  H   UNL     1     153.906 162.202 186.030  0.00  0.00    +0.038 HD
ATOM     37  H   UNL     1     153.878 161.039 187.378  0.00  0.00    +0.038 HD
BRANCH  35  38
ATOM     38  C   UNL     1     154.930 162.863 187.836  0.00  0.00    -0.031 C 
ATOM     39  H   UNL     1     155.738 163.103 187.131  0.00  0.00    +0.028 HD
ATOM     40  H   UNL     1     154.538 163.825 188.185  0.00  0.00    +0.028 HD
BRANCH  38  41
ATOM     41  C   UNL     1     155.496 162.100 189.032  0.00  0.00    -0.006 C 
ATOM     42  H   UNL     1     156.458 162.528 189.333  0.00  0.00    +0.042 HD
ATOM     43  H   UNL     1     155.674 161.054 188.749  0.00  0.00    +0.042 HD
BRANCH  41  44
ATOM     44  N   UNL     1     154.575 162.135 190.165  0.00  0.00    -0.330 NA
ATOM     45  H   UNL     1     153.824 162.797 189.963  0.00  0.00    +0.118 HD
ATOM     46  H   UNL     1     154.121 161.225 190.255  0.00  0.00    +0.118 HD
ENDBRANCH  41  44
ENDBRANCH  38  41
ENDBRANCH  35  38
ENDBRANCH  33  35
ENDBRANCH  32  33
ENDBRANCH  20  32
ENDBRANCH  17  20
ENDBRANCH  15  17
BRANCH  15  47
ATOM     47  O   UNL     1     154.187 167.565 187.491  0.00  0.00    -0.379 OA
BRANCH  47  48
ATOM     48  C   UNL     1     154.594 167.217 186.177  0.00  0.00    +0.037 C 
ATOM     49  H   UNL     1     155.045 168.076 185.673  0.00  0.00    +0.052 HD
ATOM     50  H   UNL     1     153.755 166.829 185.596  0.00  0.00    +0.052 HD
ATOM     51  H   UNL     1     155.353 166.433 186.255  0.00  0.00    +0.052 HD
ENDBRANCH  47  48
ENDBRANCH  15  47
ENDBRANCH   9  15
ENDBRANCH   6   9
ENDBRANCH   3   6
ENDBRANCH   1   3
BRANCH   1  52
ATOM     52  C   UNL     1     148.880 166.950 191.354  0.00  0.00    +0.020 C 
ATOM     53  H   UNL     1     148.089 166.270 191.699  0.00  0.00    +0.036 HD
BRANCH  52  54
ATOM     54  C   UNL     1     148.452 167.498 189.982  0.00  0.00    -0.057 C 
ATOM     55  H   UNL     1     147.496 168.031 190.059  0.00  0.00    +0.023 HD
ATOM     56  H   UNL     1     148.336 166.699 189.239  0.00  0.00    +0.023 HD
ATOM     57  H   UNL     1     149.180 168.215 189.594  0.00  0.00    +0.023 HD
ENDBRANCH  52  54
BRANCH  52  58
ATOM     58  C   UNL     1     149.024 168.070 192.434  0.00  0.00    +0.070 C 
ATOM     59  H   UNL     1     149.885 167.835 193.071  0.00  0.00    +0.061 HD
BRANCH  58  60
ATOM     60  C   UNL     1     149.269 169.498 191.849  0.00  0.00    +0.002 C 
ATOM     61  H   UNL     1     149.015 169.471 190.782  0.00  0.00    +0.037 HD
BRANCH  60  62
ATOM     62  C   UNL     1     148.442 170.570 192.537  0.00  0.00    -0.065 C 
ATOM     63  C   UNL     1     147.949 171.643 191.899  0.00  0.00    -0.005 C 
ATOM     64  H   UNL     1     148.276 170.417 193.602  0.00  0.00    +0.059 HD
ATOM     65  H   UNL     1     148.160 171.754 190.835  0.00  0.00    +0.078 HD
BRANCH  63  66
ATOM     66  N   UNL     1     147.193 172.661 192.460  0.00  0.00    -0.281 N 
ATOM     67  C   UNL     1     147.613 173.277 193.636  0.00  0.00    +0.206 C 
ATOM     68  O   UNL     1     147.019 174.154 194.254  0.00  0.00    -0.279 OA
ATOM     69  H   UNL     1     148.575 172.891 194.002  0.00  0.00    +0.126 HD
BRANCH  66  70
ATOM     70  C   UNL     1     145.920 173.104 191.893  0.00  0.00    +0.016 C 
ATOM     71  H   UNL     1     146.079 173.981 191.258  0.00  0.00    +0.047 HD
ATOM     72  H   UNL     1     145.262 173.438 192.705  0.00  0.00    +0.047 HD
BRANCH  70  73
ATOM     73  C   UNL     1     145.216 171.994 191.130  0.00  0.00    -0.049 C 
ATOM     74  H   UNL     1     144.165 171.906 191.431  0.00  0.00    +0.024 HD
ATOM     75  H   UNL     1     145.712 171.036 191.314  0.00  0.00    +0.024 HD
ATOM     76  H   UNL     1     145.233 172.192 190.054  0.00  0.00    +0.024 HD
ENDBRANCH  70  73
ENDBRANCH  66  70
ENDBRANCH  63  66
ENDBRANCH  60  62
BRANCH  60  77
ATOM     77  C   UNL     1     150.748 169.897 191.929  0.00  0.00    -0.057 C 
ATOM     78  H   UNL     1     151.162 170.144 190.944  0.00  0.00    +0.024 HD
ATOM     79  H   UNL     1     150.880 170.763 192.587  0.00  0.00    +0.024 HD
ATOM     80  H   UNL     1     151.349 169.077 192.340  0.00  0.00    +0.024 HD
ENDBRANCH  60  77
ENDBRANCH  58  60
BRANCH  58  81
ATOM     81  O   UNL     1     147.820 168.110 193.221  0.00  0.00    -0.379 OA
BRANCH  81  82
ATOM     82  C   UNL     1     147.431 166.848 193.748  0.00  0.00    +0.037 C 
ATOM     83  H   UNL     1     146.961 166.966 194.726  0.00  0.00    +0.052 HD
ATOM     84  H   UNL     1     146.752 166.330 193.065  0.00  0.00    +0.052 HD
ATOM     85  H   UNL     1     148.333 166.243 193.872  0.00  0.00    +0.052 HD
ENDBRANCH  81  82
ENDBRANCH  58  81
ENDBRANCH  52  58
ENDBRANCH   1  52
BRANCH   1  86
ATOM     86  O   UNL     1     150.819 165.856 192.436  0.00  0.00    -0.459 OA
BRANCH  86  88
ATOM     87  O   UNL     1     149.473 164.047 192.863  0.00  0.00    -0.248 OA
ATOM     88  C   UNL     1     150.413 164.774 193.158  0.00  0.00    +0.337 C 
BRANCH  88  89
ATOM     89  C   UNL     1     151.301 164.627 194.404  0.00  0.00    +0.155 C 
ATOM     90  O   UNL     1     150.634 163.931 195.472  0.00  0.00    -0.365 OA
ATOM     91  C   UNL     1     150.254 164.871 196.481  0.00  0.00    +0.049 C 
ATOM     92  C   UNL     1     150.544 166.254 195.939  0.00  0.00    -0.027 C 
ATOM     93  C   UNL     1     151.664 165.998 194.956  0.00  0.00    -0.014 C 
ATOM     94  H   UNL     1     152.187 164.044 194.126  0.00  0.00    +0.071 HD
ATOM     95  H   UNL     1     150.848 164.666 197.376  0.00  0.00    +0.056 HD
ATOM     96  H   UNL     1     149.197 164.735 196.726  0.00  0.00    +0.056 HD
ATOM     97  H   UNL     1     150.805 166.969 196.722  0.00  0.00    +0.029 HD
ATOM     98  H   UNL     1     149.666 166.643 195.410  0.00  0.00    +0.029 HD
ATOM     99  H   UNL     1     151.740 166.786 194.201  0.00  0.00    +0.030 HD
ATOM    100  H   UNL     1     152.620 165.938 195.497  0.00  0.00    +0.030 HD
ENDBRANCH  88  89
ENDBRANCH  86  88
ENDBRANCH   1  86
TORSDOF 32
ENDMDL
