MODEL 1
REMARK VINA RESULT:      -5.5      0.000      0.000
REMARK  Name = 2c_conf2
REMARK  32 active torsions:
REMARK  status: ('A' for Active; 'I' for Inactive)
REMARK    1  A    between atoms: N_2  and  C_3
REMARK    2  A    between atoms: N_2  and  C_5
REMARK    3  A    between atoms: C_3  and  C_4
REMARK    4  A    between atoms: C_6  and  C_7
REMARK    5  A    between atoms: C_7  and  C_8
REMARK    6  A    between atoms: C_7  and  C_9
REMARK    7  A    between atoms: C_9  and  O_10
REMARK    8  A    between atoms: C_9  and  C_12
REMARK    9  A    between atoms: O_10  and  C_11
REMARK   10  A    between atoms: C_12  and  C_13
REMARK   11  A    between atoms: C_12  and  C_14
REMARK   12  A    between atoms: C_14  and  O_15
REMARK   13  A    between atoms: C_14  and  C_21
REMARK   14  A    between atoms: O_15  and  C_16
REMARK   15  A    between atoms: C_16  and  C_17
REMARK   16  A    between atoms: C_17  and  C_18
REMARK   17  A    between atoms: C_17  and  C_19
REMARK   18  A    between atoms: C_21  and  C_22
REMARK   19  A    between atoms: C_22  and  C_23
REMARK   20  A    between atoms: C_23  and  C_24
REMARK   21  A    between atoms: C_23  and  C_25
REMARK   22  A    between atoms: C_25  and  O_26
REMARK   23  A    between atoms: C_25  and  C_28
REMARK   24  A    between atoms: O_26  and  C_27
REMARK   25  A    between atoms: C_28  and  C_29
REMARK   26  A    between atoms: C_29  and  O_30
REMARK   27  A    between atoms: C_29  and  C_35
REMARK   28  A    between atoms: O_30  and  C_31
REMARK   29  A    between atoms: C_31  and  C_32
REMARK   30  A    between atoms: C_32  and  C_33
REMARK   31  A    between atoms: C_35  and  C_36
REMARK   32  A    between atoms: C_35  and  C_37
REMARK                            x       y       z     vdW  Elec       q    Type
REMARK                         _______ _______ _______ _____ _____    ______ ____
ROOT
ATOM      1  C   UNL     1     147.442 170.457 191.602  0.00  0.00    +0.108 C 
ATOM      2  H   UNL     1     146.857 170.985 192.370  0.00  0.00    +0.074 HD
ENDROOT
BRANCH   1   3
ATOM      3  C   UNL     1     148.208 169.326 192.309  0.00  0.00    -0.015 C 
ATOM      4  H   UNL     1     147.562 168.452 192.410  0.00  0.00    +0.030 HD
ATOM      5  H   UNL     1     148.533 169.616 193.312  0.00  0.00    +0.030 HD
BRANCH   3   6
ATOM      6  C   UNL     1     149.463 168.927 191.510  0.00  0.00    -0.045 C 
ATOM      7  H   UNL     1     149.280 168.010 190.933  0.00  0.00    +0.027 HD
ATOM      8  H   UNL     1     149.649 169.722 190.775  0.00  0.00    +0.027 HD
BRANCH   6   9
ATOM      9  C   UNL     1     150.716 168.747 192.407  0.00  0.00    -0.017 C 
ATOM     10  H   UNL     1     150.406 168.875 193.448  0.00  0.00    +0.032 HD
BRANCH   9  11
ATOM     11  C   UNL     1     151.717 169.864 192.074  0.00  0.00    -0.060 C 
ATOM     12  H   UNL     1     151.210 170.679 191.549  0.00  0.00    +0.023 HD
ATOM     13  H   UNL     1     152.526 169.506 191.428  0.00  0.00    +0.023 HD
ATOM     14  H   UNL     1     152.169 170.295 192.970  0.00  0.00    +0.023 HD
ENDBRANCH   9  11
BRANCH   9  15
ATOM     15  C   UNL     1     151.333 167.329 192.214  0.00  0.00    +0.064 C 
ATOM     16  H   UNL     1     150.568 166.676 191.789  0.00  0.00    +0.060 HD
BRANCH  15  17
ATOM     17  C   UNL     1     151.890 166.702 193.512  0.00  0.00    +0.011 C 
ATOM     18  H   UNL     1     152.079 167.508 194.229  0.00  0.00    +0.033 HD
ATOM     19  H   UNL     1     152.892 166.298 193.333  0.00  0.00    +0.033 HD
BRANCH  17  20
ATOM     20  C   UNL     1     151.050 165.591 194.169  0.00  0.00    +0.108 C 
ATOM     21  H   UNL     1     151.267 164.605 193.745  0.00  0.00    +0.074 HD
BRANCH  20  22
ATOM     22  C   UNL     1     151.179 165.511 195.717  0.00  0.00    -0.009 C 
ATOM     23  H   UNL     1     152.111 166.013 196.013  0.00  0.00    +0.033 HD
BRANCH  22  24
ATOM     24  C   UNL     1     151.210 164.089 196.273  0.00  0.00    -0.059 C 
ATOM     25  H   UNL     1     152.060 163.526 195.884  0.00  0.00    +0.023 HD
ATOM     26  H   UNL     1     151.255 164.101 197.364  0.00  0.00    +0.023 HD
ATOM     27  H   UNL     1     150.299 163.546 196.001  0.00  0.00    +0.023 HD
ENDBRANCH  22  24
BRANCH  22  28
ATOM     28  C   UNL     1     150.036 166.293 196.386  0.00  0.00    -0.059 C 
ATOM     29  H   UNL     1     149.486 166.887 195.651  0.00  0.00    +0.023 HD
ATOM     30  H   UNL     1     149.330 165.611 196.868  0.00  0.00    +0.023 HD
ATOM     31  H   UNL     1     150.411 166.972 197.157  0.00  0.00    +0.023 HD
ENDBRANCH  22  28
ENDBRANCH  20  22
BRANCH  20  32
ATOM     32  O   UNL     1     149.654 165.918 193.920  0.00  0.00    -0.461 OA
BRANCH  32  33
ATOM     33  C   UNL     1     148.932 165.015 193.202  0.00  0.00    +0.307 C 
ATOM     34  O   UNL     1     149.285 163.876 192.930  0.00  0.00    -0.251 OA
BRANCH  33  35
ATOM     35  C   UNL     1     147.620 165.621 192.768  0.00  0.00    +0.042 C 
ATOM     36  H   UNL     1     147.828 166.401 192.031  0.00  0.00    +0.037 HD
ATOM     37  H   UNL     1     147.020 164.853 192.265  0.00  0.00    +0.037 HD
BRANCH  35  38
ATOM     38  C   UNL     1     146.873 166.214 193.946  0.00  0.00    -0.055 C 
ATOM     39  H   UNL     1     147.310 167.176 194.233  0.00  0.00    +0.023 HD
ATOM     40  H   UNL     1     145.817 166.385 193.707  0.00  0.00    +0.023 HD
ATOM     41  H   UNL     1     146.911 165.543 194.816  0.00  0.00    +0.023 HD
ENDBRANCH  35  38
ENDBRANCH  33  35
ENDBRANCH  32  33
ENDBRANCH  20  32
ENDBRANCH  17  20
ENDBRANCH  15  17
BRANCH  15  42
ATOM     42  O   UNL     1     152.389 167.462 191.242  0.00  0.00    -0.379 OA
BRANCH  42  43
ATOM     43  C   UNL     1     152.652 166.292 190.489  0.00  0.00    +0.037 C 
ATOM     44  H   UNL     1     153.631 165.904 190.791  0.00  0.00    +0.052 HD
ATOM     45  H   UNL     1     151.910 165.513 190.691  0.00  0.00    +0.052 HD
ATOM     46  H   UNL     1     152.687 166.518 189.418  0.00  0.00    +0.052 HD
ENDBRANCH  42  43
ENDBRANCH  15  42
ENDBRANCH   9  15
ENDBRANCH   6   9
ENDBRANCH   3   6
ENDBRANCH   1   3
BRANCH   1  47
ATOM     47  C   UNL     1     146.455 170.041 190.477  0.00  0.00    +0.020 C 
ATOM     48  H   UNL     1     146.107 169.042 190.780  0.00  0.00    +0.036 HD
BRANCH  47  49
ATOM     49  C   UNL     1     147.165 169.768 189.147  0.00  0.00    -0.057 C 
ATOM     50  H   UNL     1     146.886 168.807 188.710  0.00  0.00    +0.023 HD
ATOM     51  H   UNL     1     148.255 169.780 189.265  0.00  0.00    +0.023 HD
ATOM     52  H   UNL     1     146.914 170.543 188.413  0.00  0.00    +0.023 HD
ENDBRANCH  47  49
BRANCH  47  53
ATOM     53  C   UNL     1     145.138 170.867 190.360  0.00  0.00    +0.070 C 
ATOM     54  H   UNL     1     145.176 171.414 189.411  0.00  0.00    +0.061 HD
BRANCH  53  55
ATOM     55  C   UNL     1     143.787 170.094 190.351  0.00  0.00    +0.002 C 
ATOM     56  H   UNL     1     143.314 170.233 189.376  0.00  0.00    +0.037 HD
BRANCH  55  58
ATOM     57  C   UNL     1     143.063 167.692 190.193  0.00  0.00    -0.005 C 
ATOM     58  C   UNL     1     143.913 168.618 190.660  0.00  0.00    -0.065 C 
ATOM     59  H   UNL     1     142.231 168.006 189.563  0.00  0.00    +0.078 HD
ATOM     60  H   UNL     1     144.754 168.347 191.294  0.00  0.00    +0.059 HD
BRANCH  57  62
ATOM     61  C   UNL     1     142.396 165.781 191.483  0.00  0.00    +0.206 C 
ATOM     62  N   UNL     1     143.121 166.325 190.424  0.00  0.00    -0.281 N 
ATOM     63  O   UNL     1     141.700 166.395 192.283  0.00  0.00    -0.279 OA
ATOM     64  H   UNL     1     142.498 164.686 191.554  0.00  0.00    +0.126 HD
BRANCH  62  65
ATOM     65  C   UNL     1     143.894 165.418 189.578  0.00  0.00    +0.016 C 
ATOM     66  H   UNL     1     143.405 164.441 189.537  0.00  0.00    +0.047 HD
ATOM     67  H   UNL     1     143.887 165.805 188.551  0.00  0.00    +0.047 HD
BRANCH  65  68
ATOM     68  C   UNL     1     145.339 165.292 190.035  0.00  0.00    -0.049 C 
ATOM     69  H   UNL     1     145.505 165.889 190.937  0.00  0.00    +0.024 HD
ATOM     70  H   UNL     1     145.592 164.253 190.251  0.00  0.00    +0.024 HD
ATOM     71  H   UNL     1     146.035 165.653 189.269  0.00  0.00    +0.024 HD
ENDBRANCH  65  68
ENDBRANCH  62  65
ENDBRANCH  57  62
ENDBRANCH  55  58
BRANCH  55  72
ATOM     72  C   UNL     1     142.824 170.712 191.378  0.00  0.00    -0.057 C 
ATOM     73  H   UNL     1     142.528 169.995 192.151  0.00  0.00    +0.024 HD
ATOM     74  H   UNL     1     143.290 171.568 191.879  0.00  0.00    +0.024 HD
ATOM     75  H   UNL     1     141.910 171.073 190.892  0.00  0.00    +0.024 HD
ENDBRANCH  55  72
ENDBRANCH  53  55
BRANCH  53  76
ATOM     76  O   UNL     1     145.068 171.843 191.424  0.00  0.00    -0.379 OA
BRANCH  76  77
ATOM     77  C   UNL     1     145.059 173.191 190.969  0.00  0.00    +0.037 C 
ATOM     78  H   UNL     1     145.942 173.724 191.336  0.00  0.00    +0.052 HD
ATOM     79  H   UNL     1     145.093 173.180 189.877  0.00  0.00    +0.052 HD
ATOM     80  H   UNL     1     144.148 173.711 191.283  0.00  0.00    +0.052 HD
ENDBRANCH  76  77
ENDBRANCH  53  76
ENDBRANCH  47  53
ENDBRANCH   1  47
BRANCH   1  81
ATOM     81  O   UNL     1     148.451 171.350 191.080  0.00  0.00    -0.461 OA
BRANCH  81  82
ATOM     82  C   UNL     1     148.527 172.596 191.617  0.00  0.00    +0.310 C 
ATOM     83  O   UNL     1     148.656 173.626 190.970  0.00  0.00    -0.251 OA
BRANCH  82  84
ATOM     84  C   UNL     1     148.419 172.567 193.133  0.00  0.00    +0.051 C 
ATOM     85  H   UNL     1     148.058 171.562 193.397  0.00  0.00    +0.041 HD
BRANCH  84  86
ATOM     86  C   UNL     1     147.415 173.572 193.695  0.00  0.00    -0.053 C 
ATOM     87  H   UNL     1     147.687 174.605 193.445  0.00  0.00    +0.024 HD
ATOM     88  H   UNL     1     147.358 173.496 194.787  0.00  0.00    +0.024 HD
ATOM     89  H   UNL     1     146.413 173.386 193.293  0.00  0.00    +0.024 HD
ENDBRANCH  84  86
BRANCH  84  90
ATOM     90  C   UNL     1     149.803 172.780 193.743  0.00  0.00    -0.053 C 
ATOM     91  H   UNL     1     149.896 173.778 194.189  0.00  0.00    +0.024 HD
ATOM     92  H   UNL     1     150.582 172.688 192.977  0.00  0.00    +0.024 HD
ATOM     93  H   UNL     1     150.006 172.028 194.516  0.00  0.00    +0.024 HD
ENDBRANCH  84  90
ENDBRANCH  82  84
ENDBRANCH  81  82
ENDBRANCH   1  81
TORSDOF 32
ENDMDL
MODEL 2
REMARK VINA RESULT:      -5.4      3.137      8.789
REMARK  Name = 2c_conf2
REMARK  32 active torsions:
REMARK  status: ('A' for Active; 'I' for Inactive)
REMARK    1  A    between atoms: N_2  and  C_3
REMARK    2  A    between atoms: N_2  and  C_5
REMARK    3  A    between atoms: C_3  and  C_4
REMARK    4  A    between atoms: C_6  and  C_7
REMARK    5  A    between atoms: C_7  and  C_8
REMARK    6  A    between atoms: C_7  and  C_9
REMARK    7  A    between atoms: C_9  and  O_10
REMARK    8  A    between atoms: C_9  and  C_12
REMARK    9  A    between atoms: O_10  and  C_11
REMARK   10  A    between atoms: C_12  and  C_13
REMARK   11  A    between atoms: C_12  and  C_14
REMARK   12  A    between atoms: C_14  and  O_15
REMARK   13  A    between atoms: C_14  and  C_21
REMARK   14  A    between atoms: O_15  and  C_16
REMARK   15  A    between atoms: C_16  and  C_17
REMARK   16  A    between atoms: C_17  and  C_18
REMARK   17  A    between atoms: C_17  and  C_19
REMARK   18  A    between atoms: C_21  and  C_22
REMARK   19  A    between atoms: C_22  and  C_23
REMARK   20  A    between atoms: C_23  and  C_24
REMARK   21  A    between atoms: C_23  and  C_25
REMARK   22  A    between atoms: C_25  and  O_26
REMARK   23  A    between atoms: C_25  and  C_28
REMARK   24  A    between atoms: O_26  and  C_27
REMARK   25  A    between atoms: C_28  and  C_29
REMARK   26  A    between atoms: C_29  and  O_30
REMARK   27  A    between atoms: C_29  and  C_35
REMARK   28  A    between atoms: O_30  and  C_31
REMARK   29  A    between atoms: C_31  and  C_32
REMARK   30  A    between atoms: C_32  and  C_33
REMARK   31  A    between atoms: C_35  and  C_36
REMARK   32  A    between atoms: C_35  and  C_37
REMARK                            x       y       z     vdW  Elec       q    Type
REMARK                         _______ _______ _______ _____ _____    ______ ____
ROOT
ATOM      1  C   UNL     1     150.243 165.825 192.427  0.00  0.00    +0.108 C 
ATOM      2  H   UNL     1     150.919 166.680 192.274  0.00  0.00    +0.074 HD
ENDROOT
BRANCH   1   3
ATOM      3  C   UNL     1     148.822 166.388 192.594  0.00  0.00    -0.015 C 
ATOM      4  H   UNL     1     148.338 165.916 193.451  0.00  0.00    +0.030 HD
ATOM      5  H   UNL     1     148.200 166.196 191.715  0.00  0.00    +0.030 HD
BRANCH   3   6
ATOM      6  C   UNL     1     148.855 167.911 192.818  0.00  0.00    -0.045 C 
ATOM      7  H   UNL     1     147.844 168.297 193.009  0.00  0.00    +0.027 HD
ATOM      8  H   UNL     1     149.434 168.094 193.735  0.00  0.00    +0.027 HD
BRANCH   6   9
ATOM      9  C   UNL     1     149.500 168.681 191.636  0.00  0.00    -0.017 C 
ATOM     10  H   UNL     1     149.796 167.948 190.879  0.00  0.00    +0.032 HD
BRANCH   9  11
ATOM     11  C   UNL     1     150.775 169.371 192.143  0.00  0.00    -0.060 C 
ATOM     12  H   UNL     1     150.609 169.778 193.146  0.00  0.00    +0.023 HD
ATOM     13  H   UNL     1     151.074 170.202 191.494  0.00  0.00    +0.023 HD
ATOM     14  H   UNL     1     151.619 168.682 192.215  0.00  0.00    +0.023 HD
ENDBRANCH   9  11
BRANCH   9  15
ATOM     15  C   UNL     1     148.490 169.693 191.020  0.00  0.00    +0.064 C 
ATOM     16  H   UNL     1     148.498 169.570 189.935  0.00  0.00    +0.060 HD
BRANCH  15  17
ATOM     17  C   UNL     1     148.776 171.169 191.379  0.00  0.00    +0.011 C 
ATOM     18  H   UNL     1     149.013 171.707 190.455  0.00  0.00    +0.033 HD
ATOM     19  H   UNL     1     149.708 171.243 191.948  0.00  0.00    +0.033 HD
BRANCH  17  20
ATOM     20  C   UNL     1     147.687 171.920 192.167  0.00  0.00    +0.108 C 
ATOM     21  H   UNL     1     146.812 171.292 192.361  0.00  0.00    +0.074 HD
BRANCH  20  22
ATOM     22  C   UNL     1     148.169 172.537 193.512  0.00  0.00    -0.009 C 
ATOM     23  H   UNL     1     148.038 171.785 194.303  0.00  0.00    +0.033 HD
BRANCH  22  24
ATOM     24  C   UNL     1     147.421 173.800 193.929  0.00  0.00    -0.059 C 
ATOM     25  H   UNL     1     146.855 174.224 193.097  0.00  0.00    +0.023 HD
ATOM     26  H   UNL     1     146.740 173.591 194.756  0.00  0.00    +0.023 HD
ATOM     27  H   UNL     1     148.118 174.567 194.281  0.00  0.00    +0.023 HD
ENDBRANCH  22  24
BRANCH  22  28
ATOM     28  C   UNL     1     149.676 172.837 193.448  0.00  0.00    -0.059 C 
ATOM     29  H   UNL     1     149.907 173.498 192.607  0.00  0.00    +0.023 HD
ATOM     30  H   UNL     1     150.013 173.325 194.366  0.00  0.00    +0.023 HD
ATOM     31  H   UNL     1     150.264 171.923 193.330  0.00  0.00    +0.023 HD
ENDBRANCH  22  28
ENDBRANCH  20  22
BRANCH  20  32
ATOM     32  O   UNL     1     147.286 173.056 191.350  0.00  0.00    -0.461 OA
BRANCH  32  33
ATOM     33  C   UNL     1     146.246 172.857 190.494  0.00  0.00    +0.307 C 
ATOM     34  O   UNL     1     146.296 172.962 189.277  0.00  0.00    -0.251 OA
BRANCH  33  35
ATOM     35  C   UNL     1     144.998 172.497 191.263  0.00  0.00    +0.042 C 
ATOM     36  H   UNL     1     144.336 171.933 190.600  0.00  0.00    +0.037 HD
ATOM     37  H   UNL     1     145.269 171.832 192.092  0.00  0.00    +0.037 HD
BRANCH  35  38
ATOM     38  C   UNL     1     144.286 173.737 191.766  0.00  0.00    -0.055 C 
ATOM     39  H   UNL     1     144.524 174.599 191.133  0.00  0.00    +0.023 HD
ATOM     40  H   UNL     1     143.199 173.606 191.757  0.00  0.00    +0.023 HD
ATOM     41  H   UNL     1     144.583 173.971 192.797  0.00  0.00    +0.023 HD
ENDBRANCH  35  38
ENDBRANCH  33  35
ENDBRANCH  32  33
ENDBRANCH  20  32
ENDBRANCH  17  20
ENDBRANCH  15  17
BRANCH  15  42
ATOM     42  O   UNL     1     147.181 169.319 191.496  0.00  0.00    -0.379 OA
BRANCH  42  43
ATOM     43  C   UNL     1     146.253 168.987 190.479  0.00  0.00    +0.037 C 
ATOM     44  H   UNL     1     145.246 169.036 190.907  0.00  0.00    +0.052 HD
ATOM     45  H   UNL     1     146.296 169.703 189.652  0.00  0.00    +0.052 HD
ATOM     46  H   UNL     1     146.423 167.969 190.114  0.00  0.00    +0.052 HD
ENDBRANCH  42  43
ENDBRANCH  15  42
ENDBRANCH   9  15
ENDBRANCH   6   9
ENDBRANCH   3   6
ENDBRANCH   1   3
BRANCH   1  47
ATOM     47  C   UNL     1     150.475 164.840 191.248  0.00  0.00    +0.020 C 
ATOM     48  H   UNL     1     149.466 164.485 190.991  0.00  0.00    +0.036 HD
BRANCH  47  49
ATOM     49  C   UNL     1     151.188 163.558 191.687  0.00  0.00    -0.057 C 
ATOM     50  H   UNL     1     151.112 162.759 190.947  0.00  0.00    +0.023 HD
ATOM     51  H   UNL     1     150.783 163.178 192.633  0.00  0.00    +0.023 HD
ATOM     52  H   UNL     1     152.256 163.749 191.849  0.00  0.00    +0.023 HD
ENDBRANCH  47  49
BRANCH  47  53
ATOM     53  C   UNL     1     150.997 165.456 189.914  0.00  0.00    +0.070 C 
ATOM     54  H   UNL     1     150.202 166.096 189.513  0.00  0.00    +0.061 HD
BRANCH  53  55
ATOM     55  C   UNL     1     152.272 166.348 189.969  0.00  0.00    +0.002 C 
ATOM     56  H   UNL     1     152.409 166.693 190.996  0.00  0.00    +0.037 HD
BRANCH  55  58
ATOM     57  C   UNL     1     154.572 166.327 188.956  0.00  0.00    -0.005 C 
ATOM     58  C   UNL     1     153.530 165.665 189.479  0.00  0.00    -0.065 C 
ATOM     59  H   UNL     1     154.521 167.413 188.870  0.00  0.00    +0.078 HD
ATOM     60  H   UNL     1     153.540 164.583 189.580  0.00  0.00    +0.059 HD
BRANCH  57  62
ATOM     61  C   UNL     1     156.045 165.808 187.134  0.00  0.00    +0.206 C 
ATOM     62  N   UNL     1     155.759 165.772 188.498  0.00  0.00    -0.281 N 
ATOM     63  O   UNL     1     155.334 166.271 186.250  0.00  0.00    -0.279 OA
ATOM     64  H   UNL     1     157.023 165.362 186.890  0.00  0.00    +0.126 HD
BRANCH  62  65
ATOM     65  C   UNL     1     156.744 165.173 189.395  0.00  0.00    +0.016 C 
ATOM     66  H   UNL     1     157.750 165.497 189.113  0.00  0.00    +0.047 HD
ATOM     67  H   UNL     1     156.574 165.557 190.409  0.00  0.00    +0.047 HD
BRANCH  65  68
ATOM     68  C   UNL     1     156.646 163.655 189.432  0.00  0.00    -0.049 C 
ATOM     69  H   UNL     1     155.946 163.340 190.212  0.00  0.00    +0.024 HD
ATOM     70  H   UNL     1     156.304 163.262 188.474  0.00  0.00    +0.024 HD
ATOM     71  H   UNL     1     157.616 163.197 189.654  0.00  0.00    +0.024 HD
ENDBRANCH  65  68
ENDBRANCH  62  65
ENDBRANCH  57  62
ENDBRANCH  55  58
BRANCH  55  72
ATOM     72  C   UNL     1     152.061 167.615 189.123  0.00  0.00    -0.057 C 
ATOM     73  H   UNL     1     152.995 168.161 188.956  0.00  0.00    +0.024 HD
ATOM     74  H   UNL     1     151.643 167.361 188.143  0.00  0.00    +0.024 HD
ATOM     75  H   UNL     1     151.359 168.301 189.613  0.00  0.00    +0.024 HD
ENDBRANCH  55  72
ENDBRANCH  53  55
BRANCH  53  76
ATOM     76  O   UNL     1     151.246 164.411 188.948  0.00  0.00    -0.379 OA
BRANCH  76  77
ATOM     77  C   UNL     1     150.122 164.101 188.133  0.00  0.00    +0.037 C 
ATOM     78  H   UNL     1     149.754 163.094 188.355  0.00  0.00    +0.052 HD
ATOM     79  H   UNL     1     149.329 164.816 188.363  0.00  0.00    +0.052 HD
ATOM     80  H   UNL     1     150.366 164.185 187.068  0.00  0.00    +0.052 HD
ENDBRANCH  76  77
ENDBRANCH  53  76
ENDBRANCH  47  53
ENDBRANCH   1  47
BRANCH   1  81
ATOM     81  O   UNL     1     150.566 165.188 193.683  0.00  0.00    -0.461 OA
BRANCH  81  82
ATOM     82  C   UNL     1     151.424 165.835 194.515  0.00  0.00    +0.310 C 
ATOM     83  O   UNL     1     152.336 166.562 194.146  0.00  0.00    -0.251 OA
BRANCH  82  84
ATOM     84  C   UNL     1     151.110 165.560 195.977  0.00  0.00    +0.051 C 
ATOM     85  H   UNL     1     151.862 166.109 196.563  0.00  0.00    +0.041 HD
BRANCH  84  86
ATOM     86  C   UNL     1     151.222 164.085 196.361  0.00  0.00    -0.053 C 
ATOM     87  H   UNL     1     152.214 163.842 196.763  0.00  0.00    +0.024 HD
ATOM     88  H   UNL     1     151.046 163.442 195.491  0.00  0.00    +0.024 HD
ATOM     89  H   UNL     1     150.482 163.826 197.126  0.00  0.00    +0.024 HD
ENDBRANCH  84  86
BRANCH  84  90
ATOM     90  C   UNL     1     149.722 166.105 196.307  0.00  0.00    -0.053 C 
ATOM     91  H   UNL     1     149.208 165.475 197.044  0.00  0.00    +0.024 HD
ATOM     92  H   UNL     1     149.094 166.138 195.408  0.00  0.00    +0.024 HD
ATOM     93  H   UNL     1     149.789 167.127 196.702  0.00  0.00    +0.024 HD
ENDBRANCH  84  90
ENDBRANCH  82  84
ENDBRANCH  81  82
ENDBRANCH   1  81
TORSDOF 32
ENDMDL
MODEL 3
REMARK VINA RESULT:      -5.4      2.441      4.108
REMARK  Name = 2c_conf2
REMARK  32 active torsions:
REMARK  status: ('A' for Active; 'I' for Inactive)
REMARK    1  A    between atoms: N_2  and  C_3
REMARK    2  A    between atoms: N_2  and  C_5
REMARK    3  A    between atoms: C_3  and  C_4
REMARK    4  A    between atoms: C_6  and  C_7
REMARK    5  A    between atoms: C_7  and  C_8
REMARK    6  A    between atoms: C_7  and  C_9
REMARK    7  A    between atoms: C_9  and  O_10
REMARK    8  A    between atoms: C_9  and  C_12
REMARK    9  A    between atoms: O_10  and  C_11
REMARK   10  A    between atoms: C_12  and  C_13
REMARK   11  A    between atoms: C_12  and  C_14
REMARK   12  A    between atoms: C_14  and  O_15
REMARK   13  A    between atoms: C_14  and  C_21
REMARK   14  A    between atoms: O_15  and  C_16
REMARK   15  A    between atoms: C_16  and  C_17
REMARK   16  A    between atoms: C_17  and  C_18
REMARK   17  A    between atoms: C_17  and  C_19
REMARK   18  A    between atoms: C_21  and  C_22
REMARK   19  A    between atoms: C_22  and  C_23
REMARK   20  A    between atoms: C_23  and  C_24
REMARK   21  A    between atoms: C_23  and  C_25
REMARK   22  A    between atoms: C_25  and  O_26
REMARK   23  A    between atoms: C_25  and  C_28
REMARK   24  A    between atoms: O_26  and  C_27
REMARK   25  A    between atoms: C_28  and  C_29
REMARK   26  A    between atoms: C_29  and  O_30
REMARK   27  A    between atoms: C_29  and  C_35
REMARK   28  A    between atoms: O_30  and  C_31
REMARK   29  A    between atoms: C_31  and  C_32
REMARK   30  A    between atoms: C_32  and  C_33
REMARK   31  A    between atoms: C_35  and  C_36
REMARK   32  A    between atoms: C_35  and  C_37
REMARK                            x       y       z     vdW  Elec       q    Type
REMARK                         _______ _______ _______ _____ _____    ______ ____
ROOT
ATOM      1  C   UNL     1     147.379 170.491 191.290  0.00  0.00    +0.108 C 
ATOM      2  H   UNL     1     146.802 170.932 192.117  0.00  0.00    +0.074 HD
ENDROOT
BRANCH   1   3
ATOM      3  C   UNL     1     148.115 169.262 191.849  0.00  0.00    -0.015 C 
ATOM      4  H   UNL     1     147.535 168.361 191.644  0.00  0.00    +0.030 HD
ATOM      5  H   UNL     1     148.255 169.327 192.932  0.00  0.00    +0.030 HD
BRANCH   3   6
ATOM      6  C   UNL     1     149.507 169.114 191.207  0.00  0.00    -0.045 C 
ATOM      7  H   UNL     1     149.514 168.288 190.482  0.00  0.00    +0.027 HD
ATOM      8  H   UNL     1     149.702 170.030 190.633  0.00  0.00    +0.027 HD
BRANCH   6   9
ATOM      9  C   UNL     1     150.634 168.908 192.253  0.00  0.00    -0.017 C 
ATOM     10  H   UNL     1     150.190 168.994 193.248  0.00  0.00    +0.032 HD
BRANCH   9  11
ATOM     11  C   UNL     1     151.656 170.044 192.096  0.00  0.00    -0.060 C 
ATOM     12  H   UNL     1     151.325 170.744 191.322  0.00  0.00    +0.023 HD
ATOM     13  H   UNL     1     152.642 169.668 191.802  0.00  0.00    +0.023 HD
ATOM     14  H   UNL     1     151.778 170.621 193.015  0.00  0.00    +0.023 HD
ENDBRANCH   9  11
BRANCH   9  15
ATOM     15  C   UNL     1     151.288 167.504 192.090  0.00  0.00    +0.064 C 
ATOM     16  H   UNL     1     150.546 166.826 191.663  0.00  0.00    +0.060 HD
BRANCH  15  17
ATOM     17  C   UNL     1     151.841 166.908 193.404  0.00  0.00    +0.011 C 
ATOM     18  H   UNL     1     151.919 167.715 194.141  0.00  0.00    +0.033 HD
ATOM     19  H   UNL     1     152.884 166.603 193.270  0.00  0.00    +0.033 HD
BRANCH  17  20
ATOM     20  C   UNL     1     151.079 165.712 194.006  0.00  0.00    +0.108 C 
ATOM     21  H   UNL     1     151.401 164.760 193.573  0.00  0.00    +0.074 HD
BRANCH  20  22
ATOM     22  C   UNL     1     151.153 165.610 195.556  0.00  0.00    -0.009 C 
ATOM     23  H   UNL     1     152.013 166.200 195.901  0.00  0.00    +0.033 HD
BRANCH  22  24
ATOM     24  C   UNL     1     151.311 164.186 196.085  0.00  0.00    -0.059 C 
ATOM     25  H   UNL     1     150.418 163.588 195.898  0.00  0.00    +0.023 HD
ATOM     26  H   UNL     1     152.173 163.697 195.627  0.00  0.00    +0.023 HD
ATOM     27  H   UNL     1     151.489 164.191 197.165  0.00  0.00    +0.023 HD
ENDBRANCH  22  24
BRANCH  22  28
ATOM     28  C   UNL     1     149.908 166.251 196.190  0.00  0.00    -0.059 C 
ATOM     29  H   UNL     1     149.003 165.974 195.641  0.00  0.00    +0.023 HD
ATOM     30  H   UNL     1     149.789 165.924 197.227  0.00  0.00    +0.023 HD
ATOM     31  H   UNL     1     149.977 167.342 196.199  0.00  0.00    +0.023 HD
ENDBRANCH  22  28
ENDBRANCH  20  22
BRANCH  20  32
ATOM     32  O   UNL     1     149.670 165.919 193.704  0.00  0.00    -0.461 OA
BRANCH  32  33
ATOM     33  C   UNL     1     149.055 164.956 192.965  0.00  0.00    +0.307 C 
ATOM     34  O   UNL     1     149.155 163.750 193.139  0.00  0.00    -0.251 OA
BRANCH  33  35
ATOM     35  C   UNL     1     148.227 165.587 191.871  0.00  0.00    +0.042 C 
ATOM     36  H   UNL     1     148.731 166.500 191.541  0.00  0.00    +0.037 HD
ATOM     37  H   UNL     1     148.194 164.907 191.011  0.00  0.00    +0.037 HD
BRANCH  35  38
ATOM     38  C   UNL     1     146.832 165.919 192.361  0.00  0.00    -0.055 C 
ATOM     39  H   UNL     1     146.828 166.879 192.887  0.00  0.00    +0.023 HD
ATOM     40  H   UNL     1     146.121 165.990 191.530  0.00  0.00    +0.023 HD
ATOM     41  H   UNL     1     146.461 165.145 193.049  0.00  0.00    +0.023 HD
ENDBRANCH  35  38
ENDBRANCH  33  35
ENDBRANCH  32  33
ENDBRANCH  20  32
ENDBRANCH  17  20
ENDBRANCH  15  17
BRANCH  15  42
ATOM     42  O   UNL     1     152.356 167.650 191.132  0.00  0.00    -0.379 OA
BRANCH  42  43
ATOM     43  C   UNL     1     152.694 166.463 190.436  0.00  0.00    +0.037 C 
ATOM     44  H   UNL     1     152.446 166.605 189.379  0.00  0.00    +0.052 HD
ATOM     45  H   UNL     1     153.767 166.256 190.500  0.00  0.00    +0.052 HD
ATOM     46  H   UNL     1     152.117 165.612 190.815  0.00  0.00    +0.052 HD
ENDBRANCH  42  43
ENDBRANCH  15  42
ENDBRANCH   9  15
ENDBRANCH   6   9
ENDBRANCH   3   6
ENDBRANCH   1   3
BRANCH   1  47
ATOM     47  C   UNL     1     146.388 170.244 190.119  0.00  0.00    +0.020 C 
ATOM     48  H   UNL     1     145.816 169.358 190.432  0.00  0.00    +0.036 HD
BRANCH  47  49
ATOM     49  C   UNL     1     147.094 169.765 188.846  0.00  0.00    -0.057 C 
ATOM     50  H   UNL     1     147.088 168.678 188.746  0.00  0.00    +0.023 HD
ATOM     51  H   UNL     1     148.139 170.099 188.818  0.00  0.00    +0.023 HD
ATOM     52  H   UNL     1     146.601 170.176 187.957  0.00  0.00    +0.023 HD
ENDBRANCH  47  49
BRANCH  47  53
ATOM     53  C   UNL     1     145.290 171.327 189.891  0.00  0.00    +0.070 C 
ATOM     54  H   UNL     1     144.532 170.893 189.229  0.00  0.00    +0.061 HD
BRANCH  53  55
ATOM     55  C   UNL     1     144.515 171.857 191.133  0.00  0.00    +0.002 C 
ATOM     56  H   UNL     1     145.069 171.576 192.032  0.00  0.00    +0.037 HD
BRANCH  55  58
ATOM     57  C   UNL     1     143.292 173.941 191.825  0.00  0.00    -0.005 C 
ATOM     58  C   UNL     1     144.269 173.350 191.122  0.00  0.00    -0.065 C 
ATOM     59  H   UNL     1     142.631 173.325 192.435  0.00  0.00    +0.078 HD
ATOM     60  H   UNL     1     144.948 173.928 190.499  0.00  0.00    +0.059 HD
BRANCH  57  62
ATOM     61  C   UNL     1     143.002 175.949 193.106  0.00  0.00    +0.206 C 
ATOM     62  N   UNL     1     143.013 175.299 191.873  0.00  0.00    -0.281 N 
ATOM     63  O   UNL     1     143.195 175.439 194.203  0.00  0.00    -0.279 OA
ATOM     64  H   UNL     1     142.793 177.028 193.019  0.00  0.00    +0.126 HD
BRANCH  62  65
ATOM     65  C   UNL     1     142.757 176.092 190.672  0.00  0.00    +0.016 C 
ATOM     66  H   UNL     1     143.366 175.719 189.844  0.00  0.00    +0.047 HD
ATOM     67  H   UNL     1     141.712 175.945 190.371  0.00  0.00    +0.047 HD
BRANCH  65  68
ATOM     68  C   UNL     1     142.988 177.578 190.899  0.00  0.00    -0.049 C 
ATOM     69  H   UNL     1     144.055 177.812 190.822  0.00  0.00    +0.024 HD
ATOM     70  H   UNL     1     142.445 178.175 190.166  0.00  0.00    +0.024 HD
ATOM     71  H   UNL     1     142.655 177.887 191.896  0.00  0.00    +0.024 HD
ENDBRANCH  65  68
ENDBRANCH  62  65
ENDBRANCH  57  62
ENDBRANCH  55  58
BRANCH  55  72
ATOM     72  C   UNL     1     143.153 171.153 191.240  0.00  0.00    -0.057 C 
ATOM     73  H   UNL     1     143.252 170.101 191.530  0.00  0.00    +0.024 HD
ATOM     74  H   UNL     1     142.519 171.646 191.985  0.00  0.00    +0.024 HD
ATOM     75  H   UNL     1     142.620 171.184 190.282  0.00  0.00    +0.024 HD
ENDBRANCH  55  72
ENDBRANCH  53  55
BRANCH  53  76
ATOM     76  O   UNL     1     145.855 172.474 189.217  0.00  0.00    -0.379 OA
BRANCH  76  77
ATOM     77  C   UNL     1     145.375 172.655 187.890  0.00  0.00    +0.037 C 
ATOM     78  H   UNL     1     144.286 172.769 187.889  0.00  0.00    +0.052 HD
ATOM     79  H   UNL     1     145.817 173.572 187.493  0.00  0.00    +0.052 HD
ATOM     80  H   UNL     1     145.667 171.821 187.243  0.00  0.00    +0.052 HD
ENDBRANCH  76  77
ENDBRANCH  53  76
ENDBRANCH  47  53
ENDBRANCH   1  47
BRANCH   1  81
ATOM     81  O   UNL     1     148.411 171.419 190.887  0.00  0.00    -0.461 OA
BRANCH  81  82
ATOM     82  C   UNL     1     148.418 172.646 191.474  0.00  0.00    +0.310 C 
ATOM     83  O   UNL     1     148.551 173.703 190.873  0.00  0.00    -0.251 OA
BRANCH  82  84
ATOM     84  C   UNL     1     148.226 172.554 192.979  0.00  0.00    +0.051 C 
ATOM     85  H   UNL     1     147.887 171.529 193.185  0.00  0.00    +0.041 HD
BRANCH  84  86
ATOM     86  C   UNL     1     147.158 173.504 193.519  0.00  0.00    -0.053 C 
ATOM     87  H   UNL     1     146.386 172.971 194.087  0.00  0.00    +0.024 HD
ATOM     88  H   UNL     1     146.663 174.039 192.700  0.00  0.00    +0.024 HD
ATOM     89  H   UNL     1     147.604 174.250 194.186  0.00  0.00    +0.024 HD
ENDBRANCH  84  86
BRANCH  84  90
ATOM     90  C   UNL     1     149.566 172.788 193.674  0.00  0.00    -0.053 C 
ATOM     91  H   UNL     1     149.663 173.825 194.021  0.00  0.00    +0.024 HD
ATOM     92  H   UNL     1     150.399 172.592 192.988  0.00  0.00    +0.024 HD
ATOM     93  H   UNL     1     149.679 172.116 194.534  0.00  0.00    +0.024 HD
ENDBRANCH  84  90
ENDBRANCH  82  84
ENDBRANCH  81  82
ENDBRANCH   1  81
TORSDOF 32
ENDMDL
MODEL 4
REMARK VINA RESULT:      -5.4      1.618      6.613
REMARK  Name = 2c_conf2
REMARK  32 active torsions:
REMARK  status: ('A' for Active; 'I' for Inactive)
REMARK    1  A    between atoms: N_2  and  C_3
REMARK    2  A    between atoms: N_2  and  C_5
REMARK    3  A    between atoms: C_3  and  C_4
REMARK    4  A    between atoms: C_6  and  C_7
REMARK    5  A    between atoms: C_7  and  C_8
REMARK    6  A    between atoms: C_7  and  C_9
REMARK    7  A    between atoms: C_9  and  O_10
REMARK    8  A    between atoms: C_9  and  C_12
REMARK    9  A    between atoms: O_10  and  C_11
REMARK   10  A    between atoms: C_12  and  C_13
REMARK   11  A    between atoms: C_12  and  C_14
REMARK   12  A    between atoms: C_14  and  O_15
REMARK   13  A    between atoms: C_14  and  C_21
REMARK   14  A    between atoms: O_15  and  C_16
REMARK   15  A    between atoms: C_16  and  C_17
REMARK   16  A    between atoms: C_17  and  C_18
REMARK   17  A    between atoms: C_17  and  C_19
REMARK   18  A    between atoms: C_21  and  C_22
REMARK   19  A    between atoms: C_22  and  C_23
REMARK   20  A    between atoms: C_23  and  C_24
REMARK   21  A    between atoms: C_23  and  C_25
REMARK   22  A    between atoms: C_25  and  O_26
REMARK   23  A    between atoms: C_25  and  C_28
REMARK   24  A    between atoms: O_26  and  C_27
REMARK   25  A    between atoms: C_28  and  C_29
REMARK   26  A    between atoms: C_29  and  O_30
REMARK   27  A    between atoms: C_29  and  C_35
REMARK   28  A    between atoms: O_30  and  C_31
REMARK   29  A    between atoms: C_31  and  C_32
REMARK   30  A    between atoms: C_32  and  C_33
REMARK   31  A    between atoms: C_35  and  C_36
REMARK   32  A    between atoms: C_35  and  C_37
REMARK                            x       y       z     vdW  Elec       q    Type
REMARK                         _______ _______ _______ _____ _____    ______ ____
ROOT
ATOM      1  C   UNL     1     148.917 165.779 192.682  0.00  0.00    +0.108 C 
ATOM      2  H   UNL     1     149.666 166.384 192.149  0.00  0.00    +0.074 HD
ENDROOT
BRANCH   1   3
ATOM      3  C   UNL     1     147.820 166.739 193.173  0.00  0.00    -0.015 C 
ATOM      4  H   UNL     1     147.583 166.523 194.216  0.00  0.00    +0.030 HD
ATOM      5  H   UNL     1     146.897 166.637 192.595  0.00  0.00    +0.030 HD
BRANCH   3   6
ATOM      6  C   UNL     1     148.280 168.205 193.061  0.00  0.00    -0.045 C 
ATOM      7  H   UNL     1     147.451 168.889 193.289  0.00  0.00    +0.027 HD
ATOM      8  H   UNL     1     149.039 168.370 193.838  0.00  0.00    +0.027 HD
BRANCH   6   9
ATOM      9  C   UNL     1     148.879 168.544 191.671  0.00  0.00    -0.017 C 
ATOM     10  H   UNL     1     148.906 167.623 191.082  0.00  0.00    +0.032 HD
BRANCH   9  11
ATOM     11  C   UNL     1     150.327 169.018 191.868  0.00  0.00    -0.060 C 
ATOM     12  H   UNL     1     150.657 169.592 190.997  0.00  0.00    +0.023 HD
ATOM     13  H   UNL     1     151.017 168.176 191.990  0.00  0.00    +0.023 HD
ATOM     14  H   UNL     1     150.435 169.669 192.738  0.00  0.00    +0.023 HD
ENDBRANCH   9  11
BRANCH   9  15
ATOM     15  C   UNL     1     148.007 169.609 190.940  0.00  0.00    +0.064 C 
ATOM     16  H   UNL     1     148.040 169.403 189.868  0.00  0.00    +0.060 HD
BRANCH  15  17
ATOM     17  C   UNL     1     148.442 171.068 191.203  0.00  0.00    +0.011 C 
ATOM     18  H   UNL     1     148.593 171.561 190.236  0.00  0.00    +0.033 HD
ATOM     19  H   UNL     1     149.444 171.089 191.643  0.00  0.00    +0.033 HD
BRANCH  17  20
ATOM     20  C   UNL     1     147.522 171.922 192.096  0.00  0.00    +0.108 C 
ATOM     21  H   UNL     1     146.585 171.407 192.332  0.00  0.00    +0.074 HD
BRANCH  20  22
ATOM     22  C   UNL     1     148.174 172.407 193.422  0.00  0.00    -0.009 C 
ATOM     23  H   UNL     1     148.035 171.625 194.182  0.00  0.00    +0.033 HD
BRANCH  22  24
ATOM     24  C   UNL     1     147.594 173.708 193.970  0.00  0.00    -0.059 C 
ATOM     25  H   UNL     1     147.459 173.662 195.052  0.00  0.00    +0.023 HD
ATOM     26  H   UNL     1     148.239 174.554 193.724  0.00  0.00    +0.023 HD
ATOM     27  H   UNL     1     146.617 173.917 193.521  0.00  0.00    +0.023 HD
ENDBRANCH  22  24
BRANCH  22  28
ATOM     28  C   UNL     1     149.693 172.566 193.240  0.00  0.00    -0.059 C 
ATOM     29  H   UNL     1     150.040 172.016 192.359  0.00  0.00    +0.023 HD
ATOM     30  H   UNL     1     149.960 173.618 193.110  0.00  0.00    +0.023 HD
ATOM     31  H   UNL     1     150.243 172.195 194.108  0.00  0.00    +0.023 HD
ENDBRANCH  22  28
ENDBRANCH  20  22
BRANCH  20  32
ATOM     32  O   UNL     1     147.223 173.136 191.352  0.00  0.00    -0.461 OA
BRANCH  32  33
ATOM     33  C   UNL     1     146.076 173.139 190.620  0.00  0.00    +0.307 C 
ATOM     34  O   UNL     1     145.997 172.932 189.418  0.00  0.00    -0.251 OA
BRANCH  33  35
ATOM     35  C   UNL     1     144.893 173.451 191.504  0.00  0.00    +0.042 C 
ATOM     36  H   UNL     1     145.185 173.277 192.544  0.00  0.00    +0.037 HD
ATOM     37  H   UNL     1     144.648 174.515 191.411  0.00  0.00    +0.037 HD
BRANCH  35  38
ATOM     38  C   UNL     1     143.702 172.582 191.154  0.00  0.00    -0.055 C 
ATOM     39  H   UNL     1     143.825 171.576 191.568  0.00  0.00    +0.023 HD
ATOM     40  H   UNL     1     142.771 172.996 191.556  0.00  0.00    +0.023 HD
ATOM     41  H   UNL     1     143.583 172.496 190.065  0.00  0.00    +0.023 HD
ENDBRANCH  35  38
ENDBRANCH  33  35
ENDBRANCH  32  33
ENDBRANCH  20  32
ENDBRANCH  17  20
ENDBRANCH  15  17
BRANCH  15  42
ATOM     42  O   UNL     1     146.650 169.414 191.386  0.00  0.00    -0.379 OA
BRANCH  42  43
ATOM     43  C   UNL     1     145.674 169.492 190.363  0.00  0.00    +0.037 C 
ATOM     44  H   UNL     1     145.209 170.482 190.409  0.00  0.00    +0.052 HD
ATOM     45  H   UNL     1     146.126 169.384 189.371  0.00  0.00    +0.052 HD
ATOM     46  H   UNL     1     144.894 168.737 190.511  0.00  0.00    +0.052 HD
ENDBRANCH  42  43
ENDBRANCH  15  42
ENDBRANCH   9  15
ENDBRANCH   6   9
ENDBRANCH   3   6
ENDBRANCH   1   3
BRANCH   1  47
ATOM     47  C   UNL     1     148.475 164.641 191.721  0.00  0.00    +0.020 C 
ATOM     48  H   UNL     1     147.427 164.449 191.994  0.00  0.00    +0.036 HD
BRANCH  47  49
ATOM     49  C   UNL     1     149.162 163.309 192.036  0.00  0.00    -0.057 C 
ATOM     50  H   UNL     1     148.738 162.813 192.911  0.00  0.00    +0.023 HD
ATOM     51  H   UNL     1     150.236 163.445 192.216  0.00  0.00    +0.023 HD
ATOM     52  H   UNL     1     149.063 162.618 191.191  0.00  0.00    +0.023 HD
ENDBRANCH  47  49
BRANCH  47  53
ATOM     53  C   UNL     1     148.398 164.996 190.204  0.00  0.00    +0.070 C 
ATOM     54  H   UNL     1     148.688 164.102 189.641  0.00  0.00    +0.061 HD
BRANCH  53  55
ATOM     55  C   UNL     1     147.021 165.435 189.624  0.00  0.00    +0.002 C 
ATOM     56  H   UNL     1     146.638 164.629 188.995  0.00  0.00    +0.037 HD
BRANCH  55  58
ATOM     57  C   UNL     1     144.686 165.930 190.411  0.00  0.00    -0.005 C 
ATOM     58  C   UNL     1     145.995 165.807 190.673  0.00  0.00    -0.065 C 
ATOM     59  H   UNL     1     144.331 165.762 189.394  0.00  0.00    +0.078 HD
ATOM     60  H   UNL     1     146.391 165.968 191.672  0.00  0.00    +0.059 HD
BRANCH  57  62
ATOM     61  C   UNL     1     142.354 166.163 190.927  0.00  0.00    +0.206 C 
ATOM     62  N   UNL     1     143.688 166.256 191.319  0.00  0.00    -0.281 N 
ATOM     63  O   UNL     1     141.938 165.834 189.822  0.00  0.00    -0.279 OA
ATOM     64  H   UNL     1     141.651 166.421 191.735  0.00  0.00    +0.126 HD
BRANCH  62  65
ATOM     65  C   UNL     1     143.978 166.668 192.690  0.00  0.00    +0.016 C 
ATOM     66  H   UNL     1     144.557 165.892 193.197  0.00  0.00    +0.047 HD
ATOM     67  H   UNL     1     144.621 167.557 192.661  0.00  0.00    +0.047 HD
BRANCH  65  68
ATOM     68  C   UNL     1     142.718 167.011 193.470  0.00  0.00    -0.049 C 
ATOM     69  H   UNL     1     142.287 167.948 193.101  0.00  0.00    +0.024 HD
ATOM     70  H   UNL     1     141.972 166.222 193.375  0.00  0.00    +0.024 HD
ATOM     71  H   UNL     1     142.931 167.145 194.536  0.00  0.00    +0.024 HD
ENDBRANCH  65  68
ENDBRANCH  62  65
ENDBRANCH  57  62
ENDBRANCH  55  58
BRANCH  55  72
ATOM     72  C   UNL     1     147.207 166.644 188.693  0.00  0.00    -0.057 C 
ATOM     73  H   UNL     1     146.389 166.740 187.972  0.00  0.00    +0.024 HD
ATOM     74  H   UNL     1     147.253 167.574 189.271  0.00  0.00    +0.024 HD
ATOM     75  H   UNL     1     148.142 166.563 188.127  0.00  0.00    +0.024 HD
ENDBRANCH  55  72
ENDBRANCH  53  55
BRANCH  53  76
ATOM     76  O   UNL     1     149.348 166.039 189.889  0.00  0.00    -0.379 OA
BRANCH  76  77
ATOM     77  C   UNL     1     150.607 165.553 189.437  0.00  0.00    +0.037 C 
ATOM     78  H   UNL     1     150.467 164.775 188.679  0.00  0.00    +0.052 HD
ATOM     79  H   UNL     1     151.147 166.386 188.982  0.00  0.00    +0.052 HD
ATOM     80  H   UNL     1     151.206 165.165 190.268  0.00  0.00    +0.052 HD
ENDBRANCH  76  77
ENDBRANCH  53  76
ENDBRANCH  47  53
ENDBRANCH   1  47
BRANCH   1  81
ATOM     81  O   UNL     1     149.519 165.225 193.873  0.00  0.00    -0.461 OA
BRANCH  81  82
ATOM     82  C   UNL     1     150.725 165.720 194.258  0.00  0.00    +0.310 C 
ATOM     83  O   UNL     1     151.562 166.181 193.495  0.00  0.00    -0.251 OA
BRANCH  82  84
ATOM     84  C   UNL     1     150.911 165.649 195.764  0.00  0.00    +0.051 C 
ATOM     85  H   UNL     1     151.780 166.280 195.998  0.00  0.00    +0.041 HD
BRANCH  84  86
ATOM     86  C   UNL     1     151.218 164.243 196.278  0.00  0.00    -0.053 C 
ATOM     87  H   UNL     1     151.089 163.484 195.496  0.00  0.00    +0.024 HD
ATOM     88  H   UNL     1     150.557 163.980 197.112  0.00  0.00    +0.024 HD
ATOM     89  H   UNL     1     152.252 164.178 196.635  0.00  0.00    +0.024 HD
ENDBRANCH  84  86
BRANCH  84  90
ATOM     90  C   UNL     1     149.675 166.222 196.454  0.00  0.00    -0.053 C 
ATOM     91  H   UNL     1     148.763 166.019 195.879  0.00  0.00    +0.024 HD
ATOM     92  H   UNL     1     149.760 167.310 196.561  0.00  0.00    +0.024 HD
ATOM     93  H   UNL     1     149.559 165.798 197.460  0.00  0.00    +0.024 HD
ENDBRANCH  84  90
ENDBRANCH  82  84
ENDBRANCH  81  82
ENDBRANCH   1  81
TORSDOF 32
ENDMDL
MODEL 5
REMARK VINA RESULT:      -5.3      1.073      2.243
REMARK  Name = 2c_conf2
REMARK  32 active torsions:
REMARK  status: ('A' for Active; 'I' for Inactive)
REMARK    1  A    between atoms: N_2  and  C_3
REMARK    2  A    between atoms: N_2  and  C_5
REMARK    3  A    between atoms: C_3  and  C_4
REMARK    4  A    between atoms: C_6  and  C_7
REMARK    5  A    between atoms: C_7  and  C_8
REMARK    6  A    between atoms: C_7  and  C_9
REMARK    7  A    between atoms: C_9  and  O_10
REMARK    8  A    between atoms: C_9  and  C_12
REMARK    9  A    between atoms: O_10  and  C_11
REMARK   10  A    between atoms: C_12  and  C_13
REMARK   11  A    between atoms: C_12  and  C_14
REMARK   12  A    between atoms: C_14  and  O_15
REMARK   13  A    between atoms: C_14  and  C_21
REMARK   14  A    between atoms: O_15  and  C_16
REMARK   15  A    between atoms: C_16  and  C_17
REMARK   16  A    between atoms: C_17  and  C_18
REMARK   17  A    between atoms: C_17  and  C_19
REMARK   18  A    between atoms: C_21  and  C_22
REMARK   19  A    between atoms: C_22  and  C_23
REMARK   20  A    between atoms: C_23  and  C_24
REMARK   21  A    between atoms: C_23  and  C_25
REMARK   22  A    between atoms: C_25  and  O_26
REMARK   23  A    between atoms: C_25  and  C_28
REMARK   24  A    between atoms: O_26  and  C_27
REMARK   25  A    between atoms: C_28  and  C_29
REMARK   26  A    between atoms: C_29  and  O_30
REMARK   27  A    between atoms: C_29  and  C_35
REMARK   28  A    between atoms: O_30  and  C_31
REMARK   29  A    between atoms: C_31  and  C_32
REMARK   30  A    between atoms: C_32  and  C_33
REMARK   31  A    between atoms: C_35  and  C_36
REMARK   32  A    between atoms: C_35  and  C_37
REMARK                            x       y       z     vdW  Elec       q    Type
REMARK                         _______ _______ _______ _____ _____    ______ ____
ROOT
ATOM      1  C   UNL     1     147.225 170.677 191.367  0.00  0.00    +0.108 C 
ATOM      2  H   UNL     1     146.668 171.107 192.213  0.00  0.00    +0.074 HD
ENDROOT
BRANCH   1   3
ATOM      3  C   UNL     1     147.984 169.449 191.897  0.00  0.00    -0.015 C 
ATOM      4  H   UNL     1     147.470 168.537 191.589  0.00  0.00    +0.030 HD
ATOM      5  H   UNL     1     148.043 169.444 192.989  0.00  0.00    +0.030 HD
BRANCH   3   6
ATOM      6  C   UNL     1     149.425 169.415 191.353  0.00  0.00    -0.045 C 
ATOM      7  H   UNL     1     149.425 169.244 190.267  0.00  0.00    +0.027 HD
ATOM      8  H   UNL     1     149.857 170.413 191.508  0.00  0.00    +0.027 HD
BRANCH   6   9
ATOM      9  C   UNL     1     150.310 168.352 192.055  0.00  0.00    -0.017 C 
ATOM     10  H   UNL     1     149.873 168.146 193.036  0.00  0.00    +0.032 HD
BRANCH   9  11
ATOM     11  C   UNL     1     151.705 168.954 192.281  0.00  0.00    -0.060 C 
ATOM     12  H   UNL     1     151.808 169.286 193.318  0.00  0.00    +0.023 HD
ATOM     13  H   UNL     1     151.884 169.820 191.636  0.00  0.00    +0.023 HD
ATOM     14  H   UNL     1     152.503 168.230 192.098  0.00  0.00    +0.023 HD
ENDBRANCH   9  11
BRANCH   9  15
ATOM     15  C   UNL     1     150.364 167.040 191.218  0.00  0.00    +0.064 C 
ATOM     16  H   UNL     1     150.031 167.265 190.203  0.00  0.00    +0.060 HD
BRANCH  15  17
ATOM     17  C   UNL     1     149.518 165.885 191.800  0.00  0.00    +0.011 C 
ATOM     18  H   UNL     1     150.045 164.943 191.612  0.00  0.00    +0.033 HD
ATOM     19  H   UNL     1     148.597 165.765 191.220  0.00  0.00    +0.033 HD
BRANCH  17  20
ATOM     20  C   UNL     1     149.124 165.985 193.285  0.00  0.00    +0.108 C 
ATOM     21  H   UNL     1     149.330 166.978 193.699  0.00  0.00    +0.074 HD
BRANCH  20  22
ATOM     22  C   UNL     1     147.645 165.612 193.591  0.00  0.00    -0.009 C 
ATOM     23  H   UNL     1     147.552 164.517 193.562  0.00  0.00    +0.033 HD
BRANCH  22  24
ATOM     24  C   UNL     1     146.633 166.199 192.610  0.00  0.00    -0.059 C 
ATOM     25  H   UNL     1     146.144 167.085 193.021  0.00  0.00    +0.023 HD
ATOM     26  H   UNL     1     147.114 166.460 191.666  0.00  0.00    +0.023 HD
ATOM     27  H   UNL     1     145.852 165.469 192.374  0.00  0.00    +0.023 HD
ENDBRANCH  22  24
BRANCH  22  28
ATOM     28  C   UNL     1     147.274 166.039 195.020  0.00  0.00    -0.059 C 
ATOM     29  H   UNL     1     147.379 167.121 195.144  0.00  0.00    +0.023 HD
ATOM     30  H   UNL     1     146.239 165.771 195.249  0.00  0.00    +0.023 HD
ATOM     31  H   UNL     1     147.909 165.551 195.764  0.00  0.00    +0.023 HD
ENDBRANCH  22  28
ENDBRANCH  20  22
BRANCH  20  32
ATOM     32  O   UNL     1     149.921 164.998 193.999  0.00  0.00    -0.461 OA
BRANCH  32  33
ATOM     33  C   UNL     1     150.919 165.475 194.792  0.00  0.00    +0.307 C 
ATOM     34  O   UNL     1     151.896 166.101 194.408  0.00  0.00    -0.251 OA
BRANCH  33  35
ATOM     35  C   UNL     1     150.660 165.110 196.233  0.00  0.00    +0.042 C 
ATOM     36  H   UNL     1     151.088 165.891 196.869  0.00  0.00    +0.037 HD
ATOM     37  H   UNL     1     149.579 165.104 196.412  0.00  0.00    +0.037 HD
BRANCH  35  38
ATOM     38  C   UNL     1     151.279 163.770 196.580  0.00  0.00    -0.055 C 
ATOM     39  H   UNL     1     151.186 163.075 195.738  0.00  0.00    +0.023 HD
ATOM     40  H   UNL     1     152.345 163.869 196.814  0.00  0.00    +0.023 HD
ATOM     41  H   UNL     1     150.787 163.323 197.455  0.00  0.00    +0.023 HD
ENDBRANCH  35  38
ENDBRANCH  33  35
ENDBRANCH  32  33
ENDBRANCH  20  32
ENDBRANCH  17  20
ENDBRANCH  15  17
BRANCH  15  42
ATOM     42  O   UNL     1     151.750 166.645 191.151  0.00  0.00    -0.379 OA
BRANCH  42  43
ATOM     43  C   UNL     1     151.962 165.283 190.825  0.00  0.00    +0.037 C 
ATOM     44  H   UNL     1     152.667 165.239 189.987  0.00  0.00    +0.052 HD
ATOM     45  H   UNL     1     152.408 164.737 191.662  0.00  0.00    +0.052 HD
ATOM     46  H   UNL     1     151.026 164.807 190.513  0.00  0.00    +0.052 HD
ENDBRANCH  42  43
ENDBRANCH  15  42
ENDBRANCH   9  15
ENDBRANCH   6   9
ENDBRANCH   3   6
ENDBRANCH   1   3
BRANCH   1  47
ATOM     47  C   UNL     1     146.203 170.431 190.223  0.00  0.00    +0.020 C 
ATOM     48  H   UNL     1     145.879 169.390 190.370  0.00  0.00    +0.036 HD
BRANCH  47  49
ATOM     49  C   UNL     1     146.867 170.392 188.843  0.00  0.00    -0.057 C 
ATOM     50  H   UNL     1     147.938 170.598 188.886  0.00  0.00    +0.023 HD
ATOM     51  H   UNL     1     146.412 171.119 188.159  0.00  0.00    +0.023 HD
ATOM     52  H   UNL     1     146.745 169.402 188.387  0.00  0.00    +0.023 HD
ENDBRANCH  47  49
BRANCH  47  53
ATOM     53  C   UNL     1     144.872 171.240 190.287  0.00  0.00    +0.070 C 
ATOM     54  H   UNL     1     144.798 171.826 189.363  0.00  0.00    +0.061 HD
BRANCH  53  55
ATOM     55  C   UNL     1     143.537 170.447 190.394  0.00  0.00    +0.002 C 
ATOM     56  H   UNL     1     143.039 170.472 189.422  0.00  0.00    +0.037 HD
BRANCH  55  58
ATOM     57  C   UNL     1     142.670 168.230 191.201  0.00  0.00    -0.005 C 
ATOM     58  C   UNL     1     143.700 169.014 190.855  0.00  0.00    -0.065 C 
ATOM     59  H   UNL     1     141.658 168.634 191.158  0.00  0.00    +0.078 HD
ATOM     60  H   UNL     1     144.725 168.651 190.886  0.00  0.00    +0.059 HD
BRANCH  57  62
ATOM     61  C   UNL     1     142.927 166.634 192.975  0.00  0.00    +0.206 C 
ATOM     62  N   UNL     1     142.741 166.909 191.621  0.00  0.00    -0.281 N 
ATOM     63  O   UNL     1     143.064 167.454 193.875  0.00  0.00    -0.279 OA
ATOM     64  H   UNL     1     142.943 165.554 193.194  0.00  0.00    +0.126 HD
BRANCH  62  65
ATOM     65  C   UNL     1     142.597 165.783 190.701  0.00  0.00    +0.016 C 
ATOM     66  H   UNL     1     143.552 165.258 190.605  0.00  0.00    +0.047 HD
ATOM     67  H   UNL     1     141.895 165.061 191.137  0.00  0.00    +0.047 HD
BRANCH  65  68
ATOM     68  C   UNL     1     142.066 166.211 189.342  0.00  0.00    -0.049 C 
ATOM     69  H   UNL     1     142.732 165.860 188.547  0.00  0.00    +0.024 HD
ATOM     70  H   UNL     1     141.068 165.807 189.167  0.00  0.00    +0.024 HD
ATOM     71  H   UNL     1     142.004 167.303 189.261  0.00  0.00    +0.024 HD
ENDBRANCH  65  68
ENDBRANCH  62  65
ENDBRANCH  57  62
ENDBRANCH  55  58
BRANCH  55  72
ATOM     72  C   UNL     1     142.585 171.153 191.373  0.00  0.00    -0.057 C 
ATOM     73  H   UNL     1     141.607 170.663 191.426  0.00  0.00    +0.024 HD
ATOM     74  H   UNL     1     143.008 171.165 192.384  0.00  0.00    +0.024 HD
ATOM     75  H   UNL     1     142.418 172.195 191.074  0.00  0.00    +0.024 HD
ENDBRANCH  55  72
ENDBRANCH  53  55
BRANCH  53  76
ATOM     76  O   UNL     1     144.909 172.170 191.393  0.00  0.00    -0.379 OA
BRANCH  76  77
ATOM     77  C   UNL     1     144.839 173.535 191.000  0.00  0.00    +0.037 C 
ATOM     78  H   UNL     1     144.118 173.662 190.184  0.00  0.00    +0.052 HD
ATOM     79  H   UNL     1     144.495 174.117 191.858  0.00  0.00    +0.052 HD
ATOM     80  H   UNL     1     145.820 173.913 190.695  0.00  0.00    +0.052 HD
ENDBRANCH  76  77
ENDBRANCH  53  76
ENDBRANCH  47  53
ENDBRANCH   1  47
BRANCH   1  81
ATOM     81  O   UNL     1     148.238 171.615 190.942  0.00  0.00    -0.461 OA
BRANCH  81  82
ATOM     82  C   UNL     1     148.284 172.819 191.571  0.00  0.00    +0.310 C 
ATOM     83  O   UNL     1     148.335 173.900 191.000  0.00  0.00    -0.251 OA
BRANCH  82  84
ATOM     84  C   UNL     1     148.252 172.670 193.083  0.00  0.00    +0.051 C 
ATOM     85  H   UNL     1     147.857 171.664 193.286  0.00  0.00    +0.041 HD
BRANCH  84  86
ATOM     86  C   UNL     1     147.328 173.669 193.777  0.00  0.00    -0.053 C 
ATOM     87  H   UNL     1     146.731 174.243 193.057  0.00  0.00    +0.024 HD
ATOM     88  H   UNL     1     147.906 174.382 194.376  0.00  0.00    +0.024 HD
ATOM     89  H   UNL     1     146.632 173.154 194.448  0.00  0.00    +0.024 HD
ENDBRANCH  84  86
BRANCH  84  90
ATOM     90  C   UNL     1     149.673 172.770 193.632  0.00  0.00    -0.053 C 
ATOM     91  H   UNL     1     149.971 173.815 193.787  0.00  0.00    +0.024 HD
ATOM     92  H   UNL     1     150.392 172.325 192.933  0.00  0.00    +0.024 HD
ATOM     93  H   UNL     1     149.761 172.233 194.585  0.00  0.00    +0.024 HD
ENDBRANCH  84  90
ENDBRANCH  82  84
ENDBRANCH  81  82
ENDBRANCH   1  81
TORSDOF 32
ENDMDL
MODEL 6
REMARK VINA RESULT:      -5.2      1.841      3.004
REMARK  Name = 2c_conf2
REMARK  32 active torsions:
REMARK  status: ('A' for Active; 'I' for Inactive)
REMARK    1  A    between atoms: N_2  and  C_3
REMARK    2  A    between atoms: N_2  and  C_5
REMARK    3  A    between atoms: C_3  and  C_4
REMARK    4  A    between atoms: C_6  and  C_7
REMARK    5  A    between atoms: C_7  and  C_8
REMARK    6  A    between atoms: C_7  and  C_9
REMARK    7  A    between atoms: C_9  and  O_10
REMARK    8  A    between atoms: C_9  and  C_12
REMARK    9  A    between atoms: O_10  and  C_11
REMARK   10  A    between atoms: C_12  and  C_13
REMARK   11  A    between atoms: C_12  and  C_14
REMARK   12  A    between atoms: C_14  and  O_15
REMARK   13  A    between atoms: C_14  and  C_21
REMARK   14  A    between atoms: O_15  and  C_16
REMARK   15  A    between atoms: C_16  and  C_17
REMARK   16  A    between atoms: C_17  and  C_18
REMARK   17  A    between atoms: C_17  and  C_19
REMARK   18  A    between atoms: C_21  and  C_22
REMARK   19  A    between atoms: C_22  and  C_23
REMARK   20  A    between atoms: C_23  and  C_24
REMARK   21  A    between atoms: C_23  and  C_25
REMARK   22  A    between atoms: C_25  and  O_26
REMARK   23  A    between atoms: C_25  and  C_28
REMARK   24  A    between atoms: O_26  and  C_27
REMARK   25  A    between atoms: C_28  and  C_29
REMARK   26  A    between atoms: C_29  and  O_30
REMARK   27  A    between atoms: C_29  and  C_35
REMARK   28  A    between atoms: O_30  and  C_31
REMARK   29  A    between atoms: C_31  and  C_32
REMARK   30  A    between atoms: C_32  and  C_33
REMARK   31  A    between atoms: C_35  and  C_36
REMARK   32  A    between atoms: C_35  and  C_37
REMARK                            x       y       z     vdW  Elec       q    Type
REMARK                         _______ _______ _______ _____ _____    ______ ____
ROOT
ATOM      1  C   UNL     1     147.336 170.493 191.491  0.00  0.00    +0.108 C 
ATOM      2  H   UNL     1     146.832 170.964 192.348  0.00  0.00    +0.074 HD
ENDROOT
BRANCH   1   3
ATOM      3  C   UNL     1     148.052 169.237 192.016  0.00  0.00    -0.015 C 
ATOM      4  H   UNL     1     147.419 168.362 191.863  0.00  0.00    +0.030 HD
ATOM      5  H   UNL     1     148.268 169.306 193.086  0.00  0.00    +0.030 HD
BRANCH   3   6
ATOM      6  C   UNL     1     149.389 169.018 191.284  0.00  0.00    -0.045 C 
ATOM      7  H   UNL     1     149.332 168.139 190.628  0.00  0.00    +0.027 HD
ATOM      8  H   UNL     1     149.548 169.884 190.626  0.00  0.00    +0.027 HD
BRANCH   6   9
ATOM      9  C   UNL     1     150.592 168.877 192.253  0.00  0.00    -0.017 C 
ATOM     10  H   UNL     1     150.225 169.043 193.270  0.00  0.00    +0.032 HD
BRANCH   9  11
ATOM     11  C   UNL     1     151.606 169.986 191.934  0.00  0.00    -0.060 C 
ATOM     12  H   UNL     1     151.859 169.969 190.870  0.00  0.00    +0.023 HD
ATOM     13  H   UNL     1     152.537 169.860 192.498  0.00  0.00    +0.023 HD
ATOM     14  H   UNL     1     151.214 170.981 192.153  0.00  0.00    +0.023 HD
ENDBRANCH   9  11
BRANCH   9  15
ATOM     15  C   UNL     1     151.222 167.457 192.148  0.00  0.00    +0.064 C 
ATOM     16  H   UNL     1     150.470 166.776 191.743  0.00  0.00    +0.060 HD
BRANCH  15  17
ATOM     17  C   UNL     1     151.758 166.903 193.487  0.00  0.00    +0.011 C 
ATOM     18  H   UNL     1     151.809 167.729 194.205  0.00  0.00    +0.033 HD
ATOM     19  H   UNL     1     152.808 166.611 193.380  0.00  0.00    +0.033 HD
BRANCH  17  20
ATOM     20  C   UNL     1     151.003 165.710 194.103  0.00  0.00    +0.108 C 
ATOM     21  H   UNL     1     151.283 164.760 193.636  0.00  0.00    +0.074 HD
BRANCH  20  22
ATOM     22  C   UNL     1     151.154 165.573 195.645  0.00  0.00    -0.009 C 
ATOM     23  H   UNL     1     152.065 166.107 195.952  0.00  0.00    +0.033 HD
BRANCH  22  24
ATOM     24  C   UNL     1     151.260 164.133 196.142  0.00  0.00    -0.059 C 
ATOM     25  H   UNL     1     152.301 163.836 196.288  0.00  0.00    +0.023 HD
ATOM     26  H   UNL     1     150.716 164.006 197.080  0.00  0.00    +0.023 HD
ATOM     27  H   UNL     1     150.814 163.440 195.422  0.00  0.00    +0.023 HD
ENDBRANCH  22  24
BRANCH  22  28
ATOM     28  C   UNL     1     149.984 166.271 196.358  0.00  0.00    -0.059 C 
ATOM     29  H   UNL     1     149.616 167.116 195.769  0.00  0.00    +0.023 HD
ATOM     30  H   UNL     1     149.154 165.577 196.510  0.00  0.00    +0.023 HD
ATOM     31  H   UNL     1     150.279 166.648 197.341  0.00  0.00    +0.023 HD
ENDBRANCH  22  28
ENDBRANCH  20  22
BRANCH  20  32
ATOM     32  O   UNL     1     149.585 165.950 193.880  0.00  0.00    -0.461 OA
BRANCH  32  33
ATOM     33  C   UNL     1     148.921 165.035 193.122  0.00  0.00    +0.307 C 
ATOM     34  O   UNL     1     149.237 163.863 192.982  0.00  0.00    -0.251 OA
BRANCH  33  35
ATOM     35  C   UNL     1     147.728 165.677 192.455  0.00  0.00    +0.042 C 
ATOM     36  H   UNL     1     146.827 165.145 192.776  0.00  0.00    +0.037 HD
ATOM     37  H   UNL     1     147.636 166.711 192.806  0.00  0.00    +0.037 HD
BRANCH  35  38
ATOM     38  C   UNL     1     147.848 165.620 190.945  0.00  0.00    -0.055 C 
ATOM     39  H   UNL     1     147.025 166.169 190.474  0.00  0.00    +0.023 HD
ATOM     40  H   UNL     1     148.787 166.065 190.600  0.00  0.00    +0.023 HD
ATOM     41  H   UNL     1     147.822 164.581 190.586  0.00  0.00    +0.023 HD
ENDBRANCH  35  38
ENDBRANCH  33  35
ENDBRANCH  32  33
ENDBRANCH  20  32
ENDBRANCH  17  20
ENDBRANCH  15  17
BRANCH  15  42
ATOM     42  O   UNL     1     152.296 167.547 191.191  0.00  0.00    -0.379 OA
BRANCH  42  43
ATOM     43  C   UNL     1     152.549 166.354 190.470  0.00  0.00    +0.037 C 
ATOM     44  H   UNL     1     153.362 166.549 189.762  0.00  0.00    +0.052 HD
ATOM     45  H   UNL     1     152.877 165.549 191.136  0.00  0.00    +0.052 HD
ATOM     46  H   UNL     1     151.664 166.046 189.904  0.00  0.00    +0.052 HD
ENDBRANCH  42  43
ENDBRANCH  15  42
ENDBRANCH   9  15
ENDBRANCH   6   9
ENDBRANCH   3   6
ENDBRANCH   1   3
BRANCH   1  47
ATOM     47  C   UNL     1     146.264 170.281 190.386  0.00  0.00    +0.020 C 
ATOM     48  H   UNL     1     145.947 169.235 190.516  0.00  0.00    +0.036 HD
BRANCH  47  49
ATOM     49  C   UNL     1     146.866 170.285 188.978  0.00  0.00    -0.057 C 
ATOM     50  H   UNL     1     147.634 169.520 188.846  0.00  0.00    +0.023 HD
ATOM     51  H   UNL     1     147.315 171.256 188.738  0.00  0.00    +0.023 HD
ATOM     52  H   UNL     1     146.088 170.097 188.229  0.00  0.00    +0.023 HD
ENDBRANCH  47  49
BRANCH  47  53
ATOM     53  C   UNL     1     144.937 171.086 190.535  0.00  0.00    +0.070 C 
ATOM     54  H   UNL     1     144.698 171.510 189.553  0.00  0.00    +0.061 HD
BRANCH  53  55
ATOM     55  C   UNL     1     143.661 170.318 190.988  0.00  0.00    +0.002 C 
ATOM     56  H   UNL     1     143.655 170.267 192.079  0.00  0.00    +0.037 HD
BRANCH  55  58
ATOM     57  C   UNL     1     141.515 171.594 191.277  0.00  0.00    -0.005 C 
ATOM     58  C   UNL     1     142.364 170.919 190.490  0.00  0.00    -0.065 C 
ATOM     59  H   UNL     1     141.758 171.721 192.332  0.00  0.00    +0.078 HD
ATOM     60  H   UNL     1     142.159 170.768 189.433  0.00  0.00    +0.059 HD
BRANCH  57  62
ATOM     61  C   UNL     1     140.060 173.502 191.252  0.00  0.00    +0.206 C 
ATOM     62  N   UNL     1     140.318 172.181 190.891  0.00  0.00    -0.281 N 
ATOM     63  O   UNL     1     140.784 174.233 191.916  0.00  0.00    -0.279 OA
ATOM     64  H   UNL     1     139.093 173.868 190.871  0.00  0.00    +0.126 HD
BRANCH  62  65
ATOM     65  C   UNL     1     139.321 171.476 190.090  0.00  0.00    +0.016 C 
ATOM     66  H   UNL     1     138.589 172.187 189.696  0.00  0.00    +0.047 HD
ATOM     67  H   UNL     1     139.819 171.036 189.216  0.00  0.00    +0.047 HD
BRANCH  65  68
ATOM     68  C   UNL     1     138.638 170.360 190.867  0.00  0.00    -0.049 C 
ATOM     69  H   UNL     1     138.601 170.607 191.933  0.00  0.00    +0.024 HD
ATOM     70  H   UNL     1     137.621 170.199 190.509  0.00  0.00    +0.024 HD
ATOM     71  H   UNL     1     139.182 169.413 190.768  0.00  0.00    +0.024 HD
ENDBRANCH  65  68
ENDBRANCH  62  65
ENDBRANCH  57  62
ENDBRANCH  55  58
BRANCH  55  72
ATOM     72  C   UNL     1     143.727 168.861 190.499  0.00  0.00    -0.057 C 
ATOM     73  H   UNL     1     143.430 168.764 189.449  0.00  0.00    +0.024 HD
ATOM     74  H   UNL     1     144.744 168.466 190.597  0.00  0.00    +0.024 HD
ATOM     75  H   UNL     1     143.065 168.219 191.092  0.00  0.00    +0.024 HD
ENDBRANCH  55  72
ENDBRANCH  53  55
BRANCH  53  76
ATOM     76  O   UNL     1     145.124 172.186 191.453  0.00  0.00    -0.379 OA
BRANCH  76  77
ATOM     77  C   UNL     1     144.934 173.467 190.863  0.00  0.00    +0.037 C 
ATOM     78  H   UNL     1     144.247 173.398 190.012  0.00  0.00    +0.052 HD
ATOM     79  H   UNL     1     144.487 174.122 191.614  0.00  0.00    +0.052 HD
ATOM     80  H   UNL     1     145.885 173.904 190.543  0.00  0.00    +0.052 HD
ENDBRANCH  76  77
ENDBRANCH  53  76
ENDBRANCH  47  53
ENDBRANCH   1  47
BRANCH   1  81
ATOM     81  O   UNL     1     148.380 171.372 191.016  0.00  0.00    -0.461 OA
BRANCH  81  82
ATOM     82  C   UNL     1     148.455 172.614 191.564  0.00  0.00    +0.310 C 
ATOM     83  O   UNL     1     148.565 173.651 190.925  0.00  0.00    -0.251 OA
BRANCH  82  84
ATOM     84  C   UNL     1     148.373 172.568 193.081  0.00  0.00    +0.051 C 
ATOM     85  H   UNL     1     147.996 171.568 193.340  0.00  0.00    +0.041 HD
BRANCH  84  86
ATOM     86  C   UNL     1     147.400 173.587 193.673  0.00  0.00    -0.053 C 
ATOM     87  H   UNL     1     147.574 174.596 193.278  0.00  0.00    +0.024 HD
ATOM     88  H   UNL     1     147.500 173.633 194.763  0.00  0.00    +0.024 HD
ATOM     89  H   UNL     1     146.364 173.315 193.442  0.00  0.00    +0.024 HD
ENDBRANCH  84  86
BRANCH  84  90
ATOM     90  C   UNL     1     149.771 172.745 193.669  0.00  0.00    -0.053 C 
ATOM     91  H   UNL     1     150.544 172.692 192.891  0.00  0.00    +0.024 HD
ATOM     92  H   UNL     1     149.987 171.957 194.400  0.00  0.00    +0.024 HD
ATOM     93  H   UNL     1     149.856 173.710 194.185  0.00  0.00    +0.024 HD
ENDBRANCH  84  90
ENDBRANCH  82  84
ENDBRANCH  81  82
ENDBRANCH   1  81
TORSDOF 32
ENDMDL
MODEL 7
REMARK VINA RESULT:      -5.2      2.522      4.629
REMARK  Name = 2c_conf2
REMARK  32 active torsions:
REMARK  status: ('A' for Active; 'I' for Inactive)
REMARK    1  A    between atoms: N_2  and  C_3
REMARK    2  A    between atoms: N_2  and  C_5
REMARK    3  A    between atoms: C_3  and  C_4
REMARK    4  A    between atoms: C_6  and  C_7
REMARK    5  A    between atoms: C_7  and  C_8
REMARK    6  A    between atoms: C_7  and  C_9
REMARK    7  A    between atoms: C_9  and  O_10
REMARK    8  A    between atoms: C_9  and  C_12
REMARK    9  A    between atoms: O_10  and  C_11
REMARK   10  A    between atoms: C_12  and  C_13
REMARK   11  A    between atoms: C_12  and  C_14
REMARK   12  A    between atoms: C_14  and  O_15
REMARK   13  A    between atoms: C_14  and  C_21
REMARK   14  A    between atoms: O_15  and  C_16
REMARK   15  A    between atoms: C_16  and  C_17
REMARK   16  A    between atoms: C_17  and  C_18
REMARK   17  A    between atoms: C_17  and  C_19
REMARK   18  A    between atoms: C_21  and  C_22
REMARK   19  A    between atoms: C_22  and  C_23
REMARK   20  A    between atoms: C_23  and  C_24
REMARK   21  A    between atoms: C_23  and  C_25
REMARK   22  A    between atoms: C_25  and  O_26
REMARK   23  A    between atoms: C_25  and  C_28
REMARK   24  A    between atoms: O_26  and  C_27
REMARK   25  A    between atoms: C_28  and  C_29
REMARK   26  A    between atoms: C_29  and  O_30
REMARK   27  A    between atoms: C_29  and  C_35
REMARK   28  A    between atoms: O_30  and  C_31
REMARK   29  A    between atoms: C_31  and  C_32
REMARK   30  A    between atoms: C_32  and  C_33
REMARK   31  A    between atoms: C_35  and  C_36
REMARK   32  A    between atoms: C_35  and  C_37
REMARK                            x       y       z     vdW  Elec       q    Type
REMARK                         _______ _______ _______ _____ _____    ______ ____
ROOT
ATOM      1  C   UNL     1     147.215 170.521 191.287  0.00  0.00    +0.108 C 
ATOM      2  H   UNL     1     146.622 170.954 192.107  0.00  0.00    +0.074 HD
ENDROOT
BRANCH   1   3
ATOM      3  C   UNL     1     147.923 169.274 191.844  0.00  0.00    -0.015 C 
ATOM      4  H   UNL     1     147.322 168.387 191.639  0.00  0.00    +0.030 HD
ATOM      5  H   UNL     1     148.067 169.335 192.927  0.00  0.00    +0.030 HD
BRANCH   3   6
ATOM      6  C   UNL     1     149.311 169.094 191.199  0.00  0.00    -0.045 C 
ATOM      7  H   UNL     1     149.233 168.515 190.268  0.00  0.00    +0.027 HD
ATOM      8  H   UNL     1     149.670 170.092 190.912  0.00  0.00    +0.027 HD
BRANCH   6   9
ATOM      9  C   UNL     1     150.337 168.428 192.152  0.00  0.00    -0.017 C 
ATOM     10  H   UNL     1     149.852 168.286 193.122  0.00  0.00    +0.032 HD
BRANCH   9  11
ATOM     11  C   UNL     1     151.513 169.396 192.353  0.00  0.00    -0.060 C 
ATOM     12  H   UNL     1     151.156 170.430 192.335  0.00  0.00    +0.023 HD
ATOM     13  H   UNL     1     152.266 169.291 191.564  0.00  0.00    +0.023 HD
ATOM     14  H   UNL     1     152.012 169.248 193.314  0.00  0.00    +0.023 HD
ENDBRANCH   9  11
BRANCH   9  15
ATOM     15  C   UNL     1     150.799 167.051 191.590  0.00  0.00    +0.064 C 
ATOM     16  H   UNL     1     150.464 166.973 190.554  0.00  0.00    +0.060 HD
BRANCH  15  17
ATOM     17  C   UNL     1     150.285 165.836 192.395  0.00  0.00    +0.011 C 
ATOM     18  H   UNL     1     151.115 165.447 192.996  0.00  0.00    +0.033 HD
ATOM     19  H   UNL     1     150.065 165.003 191.720  0.00  0.00    +0.033 HD
BRANCH  17  20
ATOM     20  C   UNL     1     149.045 166.058 193.282  0.00  0.00    +0.108 C 
ATOM     21  H   UNL     1     148.916 167.111 193.551  0.00  0.00    +0.074 HD
BRANCH  20  22
ATOM     22  C   UNL     1     147.714 165.527 192.678  0.00  0.00    -0.009 C 
ATOM     23  H   UNL     1     147.625 164.459 192.923  0.00  0.00    +0.033 HD
BRANCH  22  24
ATOM     24  C   UNL     1     147.607 165.674 191.162  0.00  0.00    -0.059 C 
ATOM     25  H   UNL     1     146.942 164.923 190.732  0.00  0.00    +0.023 HD
ATOM     26  H   UNL     1     147.245 166.669 190.895  0.00  0.00    +0.023 HD
ATOM     27  H   UNL     1     148.588 165.559 190.690  0.00  0.00    +0.023 HD
ENDBRANCH  22  24
BRANCH  22  28
ATOM     28  C   UNL     1     146.515 166.223 193.342  0.00  0.00    -0.059 C 
ATOM     29  H   UNL     1     146.694 166.376 194.410  0.00  0.00    +0.023 HD
ATOM     30  H   UNL     1     146.333 167.200 192.886  0.00  0.00    +0.023 HD
ATOM     31  H   UNL     1     145.599 165.637 193.234  0.00  0.00    +0.023 HD
ENDBRANCH  22  28
ENDBRANCH  20  22
BRANCH  20  32
ATOM     32  O   UNL     1     149.251 165.279 194.494  0.00  0.00    -0.461 OA
BRANCH  32  33
ATOM     33  C   UNL     1     149.439 165.979 195.646  0.00  0.00    +0.307 C 
ATOM     34  O   UNL     1     148.583 166.622 196.237  0.00  0.00    -0.251 OA
BRANCH  33  35
ATOM     35  C   UNL     1     150.874 165.864 196.099  0.00  0.00    +0.042 C 
ATOM     36  H   UNL     1     151.500 166.436 195.408  0.00  0.00    +0.037 HD
ATOM     37  H   UNL     1     150.975 166.329 197.087  0.00  0.00    +0.037 HD
BRANCH  35  38
ATOM     38  C   UNL     1     151.327 164.418 196.126  0.00  0.00    -0.055 C 
ATOM     39  H   UNL     1     151.993 164.209 195.282  0.00  0.00    +0.023 HD
ATOM     40  H   UNL     1     151.872 164.185 197.047  0.00  0.00    +0.023 HD
ATOM     41  H   UNL     1     150.468 163.735 196.068  0.00  0.00    +0.023 HD
ENDBRANCH  35  38
ENDBRANCH  33  35
ENDBRANCH  32  33
ENDBRANCH  20  32
ENDBRANCH  17  20
ENDBRANCH  15  17
BRANCH  15  42
ATOM     42  O   UNL     1     152.241 167.063 191.589  0.00  0.00    -0.379 OA
BRANCH  42  43
ATOM     43  C   UNL     1     152.837 166.496 190.436  0.00  0.00    +0.037 C 
ATOM     44  H   UNL     1     153.920 166.645 190.504  0.00  0.00    +0.052 HD
ATOM     45  H   UNL     1     152.653 165.419 190.381  0.00  0.00    +0.052 HD
ATOM     46  H   UNL     1     152.477 166.993 189.528  0.00  0.00    +0.052 HD
ENDBRANCH  42  43
ENDBRANCH  15  42
ENDBRANCH   9  15
ENDBRANCH   6   9
ENDBRANCH   3   6
ENDBRANCH   1   3
BRANCH   1  47
ATOM     47  C   UNL     1     146.251 170.304 190.088  0.00  0.00    +0.020 C 
ATOM     48  H   UNL     1     145.706 169.383 190.344  0.00  0.00    +0.036 HD
BRANCH  47  49
ATOM     49  C   UNL     1     146.992 169.919 188.803  0.00  0.00    -0.057 C 
ATOM     50  H   UNL     1     147.329 168.881 188.807  0.00  0.00    +0.023 HD
ATOM     51  H   UNL     1     147.869 170.557 188.641  0.00  0.00    +0.023 HD
ATOM     52  H   UNL     1     146.338 170.045 187.932  0.00  0.00    +0.023 HD
ENDBRANCH  47  49
BRANCH  47  53
ATOM     53  C   UNL     1     145.119 171.359 189.900  0.00  0.00    +0.070 C 
ATOM     54  H   UNL     1     144.342 170.902 189.276  0.00  0.00    +0.061 HD
BRANCH  53  55
ATOM     55  C   UNL     1     144.388 171.883 191.172  0.00  0.00    +0.002 C 
ATOM     56  H   UNL     1     144.933 171.535 192.052  0.00  0.00    +0.037 HD
BRANCH  55  58
ATOM     57  C   UNL     1     143.130 173.996 191.691  0.00  0.00    -0.005 C 
ATOM     58  C   UNL     1     144.228 173.387 191.222  0.00  0.00    -0.065 C 
ATOM     59  H   UNL     1     142.301 173.388 192.054  0.00  0.00    +0.078 HD
ATOM     60  H   UNL     1     145.076 173.956 190.849  0.00  0.00    +0.059 HD
BRANCH  57  62
ATOM     61  C   UNL     1     142.966 175.983 193.027  0.00  0.00    +0.206 C 
ATOM     62  N   UNL     1     142.916 175.364 191.779  0.00  0.00    -0.281 N 
ATOM     63  O   UNL     1     143.163 175.437 194.106  0.00  0.00    -0.279 OA
ATOM     64  H   UNL     1     142.807 177.072 192.971  0.00  0.00    +0.126 HD
BRANCH  62  65
ATOM     65  C   UNL     1     142.668 176.197 190.605  0.00  0.00    +0.016 C 
ATOM     66  H   UNL     1     143.179 175.775 189.735  0.00  0.00    +0.047 HD
ATOM     67  H   UNL     1     141.595 176.165 190.372  0.00  0.00    +0.047 HD
BRANCH  65  68
ATOM     68  C   UNL     1     143.069 177.647 190.828  0.00  0.00    -0.049 C 
ATOM     69  H   UNL     1     142.234 178.209 191.259  0.00  0.00    +0.024 HD
ATOM     70  H   UNL     1     143.923 177.717 191.501  0.00  0.00    +0.024 HD
ATOM     71  H   UNL     1     143.343 178.136 189.887  0.00  0.00    +0.024 HD
ENDBRANCH  65  68
ENDBRANCH  62  65
ENDBRANCH  57  62
ENDBRANCH  55  58
BRANCH  55  72
ATOM     72  C   UNL     1     142.988 171.254 191.266  0.00  0.00    -0.057 C 
ATOM     73  H   UNL     1     142.382 171.460 190.378  0.00  0.00    +0.024 HD
ATOM     74  H   UNL     1     143.059 170.166 191.377  0.00  0.00    +0.024 HD
ATOM     75  H   UNL     1     142.444 171.639 192.137  0.00  0.00    +0.024 HD
ENDBRANCH  55  72
ENDBRANCH  53  55
BRANCH  53  76
ATOM     76  O   UNL     1     145.626 172.512 189.192  0.00  0.00    -0.379 OA
BRANCH  76  77
ATOM     77  C   UNL     1     145.047 172.699 187.907  0.00  0.00    +0.037 C 
ATOM     78  H   UNL     1     145.708 173.300 187.273  0.00  0.00    +0.052 HD
ATOM     79  H   UNL     1     144.925 171.717 187.445  0.00  0.00    +0.052 HD
ATOM     80  H   UNL     1     144.062 173.174 187.979  0.00  0.00    +0.052 HD
ENDBRANCH  76  77
ENDBRANCH  53  76
ENDBRANCH  47  53
ENDBRANCH   1  47
BRANCH   1  81
ATOM     81  O   UNL     1     148.266 171.444 190.925  0.00  0.00    -0.461 OA
BRANCH  81  82
ATOM     82  C   UNL     1     148.241 172.679 191.491  0.00  0.00    +0.310 C 
ATOM     83  O   UNL     1     148.235 173.730 190.865  0.00  0.00    -0.251 OA
BRANCH  82  84
ATOM     84  C   UNL     1     148.207 172.606 193.008  0.00  0.00    +0.051 C 
ATOM     85  H   UNL     1     147.839 171.602 193.261  0.00  0.00    +0.041 HD
BRANCH  84  86
ATOM     86  C   UNL     1     147.253 173.614 193.649  0.00  0.00    -0.053 C 
ATOM     87  H   UNL     1     147.794 174.413 194.173  0.00  0.00    +0.024 HD
ATOM     88  H   UNL     1     146.597 173.121 194.376  0.00  0.00    +0.024 HD
ATOM     89  H   UNL     1     146.620 174.085 192.890  0.00  0.00    +0.024 HD
ENDBRANCH  84  86
BRANCH  84  90
ATOM     90  C   UNL     1     149.623 172.774 193.555  0.00  0.00    -0.053 C 
ATOM     91  H   UNL     1     150.338 172.134 193.022  0.00  0.00    +0.024 HD
ATOM     92  H   UNL     1     149.665 172.500 194.616  0.00  0.00    +0.024 HD
ATOM     93  H   UNL     1     149.952 173.817 193.468  0.00  0.00    +0.024 HD
ENDBRANCH  84  90
ENDBRANCH  82  84
ENDBRANCH  81  82
ENDBRANCH   1  81
TORSDOF 32
ENDMDL
MODEL 8
REMARK VINA RESULT:      -5.2      1.538      2.884
REMARK  Name = 2c_conf2
REMARK  32 active torsions:
REMARK  status: ('A' for Active; 'I' for Inactive)
REMARK    1  A    between atoms: N_2  and  C_3
REMARK    2  A    between atoms: N_2  and  C_5
REMARK    3  A    between atoms: C_3  and  C_4
REMARK    4  A    between atoms: C_6  and  C_7
REMARK    5  A    between atoms: C_7  and  C_8
REMARK    6  A    between atoms: C_7  and  C_9
REMARK    7  A    between atoms: C_9  and  O_10
REMARK    8  A    between atoms: C_9  and  C_12
REMARK    9  A    between atoms: O_10  and  C_11
REMARK   10  A    between atoms: C_12  and  C_13
REMARK   11  A    between atoms: C_12  and  C_14
REMARK   12  A    between atoms: C_14  and  O_15
REMARK   13  A    between atoms: C_14  and  C_21
REMARK   14  A    between atoms: O_15  and  C_16
REMARK   15  A    between atoms: C_16  and  C_17
REMARK   16  A    between atoms: C_17  and  C_18
REMARK   17  A    between atoms: C_17  and  C_19
REMARK   18  A    between atoms: C_21  and  C_22
REMARK   19  A    between atoms: C_22  and  C_23
REMARK   20  A    between atoms: C_23  and  C_24
REMARK   21  A    between atoms: C_23  and  C_25
REMARK   22  A    between atoms: C_25  and  O_26
REMARK   23  A    between atoms: C_25  and  C_28
REMARK   24  A    between atoms: O_26  and  C_27
REMARK   25  A    between atoms: C_28  and  C_29
REMARK   26  A    between atoms: C_29  and  O_30
REMARK   27  A    between atoms: C_29  and  C_35
REMARK   28  A    between atoms: O_30  and  C_31
REMARK   29  A    between atoms: C_31  and  C_32
REMARK   30  A    between atoms: C_32  and  C_33
REMARK   31  A    between atoms: C_35  and  C_36
REMARK   32  A    between atoms: C_35  and  C_37
REMARK                            x       y       z     vdW  Elec       q    Type
REMARK                         _______ _______ _______ _____ _____    ______ ____
ROOT
ATOM      1  C   UNL     1     146.511 170.568 189.983  0.00  0.00    +0.108 C 
ATOM      2  H   UNL     1     146.026 170.039 190.818  0.00  0.00    +0.074 HD
ENDROOT
BRANCH   1   3
ATOM      3  C   UNL     1     147.206 169.507 189.113  0.00  0.00    -0.015 C 
ATOM      4  H   UNL     1     148.233 169.814 188.910  0.00  0.00    +0.030 HD
ATOM      5  H   UNL     1     146.704 169.374 188.150  0.00  0.00    +0.030 HD
BRANCH   3   6
ATOM      6  C   UNL     1     147.226 168.139 189.821  0.00  0.00    -0.045 C 
ATOM      7  H   UNL     1     146.547 168.141 190.685  0.00  0.00    +0.027 HD
ATOM      8  H   UNL     1     146.825 167.399 189.115  0.00  0.00    +0.027 HD
BRANCH   6   9
ATOM      9  C   UNL     1     148.649 167.712 190.268  0.00  0.00    -0.017 C 
ATOM     10  H   UNL     1     149.204 168.617 190.532  0.00  0.00    +0.032 HD
BRANCH   9  11
ATOM     11  C   UNL     1     149.358 167.060 189.071  0.00  0.00    -0.060 C 
ATOM     12  H   UNL     1     148.620 166.690 188.352  0.00  0.00    +0.023 HD
ATOM     13  H   UNL     1     149.976 166.209 189.379  0.00  0.00    +0.023 HD
ATOM     14  H   UNL     1     149.999 167.764 188.536  0.00  0.00    +0.023 HD
ENDBRANCH   9  11
BRANCH   9  15
ATOM     15  C   UNL     1     148.578 166.761 191.499  0.00  0.00    +0.064 C 
ATOM     16  H   UNL     1     147.529 166.615 191.761  0.00  0.00    +0.060 HD
BRANCH  15  17
ATOM     17  C   UNL     1     149.357 167.268 192.734  0.00  0.00    +0.011 C 
ATOM     18  H   UNL     1     148.743 167.091 193.623  0.00  0.00    +0.033 HD
ATOM     19  H   UNL     1     149.435 168.359 192.707  0.00  0.00    +0.033 HD
BRANCH  17  20
ATOM     20  C   UNL     1     150.775 166.704 192.946  0.00  0.00    +0.108 C 
ATOM     21  H   UNL     1     150.894 165.711 192.500  0.00  0.00    +0.074 HD
BRANCH  20  22
ATOM     22  C   UNL     1     151.921 167.624 192.435  0.00  0.00    -0.009 C 
ATOM     23  H   UNL     1     152.717 167.638 193.193  0.00  0.00    +0.033 HD
BRANCH  22  24
ATOM     24  C   UNL     1     151.498 169.066 192.166  0.00  0.00    -0.059 C 
ATOM     25  H   UNL     1     150.836 169.442 192.948  0.00  0.00    +0.023 HD
ATOM     26  H   UNL     1     152.370 169.717 192.090  0.00  0.00    +0.023 HD
ATOM     27  H   UNL     1     150.964 169.142 191.213  0.00  0.00    +0.023 HD
ENDBRANCH  22  24
BRANCH  22  28
ATOM     28  C   UNL     1     152.549 167.033 191.162  0.00  0.00    -0.059 C 
ATOM     29  H   UNL     1     152.641 165.945 191.241  0.00  0.00    +0.023 HD
ATOM     30  H   UNL     1     151.935 167.258 190.286  0.00  0.00    +0.023 HD
ATOM     31  H   UNL     1     153.545 167.443 190.977  0.00  0.00    +0.023 HD
ENDBRANCH  22  28
ENDBRANCH  20  22
BRANCH  20  32
ATOM     32  O   UNL     1     150.977 166.607 194.384  0.00  0.00    -0.461 OA
BRANCH  32  33
ATOM     33  C   UNL     1     150.372 165.565 195.018  0.00  0.00    +0.307 C 
ATOM     34  O   UNL     1     150.255 164.432 194.574  0.00  0.00    -0.251 OA
BRANCH  33  35
ATOM     35  C   UNL     1     149.844 166.007 196.361  0.00  0.00    +0.042 C 
ATOM     36  H   UNL     1     150.041 165.213 197.087  0.00  0.00    +0.037 HD
ATOM     37  H   UNL     1     150.401 166.892 196.690  0.00  0.00    +0.037 HD
BRANCH  35  38
ATOM     38  C   UNL     1     148.356 166.288 196.300  0.00  0.00    -0.055 C 
ATOM     39  H   UNL     1     148.087 167.087 196.999  0.00  0.00    +0.023 HD
ATOM     40  H   UNL     1     148.048 166.605 195.297  0.00  0.00    +0.023 HD
ATOM     41  H   UNL     1     147.774 165.392 196.557  0.00  0.00    +0.023 HD
ENDBRANCH  35  38
ENDBRANCH  33  35
ENDBRANCH  32  33
ENDBRANCH  20  32
ENDBRANCH  17  20
ENDBRANCH  15  17
BRANCH  15  42
ATOM     42  O   UNL     1     149.108 165.489 191.074  0.00  0.00    -0.379 OA
BRANCH  42  43
ATOM     43  C   UNL     1     148.328 164.368 191.448  0.00  0.00    +0.037 C 
ATOM     44  H   UNL     1     148.991 163.631 191.915  0.00  0.00    +0.052 HD
ATOM     45  H   UNL     1     147.565 164.641 192.184  0.00  0.00    +0.052 HD
ATOM     46  H   UNL     1     147.865 163.906 190.569  0.00  0.00    +0.052 HD
ENDBRANCH  42  43
ENDBRANCH  15  42
ENDBRANCH   9  15
ENDBRANCH   6   9
ENDBRANCH   3   6
ENDBRANCH   1   3
BRANCH   1  47
ATOM     47  C   UNL     1     145.422 171.437 189.295  0.00  0.00    +0.020 C 
ATOM     48  H   UNL     1     145.187 170.892 188.369  0.00  0.00    +0.036 HD
BRANCH  47  49
ATOM     49  C   UNL     1     145.977 172.768 188.778  0.00  0.00    -0.057 C 
ATOM     50  H   UNL     1     146.238 172.733 187.719  0.00  0.00    +0.023 HD
ATOM     51  H   UNL     1     146.872 173.072 189.335  0.00  0.00    +0.023 HD
ATOM     52  H   UNL     1     145.235 173.566 188.903  0.00  0.00    +0.023 HD
ENDBRANCH  47  49
BRANCH  47  53
ATOM     53  C   UNL     1     144.045 171.538 190.020  0.00  0.00    +0.070 C 
ATOM     54  H   UNL     1     143.467 172.323 189.520  0.00  0.00    +0.061 HD
BRANCH  53  55
ATOM     55  C   UNL     1     143.130 170.278 190.030  0.00  0.00    +0.002 C 
ATOM     56  H   UNL     1     143.082 169.876 189.015  0.00  0.00    +0.037 HD
BRANCH  55  58
ATOM     57  C   UNL     1     143.009 167.981 191.043  0.00  0.00    -0.005 C 
ATOM     58  C   UNL     1     143.570 169.198 190.995  0.00  0.00    -0.065 C 
ATOM     59  H   UNL     1     142.192 167.746 190.361  0.00  0.00    +0.078 HD
ATOM     60  H   UNL     1     144.386 169.473 191.658  0.00  0.00    +0.059 HD
BRANCH  57  62
ATOM     61  C   UNL     1     142.382 166.325 192.663  0.00  0.00    +0.206 C 
ATOM     62  N   UNL     1     143.365 166.940 191.889  0.00  0.00    -0.281 N 
ATOM     63  O   UNL     1     141.193 166.620 192.703  0.00  0.00    -0.279 OA
ATOM     64  H   UNL     1     142.775 165.498 193.275  0.00  0.00    +0.126 HD
BRANCH  62  65
ATOM     65  C   UNL     1     144.733 166.437 191.984  0.00  0.00    +0.016 C 
ATOM     66  H   UNL     1     144.838 165.529 191.382  0.00  0.00    +0.047 HD
ATOM     67  H   UNL     1     145.411 167.177 191.538  0.00  0.00    +0.047 HD
BRANCH  65  68
ATOM     68  C   UNL     1     145.163 166.196 193.423  0.00  0.00    -0.049 C 
ATOM     69  H   UNL     1     144.549 166.791 194.106  0.00  0.00    +0.024 HD
ATOM     70  H   UNL     1     145.065 165.143 193.689  0.00  0.00    +0.024 HD
ATOM     71  H   UNL     1     146.208 166.486 193.582  0.00  0.00    +0.024 HD
ENDBRANCH  65  68
ENDBRANCH  62  65
ENDBRANCH  57  62
ENDBRANCH  55  58
BRANCH  55  72
ATOM     72  C   UNL     1     141.691 170.680 190.393  0.00  0.00    -0.057 C 
ATOM     73  H   UNL     1     141.290 170.081 191.217  0.00  0.00    +0.024 HD
ATOM     74  H   UNL     1     141.648 171.733 190.694  0.00  0.00    +0.024 HD
ATOM     75  H   UNL     1     141.021 170.556 189.534  0.00  0.00    +0.024 HD
ENDBRANCH  55  72
ENDBRANCH  53  55
BRANCH  53  76
ATOM     76  O   UNL     1     144.236 171.941 191.394  0.00  0.00    -0.379 OA
BRANCH  76  77
ATOM     77  C   UNL     1     143.885 173.296 191.650  0.00  0.00    +0.037 C 
ATOM     78  H   UNL     1     143.281 173.369 192.561  0.00  0.00    +0.052 HD
ATOM     79  H   UNL     1     144.807 173.861 191.802  0.00  0.00    +0.052 HD
ATOM     80  H   UNL     1     143.344 173.734 190.805  0.00  0.00    +0.052 HD
ENDBRANCH  76  77
ENDBRANCH  53  76
ENDBRANCH  47  53
ENDBRANCH   1  47
BRANCH   1  81
ATOM     81  O   UNL     1     147.567 171.405 190.504  0.00  0.00    -0.461 OA
BRANCH  81  82
ATOM     82  C   UNL     1     147.832 171.329 191.834  0.00  0.00    +0.310 C 
ATOM     83  O   UNL     1     147.736 170.311 192.505  0.00  0.00    -0.251 OA
BRANCH  82  84
ATOM     84  C   UNL     1     148.282 172.666 192.399  0.00  0.00    +0.051 C 
ATOM     85  H   UNL     1     149.167 172.459 193.018  0.00  0.00    +0.041 HD
BRANCH  84  86
ATOM     86  C   UNL     1     147.242 173.331 193.301  0.00  0.00    -0.053 C 
ATOM     87  H   UNL     1     146.974 174.334 192.945  0.00  0.00    +0.024 HD
ATOM     88  H   UNL     1     147.622 173.430 194.325  0.00  0.00    +0.024 HD
ATOM     89  H   UNL     1     146.324 172.736 193.339  0.00  0.00    +0.024 HD
ENDBRANCH  84  86
BRANCH  84  90
ATOM     90  C   UNL     1     148.679 173.592 191.251  0.00  0.00    -0.053 C 
ATOM     91  H   UNL     1     147.836 174.216 190.928  0.00  0.00    +0.024 HD
ATOM     92  H   UNL     1     149.010 173.012 190.381  0.00  0.00    +0.024 HD
ATOM     93  H   UNL     1     149.508 174.246 191.549  0.00  0.00    +0.024 HD
ENDBRANCH  84  90
ENDBRANCH  82  84
ENDBRANCH  81  82
ENDBRANCH   1  81
TORSDOF 32
ENDMDL
MODEL 9
REMARK VINA RESULT:      -5.1      1.436      2.236
REMARK  Name = 2c_conf2
REMARK  32 active torsions:
REMARK  status: ('A' for Active; 'I' for Inactive)
REMARK    1  A    between atoms: N_2  and  C_3
REMARK    2  A    between atoms: N_2  and  C_5
REMARK    3  A    between atoms: C_3  and  C_4
REMARK    4  A    between atoms: C_6  and  C_7
REMARK    5  A    between atoms: C_7  and  C_8
REMARK    6  A    between atoms: C_7  and  C_9
REMARK    7  A    between atoms: C_9  and  O_10
REMARK    8  A    between atoms: C_9  and  C_12
REMARK    9  A    between atoms: O_10  and  C_11
REMARK   10  A    between atoms: C_12  and  C_13
REMARK   11  A    between atoms: C_12  and  C_14
REMARK   12  A    between atoms: C_14  and  O_15
REMARK   13  A    between atoms: C_14  and  C_21
REMARK   14  A    between atoms: O_15  and  C_16
REMARK   15  A    between atoms: C_16  and  C_17
REMARK   16  A    between atoms: C_17  and  C_18
REMARK   17  A    between atoms: C_17  and  C_19
REMARK   18  A    between atoms: C_21  and  C_22
REMARK   19  A    between atoms: C_22  and  C_23
REMARK   20  A    between atoms: C_23  and  C_24
REMARK   21  A    between atoms: C_23  and  C_25
REMARK   22  A    between atoms: C_25  and  O_26
REMARK   23  A    between atoms: C_25  and  C_28
REMARK   24  A    between atoms: O_26  and  C_27
REMARK   25  A    between atoms: C_28  and  C_29
REMARK   26  A    between atoms: C_29  and  O_30
REMARK   27  A    between atoms: C_29  and  C_35
REMARK   28  A    between atoms: O_30  and  C_31
REMARK   29  A    between atoms: C_31  and  C_32
REMARK   30  A    between atoms: C_32  and  C_33
REMARK   31  A    between atoms: C_35  and  C_36
REMARK   32  A    between atoms: C_35  and  C_37
REMARK                            x       y       z     vdW  Elec       q    Type
REMARK                         _______ _______ _______ _____ _____    ______ ____
ROOT
ATOM      1  C   UNL     1     147.629 170.370 190.939  0.00  0.00    +0.108 C 
ATOM      2  H   UNL     1     147.180 170.123 191.913  0.00  0.00    +0.074 HD
ENDROOT
BRANCH   1   3
ATOM      3  C   UNL     1     149.008 169.692 190.886  0.00  0.00    -0.015 C 
ATOM      4  H   UNL     1     149.781 170.444 190.718  0.00  0.00    +0.030 HD
ATOM      5  H   UNL     1     149.075 168.961 190.076  0.00  0.00    +0.030 HD
BRANCH   3   6
ATOM      6  C   UNL     1     149.311 168.955 192.205  0.00  0.00    -0.045 C 
ATOM      7  H   UNL     1     148.812 169.450 193.049  0.00  0.00    +0.027 HD
ATOM      8  H   UNL     1     148.867 167.953 192.128  0.00  0.00    +0.027 HD
BRANCH   6   9
ATOM      9  C   UNL     1     150.831 168.829 192.490  0.00  0.00    -0.017 C 
ATOM     10  H   UNL     1     150.999 169.090 193.538  0.00  0.00    +0.032 HD
BRANCH   9  11
ATOM     11  C   UNL     1     151.574 169.859 191.625  0.00  0.00    -0.060 C 
ATOM     12  H   UNL     1     152.193 169.349 190.881  0.00  0.00    +0.023 HD
ATOM     13  H   UNL     1     152.234 170.494 192.226  0.00  0.00    +0.023 HD
ATOM     14  H   UNL     1     150.890 170.511 191.077  0.00  0.00    +0.023 HD
ENDBRANCH   9  11
BRANCH   9  15
ATOM     15  C   UNL     1     151.323 167.376 192.225  0.00  0.00    +0.064 C 
ATOM     16  H   UNL     1     150.484 166.794 191.836  0.00  0.00    +0.060 HD
BRANCH  15  17
ATOM     17  C   UNL     1     151.912 166.672 193.468  0.00  0.00    +0.011 C 
ATOM     18  H   UNL     1     152.192 167.440 194.197  0.00  0.00    +0.033 HD
ATOM     19  H   UNL     1     152.874 166.213 193.220  0.00  0.00    +0.033 HD
BRANCH  17  20
ATOM     20  C   UNL     1     151.041 165.594 194.140  0.00  0.00    +0.108 C 
ATOM     21  H   UNL     1     151.195 164.605 193.696  0.00  0.00    +0.074 HD
BRANCH  20  22
ATOM     22  C   UNL     1     151.219 165.485 195.682  0.00  0.00    -0.009 C 
ATOM     23  H   UNL     1     152.167 165.969 195.955  0.00  0.00    +0.033 HD
BRANCH  22  24
ATOM     24  C   UNL     1     151.248 164.054 196.212  0.00  0.00    -0.059 C 
ATOM     25  H   UNL     1     151.621 164.014 197.237  0.00  0.00    +0.023 HD
ATOM     26  H   UNL     1     150.253 163.607 196.174  0.00  0.00    +0.023 HD
ATOM     27  H   UNL     1     151.899 163.425 195.597  0.00  0.00    +0.023 HD
ENDBRANCH  22  24
BRANCH  22  28
ATOM     28  C   UNL     1     150.110 166.271 196.401  0.00  0.00    -0.059 C 
ATOM     29  H   UNL     1     149.141 166.111 195.918  0.00  0.00    +0.023 HD
ATOM     30  H   UNL     1     150.025 165.954 197.444  0.00  0.00    +0.023 HD
ATOM     31  H   UNL     1     150.313 167.345 196.402  0.00  0.00    +0.023 HD
ENDBRANCH  22  28
ENDBRANCH  20  22
BRANCH  20  32
ATOM     32  O   UNL     1     149.655 165.993 193.944  0.00  0.00    -0.461 OA
BRANCH  32  33
ATOM     33  C   UNL     1     148.857 165.121 193.268  0.00  0.00    +0.307 C 
ATOM     34  O   UNL     1     149.163 163.985 192.938  0.00  0.00    -0.251 OA
BRANCH  33  35
ATOM     35  C   UNL     1     147.525 165.762 192.963  0.00  0.00    +0.042 C 
ATOM     36  H   UNL     1     147.708 166.757 192.547  0.00  0.00    +0.037 HD
ATOM     37  H   UNL     1     147.016 165.176 192.189  0.00  0.00    +0.037 HD
BRANCH  35  38
ATOM     38  C   UNL     1     146.672 165.877 194.211  0.00  0.00    -0.055 C 
ATOM     39  H   UNL     1     145.719 166.365 193.982  0.00  0.00    +0.023 HD
ATOM     40  H   UNL     1     146.449 164.893 194.637  0.00  0.00    +0.023 HD
ATOM     41  H   UNL     1     147.185 166.465 194.986  0.00  0.00    +0.023 HD
ENDBRANCH  35  38
ENDBRANCH  33  35
ENDBRANCH  32  33
ENDBRANCH  20  32
ENDBRANCH  17  20
ENDBRANCH  15  17
BRANCH  15  42
ATOM     42  O   UNL     1     152.322 167.456 191.188  0.00  0.00    -0.379 OA
BRANCH  42  43
ATOM     43  C   UNL     1     152.592 166.231 190.530  0.00  0.00    +0.037 C 
ATOM     44  H   UNL     1     151.680 165.913 190.014  0.00  0.00    +0.052 HD
ATOM     45  H   UNL     1     153.377 166.349 189.776  0.00  0.00    +0.052 HD
ATOM     46  H   UNL     1     152.869 165.455 191.252  0.00  0.00    +0.052 HD
ENDBRANCH  42  43
ENDBRANCH  15  42
ENDBRANCH   9  15
ENDBRANCH   6   9
ENDBRANCH   3   6
ENDBRANCH   1   3
BRANCH   1  47
ATOM     47  C   UNL     1     146.604 169.963 189.844  0.00  0.00    +0.020 C 
ATOM     48  H   UNL     1     146.617 170.806 189.137  0.00  0.00    +0.036 HD
BRANCH  47  49
ATOM     49  C   UNL     1     145.162 169.970 190.360  0.00  0.00    -0.057 C 
ATOM     50  H   UNL     1     144.570 170.788 189.945  0.00  0.00    +0.023 HD
ATOM     51  H   UNL     1     145.129 170.053 191.454  0.00  0.00    +0.023 HD
ATOM     52  H   UNL     1     144.655 169.035 190.094  0.00  0.00    +0.023 HD
ENDBRANCH  47  49
BRANCH  47  53
ATOM     53  C   UNL     1     146.977 168.736 188.958  0.00  0.00    +0.070 C 
ATOM     54  H   UNL     1     148.052 168.793 188.752  0.00  0.00    +0.061 HD
BRANCH  53  55
ATOM     55  C   UNL     1     146.731 167.312 189.538  0.00  0.00    +0.002 C 
ATOM     56  H   UNL     1     146.601 167.396 190.619  0.00  0.00    +0.037 HD
BRANCH  55  58
ATOM     57  C   UNL     1     144.655 165.899 189.652  0.00  0.00    -0.005 C 
ATOM     58  C   UNL     1     145.549 166.589 188.929  0.00  0.00    -0.065 C 
ATOM     59  H   UNL     1     144.777 165.845 190.734  0.00  0.00    +0.078 HD
ATOM     60  H   UNL     1     145.465 166.665 187.848  0.00  0.00    +0.059 HD
BRANCH  57  62
ATOM     61  C   UNL     1     142.287 165.512 189.694  0.00  0.00    +0.206 C 
ATOM     62  N   UNL     1     143.544 165.223 189.167  0.00  0.00    -0.281 N 
ATOM     63  O   UNL     1     142.036 166.311 190.589  0.00  0.00    -0.279 OA
ATOM     64  H   UNL     1     141.480 164.933 189.217  0.00  0.00    +0.126 HD
BRANCH  62  65
ATOM     65  C   UNL     1     143.634 164.232 188.097  0.00  0.00    +0.016 C 
ATOM     66  H   UNL     1     142.685 164.184 187.554  0.00  0.00    +0.047 HD
ATOM     67  H   UNL     1     144.384 164.567 187.370  0.00  0.00    +0.047 HD
BRANCH  65  68
ATOM     68  C   UNL     1     144.042 162.860 188.611  0.00  0.00    -0.049 C 
ATOM     69  H   UNL     1     143.251 162.130 188.413  0.00  0.00    +0.024 HD
ATOM     70  H   UNL     1     144.960 162.520 188.132  0.00  0.00    +0.024 HD
ATOM     71  H   UNL     1     144.214 162.873 189.694  0.00  0.00    +0.024 HD
ENDBRANCH  65  68
ENDBRANCH  62  65
ENDBRANCH  57  62
ENDBRANCH  55  58
BRANCH  55  72
ATOM     72  C   UNL     1     147.979 166.439 189.329  0.00  0.00    -0.057 C 
ATOM     73  H   UNL     1     148.630 166.830 188.539  0.00  0.00    +0.024 HD
ATOM     74  H   UNL     1     148.570 166.382 190.250  0.00  0.00    +0.024 HD
ATOM     75  H   UNL     1     147.700 165.415 189.053  0.00  0.00    +0.024 HD
ENDBRANCH  55  72
ENDBRANCH  53  55
BRANCH  53  76
ATOM     76  O   UNL     1     146.285 168.809 187.691  0.00  0.00    -0.379 OA
BRANCH  76  77
ATOM     77  C   UNL     1     146.709 169.886 186.865  0.00  0.00    +0.037 C 
ATOM     78  H   UNL     1     147.248 170.634 187.457  0.00  0.00    +0.052 HD
ATOM     79  H   UNL     1     147.392 169.487 186.112  0.00  0.00    +0.052 HD
ATOM     80  H   UNL     1     145.862 170.353 186.352  0.00  0.00    +0.052 HD
ENDBRANCH  76  77
ENDBRANCH  53  76
ENDBRANCH  47  53
ENDBRANCH   1  47
BRANCH   1  81
ATOM     81  O   UNL     1     147.885 171.791 190.884  0.00  0.00    -0.461 OA
BRANCH  81  82
ATOM     82  C   UNL     1     147.233 172.583 191.775  0.00  0.00    +0.310 C 
ATOM     83  O   UNL     1     146.193 173.183 191.542  0.00  0.00    -0.251 OA
BRANCH  82  84
ATOM     84  C   UNL     1     147.945 172.629 193.117  0.00  0.00    +0.051 C 
ATOM     85  H   UNL     1     147.721 171.677 193.619  0.00  0.00    +0.041 HD
BRANCH  84  86
ATOM     86  C   UNL     1     147.456 173.751 194.033  0.00  0.00    -0.053 C 
ATOM     87  H   UNL     1     147.054 174.598 193.462  0.00  0.00    +0.024 HD
ATOM     88  H   UNL     1     148.273 174.126 194.659  0.00  0.00    +0.024 HD
ATOM     89  H   UNL     1     146.662 173.391 194.696  0.00  0.00    +0.024 HD
ENDBRANCH  84  86
BRANCH  84  90
ATOM     90  C   UNL     1     149.451 172.733 192.887  0.00  0.00    -0.053 C 
ATOM     91  H   UNL     1     149.690 173.479 192.119  0.00  0.00    +0.024 HD
ATOM     92  H   UNL     1     149.859 171.772 192.549  0.00  0.00    +0.024 HD
ATOM     93  H   UNL     1     149.969 173.004 193.816  0.00  0.00    +0.024 HD
ENDBRANCH  84  90
ENDBRANCH  82  84
ENDBRANCH  81  82
ENDBRANCH   1  81
TORSDOF 32
ENDMDL
MODEL 10
REMARK VINA RESULT:      -5.1      2.291      6.911
REMARK  Name = 2c_conf2
REMARK  32 active torsions:
REMARK  status: ('A' for Active; 'I' for Inactive)
REMARK    1  A    between atoms: N_2  and  C_3
REMARK    2  A    between atoms: N_2  and  C_5
REMARK    3  A    between atoms: C_3  and  C_4
REMARK    4  A    between atoms: C_6  and  C_7
REMARK    5  A    between atoms: C_7  and  C_8
REMARK    6  A    between atoms: C_7  and  C_9
REMARK    7  A    between atoms: C_9  and  O_10
REMARK    8  A    between atoms: C_9  and  C_12
REMARK    9  A    between atoms: O_10  and  C_11
REMARK   10  A    between atoms: C_12  and  C_13
REMARK   11  A    between atoms: C_12  and  C_14
REMARK   12  A    between atoms: C_14  and  O_15
REMARK   13  A    between atoms: C_14  and  C_21
REMARK   14  A    between atoms: O_15  and  C_16
REMARK   15  A    between atoms: C_16  and  C_17
REMARK   16  A    between atoms: C_17  and  C_18
REMARK   17  A    between atoms: C_17  and  C_19
REMARK   18  A    between atoms: C_21  and  C_22
REMARK   19  A    between atoms: C_22  and  C_23
REMARK   20  A    between atoms: C_23  and  C_24
REMARK   21  A    between atoms: C_23  and  C_25
REMARK   22  A    between atoms: C_25  and  O_26
REMARK   23  A    between atoms: C_25  and  C_28
REMARK   24  A    between atoms: O_26  and  C_27
REMARK   25  A    between atoms: C_28  and  C_29
REMARK   26  A    between atoms: C_29  and  O_30
REMARK   27  A    between atoms: C_29  and  C_35
REMARK   28  A    between atoms: O_30  and  C_31
REMARK   29  A    between atoms: C_31  and  C_32
REMARK   30  A    between atoms: C_32  and  C_33
REMARK   31  A    between atoms: C_35  and  C_36
REMARK   32  A    between atoms: C_35  and  C_37
REMARK                            x       y       z     vdW  Elec       q    Type
REMARK                         _______ _______ _______ _____ _____    ______ ____
ROOT
ATOM      1  C   UNL     1     149.549 169.239 191.578  0.00  0.00    +0.108 C 
ATOM      2  H   UNL     1     149.564 169.446 190.497  0.00  0.00    +0.074 HD
ENDROOT
BRANCH   1   3
ATOM      3  C   UNL     1     148.533 168.109 191.813  0.00  0.00    -0.015 C 
ATOM      4  H   UNL     1     147.712 168.475 192.431  0.00  0.00    +0.030 HD
ATOM      5  H   UNL     1     148.981 167.255 192.329  0.00  0.00    +0.030 HD
BRANCH   3   6
ATOM      6  C   UNL     1     147.959 167.597 190.478  0.00  0.00    -0.045 C 
ATOM      7  H   UNL     1     147.643 168.437 189.845  0.00  0.00    +0.027 HD
ATOM      8  H   UNL     1     148.777 167.097 189.941  0.00  0.00    +0.027 HD
BRANCH   6   9
ATOM      9  C   UNL     1     146.781 166.606 190.668  0.00  0.00    -0.017 C 
ATOM     10  H   UNL     1     146.695 166.388 191.737  0.00  0.00    +0.032 HD
BRANCH   9  11
ATOM     11  C   UNL     1     147.129 165.294 189.949  0.00  0.00    -0.060 C 
ATOM     12  H   UNL     1     146.412 165.105 189.144  0.00  0.00    +0.023 HD
ATOM     13  H   UNL     1     147.097 164.436 190.629  0.00  0.00    +0.023 HD
ATOM     14  H   UNL     1     148.120 165.322 189.491  0.00  0.00    +0.023 HD
ENDBRANCH   9  11
BRANCH   9  15
ATOM     15  C   UNL     1     145.450 167.225 190.149  0.00  0.00    +0.064 C 
ATOM     16  H   UNL     1     145.398 168.262 190.488  0.00  0.00    +0.060 HD
BRANCH  15  17
ATOM     17  C   UNL     1     144.182 166.466 190.602  0.00  0.00    +0.011 C 
ATOM     18  H   UNL     1     144.486 165.485 190.982  0.00  0.00    +0.033 HD
ATOM     19  H   UNL     1     143.568 166.208 189.733  0.00  0.00    +0.033 HD
BRANCH  17  20
ATOM     20  C   UNL     1     143.271 167.172 191.623  0.00  0.00    +0.108 C 
ATOM     21  H   UNL     1     142.254 167.309 191.241  0.00  0.00    +0.074 HD
BRANCH  20  22
ATOM     22  C   UNL     1     143.195 166.477 193.013  0.00  0.00    -0.009 C 
ATOM     23  H   UNL     1     142.710 165.499 192.884  0.00  0.00    +0.033 HD
BRANCH  22  24
ATOM     24  C   UNL     1     142.412 167.259 194.065  0.00  0.00    -0.059 C 
ATOM     25  H   UNL     1     142.870 168.230 194.266  0.00  0.00    +0.023 HD
ATOM     26  H   UNL     1     141.379 167.408 193.747  0.00  0.00    +0.023 HD
ATOM     27  H   UNL     1     142.375 166.707 195.010  0.00  0.00    +0.023 HD
ENDBRANCH  22  24
BRANCH  22  28
ATOM     28  C   UNL     1     144.611 166.192 193.542  0.00  0.00    -0.059 C 
ATOM     29  H   UNL     1     144.577 165.837 194.576  0.00  0.00    +0.023 HD
ATOM     30  H   UNL     1     145.103 165.426 192.937  0.00  0.00    +0.023 HD
ATOM     31  H   UNL     1     145.239 167.085 193.511  0.00  0.00    +0.023 HD
ENDBRANCH  22  28
ENDBRANCH  20  22
BRANCH  20  32
ATOM     32  O   UNL     1     143.862 168.477 191.882  0.00  0.00    -0.461 OA
BRANCH  32  33
ATOM     33  C   UNL     1     143.260 169.548 191.297  0.00  0.00    +0.307 C 
ATOM     34  O   UNL     1     143.726 170.676 191.226  0.00  0.00    -0.251 OA
BRANCH  33  35
ATOM     35  C   UNL     1     141.910 169.154 190.749  0.00  0.00    +0.042 C 
ATOM     36  H   UNL     1     142.057 168.702 189.764  0.00  0.00    +0.037 HD
ATOM     37  H   UNL     1     141.473 168.385 191.396  0.00  0.00    +0.037 HD
BRANCH  35  38
ATOM     38  C   UNL     1     140.994 170.355 190.631  0.00  0.00    -0.055 C 
ATOM     39  H   UNL     1     141.492 171.167 190.090  0.00  0.00    +0.023 HD
ATOM     40  H   UNL     1     140.075 170.108 190.087  0.00  0.00    +0.023 HD
ATOM     41  H   UNL     1     140.701 170.727 191.623  0.00  0.00    +0.023 HD
ENDBRANCH  35  38
ENDBRANCH  33  35
ENDBRANCH  32  33
ENDBRANCH  20  32
ENDBRANCH  17  20
ENDBRANCH  15  17
BRANCH  15  42
ATOM     42  O   UNL     1     145.527 167.234 188.710  0.00  0.00    -0.379 OA
BRANCH  42  43
ATOM     43  C   UNL     1     145.064 168.425 188.099  0.00  0.00    +0.037 C 
ATOM     44  H   UNL     1     144.008 168.555 188.362  0.00  0.00    +0.052 HD
ATOM     45  H   UNL     1     145.607 169.301 188.469  0.00  0.00    +0.052 HD
ATOM     46  H   UNL     1     145.142 168.359 187.009  0.00  0.00    +0.052 HD
ENDBRANCH  42  43
ENDBRANCH  15  42
ENDBRANCH   9  15
ENDBRANCH   6   9
ENDBRANCH   3   6
ENDBRANCH   1   3
BRANCH   1  47
ATOM     47  C   UNL     1     151.015 168.968 192.016  0.00  0.00    +0.020 C 
ATOM     48  H   UNL     1     150.926 168.626 193.058  0.00  0.00    +0.036 HD
BRANCH  47  49
ATOM     49  C   UNL     1     151.835 170.255 192.145  0.00  0.00    -0.057 C 
ATOM     50  H   UNL     1     151.562 171.005 191.401  0.00  0.00    +0.023 HD
ATOM     51  H   UNL     1     152.909 170.056 192.043  0.00  0.00    +0.023 HD
ATOM     52  H   UNL     1     151.685 170.707 193.132  0.00  0.00    +0.023 HD
ENDBRANCH  47  49
BRANCH  47  53
ATOM     53  C   UNL     1     151.750 167.790 191.306  0.00  0.00    +0.070 C 
ATOM     54  H   UNL     1     152.791 168.097 191.152  0.00  0.00    +0.061 HD
BRANCH  53  55
ATOM     55  C   UNL     1     151.816 166.419 192.041  0.00  0.00    +0.002 C 
ATOM     56  H   UNL     1     152.822 166.011 191.924  0.00  0.00    +0.037 HD
BRANCH  55  58
ATOM     57  C   UNL     1     150.385 165.855 194.028  0.00  0.00    -0.005 C 
ATOM     58  C   UNL     1     151.449 166.482 193.508  0.00  0.00    -0.065 C 
ATOM     59  H   UNL     1     149.740 165.270 193.372  0.00  0.00    +0.078 HD
ATOM     60  H   UNL     1     152.116 167.076 194.127  0.00  0.00    +0.059 HD
BRANCH  57  62
ATOM     61  C   UNL     1     148.691 166.232 195.686  0.00  0.00    +0.206 C 
ATOM     62  N   UNL     1     149.993 165.857 195.360  0.00  0.00    -0.281 N 
ATOM     63  O   UNL     1     147.818 166.597 194.907  0.00  0.00    -0.279 OA
ATOM     64  H   UNL     1     148.486 166.172 196.767  0.00  0.00    +0.126 HD
BRANCH  62  65
ATOM     65  C   UNL     1     150.886 165.451 196.442  0.00  0.00    +0.016 C 
ATOM     66  H   UNL     1     151.811 166.034 196.400  0.00  0.00    +0.047 HD
ATOM     67  H   UNL     1     150.413 165.701 197.401  0.00  0.00    +0.047 HD
BRANCH  65  68
ATOM     68  C   UNL     1     151.177 163.958 196.424  0.00  0.00    -0.049 C 
ATOM     69  H   UNL     1     150.241 163.390 196.411  0.00  0.00    +0.024 HD
ATOM     70  H   UNL     1     151.765 163.685 195.547  0.00  0.00    +0.024 HD
ATOM     71  H   UNL     1     151.738 163.648 197.313  0.00  0.00    +0.024 HD
ENDBRANCH  65  68
ENDBRANCH  62  65
ENDBRANCH  57  62
ENDBRANCH  55  58
BRANCH  55  72
ATOM     72  C   UNL     1     150.872 165.415 191.359  0.00  0.00    -0.057 C 
ATOM     73  H   UNL     1     150.685 164.534 191.983  0.00  0.00    +0.024 HD
ATOM     74  H   UNL     1     149.905 165.880 191.140  0.00  0.00    +0.024 HD
ATOM     75  H   UNL     1     151.292 165.065 190.409  0.00  0.00    +0.024 HD
ENDBRANCH  55  72
ENDBRANCH  53  55
BRANCH  53  76
ATOM     76  O   UNL     1     151.168 167.552 190.005  0.00  0.00    -0.379 OA
BRANCH  76  77
ATOM     77  C   UNL     1     152.117 167.528 188.945  0.00  0.00    +0.037 C 
ATOM     78  H   UNL     1     151.737 166.936 188.106  0.00  0.00    +0.052 HD
ATOM     79  H   UNL     1     152.268 168.554 188.603  0.00  0.00    +0.052 HD
ATOM     80  H   UNL     1     153.079 167.129 189.282  0.00  0.00    +0.052 HD
ENDBRANCH  76  77
ENDBRANCH  53  76
ENDBRANCH  47  53
ENDBRANCH   1  47
BRANCH   1  81
ATOM     81  O   UNL     1     149.024 170.393 192.272  0.00  0.00    -0.461 OA
BRANCH  81  82
ATOM     82  C   UNL     1     148.385 171.336 191.531  0.00  0.00    +0.310 C 
ATOM     83  O   UNL     1     147.852 171.127 190.450  0.00  0.00    -0.251 OA
BRANCH  82  84
ATOM     84  C   UNL     1     148.396 172.694 192.212  0.00  0.00    +0.051 C 
ATOM     85  H   UNL     1     148.698 173.422 191.446  0.00  0.00    +0.041 HD
BRANCH  84  86
ATOM     86  C   UNL     1     149.401 172.797 193.358  0.00  0.00    -0.053 C 
ATOM     87  H   UNL     1     150.422 172.563 193.029  0.00  0.00    +0.024 HD
ATOM     88  H   UNL     1     149.143 172.102 194.166  0.00  0.00    +0.024 HD
ATOM     89  H   UNL     1     149.412 173.809 193.777  0.00  0.00    +0.024 HD
ENDBRANCH  84  86
BRANCH  84  90
ATOM     90  C   UNL     1     146.986 173.030 192.694  0.00  0.00    -0.053 C 
ATOM     91  H   UNL     1     146.995 173.431 193.715  0.00  0.00    +0.024 HD
ATOM     92  H   UNL     1     146.354 172.133 192.699  0.00  0.00    +0.024 HD
ATOM     93  H   UNL     1     146.513 173.765 192.030  0.00  0.00    +0.024 HD
ENDBRANCH  84  90
ENDBRANCH  82  84
ENDBRANCH  81  82
ENDBRANCH   1  81
TORSDOF 32
ENDMDL
