MODEL 1
REMARK VINA RESULT:      -5.5      0.000      0.000
REMARK  Name = 2u_conf1
REMARK  31 active torsions:
REMARK  status: ('A' for Active; 'I' for Inactive)
REMARK    1  A    between atoms: C_2  and  C_3
REMARK    2  A    between atoms: C_2  and  O_8
REMARK    3  A    between atoms: O_8  and  C_9
REMARK    4  A    between atoms: C_9  and  C_10
REMARK    5  A    between atoms: C_9  and  C_29
REMARK    6  A    between atoms: C_10  and  C_11
REMARK    7  A    between atoms: C_11  and  C_12
REMARK    8  A    between atoms: C_12  and  C_13
REMARK    9  A    between atoms: C_12  and  C_14
REMARK   10  A    between atoms: C_14  and  O_15
REMARK   11  A    between atoms: C_14  and  C_17
REMARK   12  A    between atoms: O_15  and  C_16
REMARK   13  A    between atoms: C_17  and  C_18
REMARK   14  A    between atoms: C_18  and  O_19
REMARK   15  A    between atoms: C_18  and  C_26
REMARK   16  A    between atoms: O_19  and  C_20
REMARK   17  A    between atoms: C_20  and  C_21
REMARK   18  A    between atoms: C_21  and  C_22
REMARK   19  A    between atoms: C_22  and  C_23
REMARK   20  A    between atoms: C_23  and  N_24
REMARK   21  A    between atoms: C_26  and  C_27
REMARK   22  A    between atoms: C_26  and  C_28
REMARK   23  A    between atoms: C_29  and  C_30
REMARK   24  A    between atoms: C_29  and  C_31
REMARK   25  A    between atoms: C_31  and  O_32
REMARK   26  A    between atoms: C_31  and  C_34
REMARK   27  A    between atoms: O_32  and  C_33
REMARK   28  A    between atoms: C_34  and  C_35
REMARK   29  A    between atoms: C_34  and  C_36
REMARK   30  A    between atoms: C_37  and  N_38
REMARK   31  A    between atoms: N_38  and  C_39
REMARK                            x       y       z     vdW  Elec       q    Type
REMARK                         _______ _______ _______ _____ _____    ______ ____
ROOT
ATOM      1  C   UNL     1     147.324 168.327 189.735  0.00  0.00    -0.015 C 
ATOM      2  H   UNL     1     148.406 168.404 189.808  0.00  0.00    +0.030 HD
ATOM      3  H   UNL     1     147.124 168.036 188.698  0.00  0.00    +0.030 HD
ENDROOT
BRANCH   1   4
ATOM      4  C   UNL     1     146.891 167.196 190.685  0.00  0.00    -0.045 C 
ATOM      5  H   UNL     1     146.404 166.414 190.089  0.00  0.00    +0.027 HD
ATOM      6  H   UNL     1     146.113 167.583 191.354  0.00  0.00    +0.027 HD
BRANCH   4   7
ATOM      7  C   UNL     1     148.024 166.560 191.524  0.00  0.00    -0.017 C 
ATOM      8  H   UNL     1     148.979 166.963 191.167  0.00  0.00    +0.032 HD
BRANCH   7   9
ATOM      9  C   UNL     1     148.044 165.049 191.243  0.00  0.00    -0.060 C 
ATOM     10  H   UNL     1     148.001 164.859 190.164  0.00  0.00    +0.023 HD
ATOM     11  H   UNL     1     148.963 164.585 191.611  0.00  0.00    +0.023 HD
ATOM     12  H   UNL     1     147.191 164.540 191.705  0.00  0.00    +0.023 HD
ENDBRANCH   7   9
BRANCH   7  13
ATOM     13  C   UNL     1     147.898 166.883 193.039  0.00  0.00    +0.064 C 
ATOM     14  H   UNL     1     148.386 167.843 193.236  0.00  0.00    +0.060 HD
BRANCH  13  15
ATOM     15  C   UNL     1     148.582 165.805 193.902  0.00  0.00    +0.011 C 
ATOM     16  H   UNL     1     148.653 164.884 193.312  0.00  0.00    +0.033 HD
ATOM     17  H   UNL     1     147.977 165.604 194.793  0.00  0.00    +0.033 HD
BRANCH  15  18
ATOM     18  C   UNL     1     149.994 166.227 194.357  0.00  0.00    +0.108 C 
ATOM     19  H   UNL     1     150.141 167.280 194.087  0.00  0.00    +0.074 HD
BRANCH  18  20
ATOM     20  C   UNL     1     150.163 166.074 195.890  0.00  0.00    -0.009 C 
ATOM     21  H   UNL     1     150.840 166.866 196.238  0.00  0.00    +0.033 HD
BRANCH  20  22
ATOM     22  C   UNL     1     148.847 166.202 196.663  0.00  0.00    -0.059 C 
ATOM     23  H   UNL     1     147.979 166.023 196.018  0.00  0.00    +0.023 HD
ATOM     24  H   UNL     1     148.809 165.470 197.479  0.00  0.00    +0.023 HD
ATOM     25  H   UNL     1     148.742 167.193 197.111  0.00  0.00    +0.023 HD
ENDBRANCH  20  22
BRANCH  20  26
ATOM     26  C   UNL     1     150.831 164.742 196.246  0.00  0.00    -0.059 C 
ATOM     27  H   UNL     1     150.097 163.947 196.397  0.00  0.00    +0.023 HD
ATOM     28  H   UNL     1     151.520 164.429 195.453  0.00  0.00    +0.023 HD
ATOM     29  H   UNL     1     151.412 164.837 197.169  0.00  0.00    +0.023 HD
ENDBRANCH  20  26
ENDBRANCH  18  20
BRANCH  18  30
ATOM     30  O   UNL     1     150.927 165.375 193.655  0.00  0.00    -0.461 OA
BRANCH  30  31
ATOM     31  C   UNL     1     151.483 165.848 192.506  0.00  0.00    +0.307 C 
ATOM     32  O   UNL     1     151.652 165.205 191.480  0.00  0.00    -0.251 OA
BRANCH  31  33
ATOM     33  C   UNL     1     151.984 167.257 192.731  0.00  0.00    +0.046 C 
ATOM     34  H   UNL     1     151.840 167.544 193.779  0.00  0.00    +0.038 HD
ATOM     35  H   UNL     1     153.064 167.234 192.538  0.00  0.00    +0.038 HD
BRANCH  33  36
ATOM     36  C   UNL     1     151.324 168.283 191.808  0.00  0.00    -0.031 C 
ATOM     37  H   UNL     1     150.231 168.200 191.852  0.00  0.00    +0.028 HD
ATOM     38  H   UNL     1     151.614 168.055 190.775  0.00  0.00    +0.028 HD
BRANCH  36  39
ATOM     39  C   UNL     1     151.746 169.723 192.101  0.00  0.00    -0.006 C 
ATOM     40  H   UNL     1     152.748 169.724 192.545  0.00  0.00    +0.042 HD
ATOM     41  H   UNL     1     151.064 170.164 192.838  0.00  0.00    +0.042 HD
BRANCH  39  42
ATOM     42  N   UNL     1     151.748 170.550 190.905  0.00  0.00    -0.330 NA
ATOM     43  H   UNL     1     151.640 169.965 190.073  0.00  0.00    +0.118 HD
ATOM     44  H   UNL     1     152.650 171.018 190.812  0.00  0.00    +0.118 HD
ENDBRANCH  39  42
ENDBRANCH  36  39
ENDBRANCH  33  36
ENDBRANCH  31  33
ENDBRANCH  30  31
ENDBRANCH  18  30
ENDBRANCH  15  18
ENDBRANCH  13  15
BRANCH  13  45
ATOM     45  O   UNL     1     146.513 166.933 193.399  0.00  0.00    -0.379 OA
BRANCH  45  46
ATOM     46  C   UNL     1     146.087 165.834 194.191  0.00  0.00    +0.037 C 
ATOM     47  H   UNL     1     146.778 164.994 194.091  0.00  0.00    +0.052 HD
ATOM     48  H   UNL     1     145.999 166.125 195.241  0.00  0.00    +0.052 HD
ATOM     49  H   UNL     1     145.103 165.517 193.836  0.00  0.00    +0.052 HD
ENDBRANCH  45  46
ENDBRANCH  13  45
ENDBRANCH   7  13
ENDBRANCH   4   7
ENDBRANCH   1   4
BRANCH   1  50
ATOM     50  C   UNL     1     146.678 169.694 190.025  0.00  0.00    +0.108 C 
ATOM     51  H   UNL     1     146.114 169.550 190.957  0.00  0.00    +0.074 HD
BRANCH  50  52
ATOM     52  C   UNL     1     145.661 170.196 188.962  0.00  0.00    +0.020 C 
ATOM     53  H   UNL     1     144.974 169.343 188.860  0.00  0.00    +0.036 HD
BRANCH  52  54
ATOM     54  C   UNL     1     146.281 170.311 187.564  0.00  0.00    -0.057 C 
ATOM     55  H   UNL     1     145.812 171.111 186.984  0.00  0.00    +0.023 HD
ATOM     56  H   UNL     1     146.130 169.379 187.008  0.00  0.00    +0.023 HD
ATOM     57  H   UNL     1     147.356 170.500 187.593  0.00  0.00    +0.023 HD
ENDBRANCH  52  54
BRANCH  52  58
ATOM     58  C   UNL     1     144.710 171.370 189.359  0.00  0.00    +0.070 C 
ATOM     59  H   UNL     1     143.790 171.261 188.769  0.00  0.00    +0.061 HD
BRANCH  58  60
ATOM     60  C   UNL     1     144.249 171.580 190.838  0.00  0.00    +0.002 C 
ATOM     61  H   UNL     1     145.073 171.174 191.445  0.00  0.00    +0.037 HD
BRANCH  60  62
ATOM     62  C   UNL     1     143.045 170.726 191.243  0.00  0.00    -0.057 C 
ATOM     63  H   UNL     1     142.192 170.926 190.584  0.00  0.00    +0.024 HD
ATOM     64  H   UNL     1     142.716 170.953 192.262  0.00  0.00    +0.024 HD
ATOM     65  H   UNL     1     143.250 169.656 191.179  0.00  0.00    +0.024 HD
ENDBRANCH  60  62
BRANCH  60  66
ATOM     66  C   UNL     1     144.192 173.040 191.255  0.00  0.00    -0.065 C 
ATOM     67  C   UNL     1     143.178 173.675 191.863  0.00  0.00    -0.005 C 
ATOM     68  H   UNL     1     145.106 173.587 191.041  0.00  0.00    +0.059 HD
ATOM     69  H   UNL     1     142.270 173.129 192.108  0.00  0.00    +0.078 HD
BRANCH  67  70
ATOM     70  N   UNL     1     143.160 175.020 192.207  0.00  0.00    -0.284 N 
ATOM     71  C   UNL     1     143.123 176.002 191.221  0.00  0.00    +0.206 C 
ATOM     72  O   UNL     1     143.116 177.214 191.395  0.00  0.00    -0.279 OA
ATOM     73  H   UNL     1     143.100 175.585 190.199  0.00  0.00    +0.126 HD
BRANCH  70  74
ATOM     74  C   UNL     1     143.199 175.454 193.596  0.00  0.00    +0.007 C 
ATOM     75  H   UNL     1     143.263 176.543 193.681  0.00  0.00    +0.043 HD
ATOM     76  H   UNL     1     144.078 175.022 194.085  0.00  0.00    +0.043 HD
ATOM     77  H   UNL     1     142.284 175.128 194.103  0.00  0.00    +0.043 HD
ENDBRANCH  70  74
ENDBRANCH  67  70
ENDBRANCH  60  66
ENDBRANCH  58  60
BRANCH  58  78
ATOM     78  O   UNL     1     145.308 172.631 188.964  0.00  0.00    -0.379 OA
BRANCH  78  79
ATOM     79  C   UNL     1     144.700 173.234 187.827  0.00  0.00    +0.037 C 
ATOM     80  H   UNL     1     145.256 173.012 186.913  0.00  0.00    +0.052 HD
ATOM     81  H   UNL     1     144.709 174.318 187.972  0.00  0.00    +0.052 HD
ATOM     82  H   UNL     1     143.658 172.911 187.724  0.00  0.00    +0.052 HD
ENDBRANCH  78  79
ENDBRANCH  58  78
ENDBRANCH  52  58
ENDBRANCH  50  52
BRANCH  50  83
ATOM     83  O   UNL     1     147.710 170.675 190.251  0.00  0.00    -0.459 OA
BRANCH  83  85
ATOM     84  O   UNL     1     147.789 170.174 192.489  0.00  0.00    -0.248 OA
ATOM     85  C   UNL     1     148.029 170.929 191.557  0.00  0.00    +0.337 C 
BRANCH  85  86
ATOM     86  C   UNL     1     148.719 172.294 191.667  0.00  0.00    +0.155 C 
ATOM     87  O   UNL     1     149.735 172.307 192.682  0.00  0.00    -0.365 OA
ATOM     88  C   UNL     1     149.283 173.096 193.788  0.00  0.00    +0.049 C 
ATOM     89  C   UNL     1     147.816 173.379 193.558  0.00  0.00    -0.027 C 
ATOM     90  C   UNL     1     147.726 173.378 192.052  0.00  0.00    -0.014 C 
ATOM     91  H   UNL     1     149.203 172.500 190.706  0.00  0.00    +0.071 HD
ATOM     92  H   UNL     1     149.467 172.562 194.724  0.00  0.00    +0.056 HD
ATOM     93  H   UNL     1     149.866 174.025 193.796  0.00  0.00    +0.056 HD
ATOM     94  H   UNL     1     147.482 174.313 194.017  0.00  0.00    +0.029 HD
ATOM     95  H   UNL     1     147.208 172.564 193.968  0.00  0.00    +0.029 HD
ATOM     96  H   UNL     1     148.069 174.346 191.666  0.00  0.00    +0.030 HD
ATOM     97  H   UNL     1     146.707 173.214 191.694  0.00  0.00    +0.030 HD
ENDBRANCH  85  86
ENDBRANCH  83  85
ENDBRANCH  50  83
ENDBRANCH   1  50
TORSDOF 31
ENDMDL
MODEL 2
REMARK VINA RESULT:      -5.3      3.229      5.619
REMARK  Name = 2u_conf1
REMARK  31 active torsions:
REMARK  status: ('A' for Active; 'I' for Inactive)
REMARK    1  A    between atoms: C_2  and  C_3
REMARK    2  A    between atoms: C_2  and  O_8
REMARK    3  A    between atoms: O_8  and  C_9
REMARK    4  A    between atoms: C_9  and  C_10
REMARK    5  A    between atoms: C_9  and  C_29
REMARK    6  A    between atoms: C_10  and  C_11
REMARK    7  A    between atoms: C_11  and  C_12
REMARK    8  A    between atoms: C_12  and  C_13
REMARK    9  A    between atoms: C_12  and  C_14
REMARK   10  A    between atoms: C_14  and  O_15
REMARK   11  A    between atoms: C_14  and  C_17
REMARK   12  A    between atoms: O_15  and  C_16
REMARK   13  A    between atoms: C_17  and  C_18
REMARK   14  A    between atoms: C_18  and  O_19
REMARK   15  A    between atoms: C_18  and  C_26
REMARK   16  A    between atoms: O_19  and  C_20
REMARK   17  A    between atoms: C_20  and  C_21
REMARK   18  A    between atoms: C_21  and  C_22
REMARK   19  A    between atoms: C_22  and  C_23
REMARK   20  A    between atoms: C_23  and  N_24
REMARK   21  A    between atoms: C_26  and  C_27
REMARK   22  A    between atoms: C_26  and  C_28
REMARK   23  A    between atoms: C_29  and  C_30
REMARK   24  A    between atoms: C_29  and  C_31
REMARK   25  A    between atoms: C_31  and  O_32
REMARK   26  A    between atoms: C_31  and  C_34
REMARK   27  A    between atoms: O_32  and  C_33
REMARK   28  A    between atoms: C_34  and  C_35
REMARK   29  A    between atoms: C_34  and  C_36
REMARK   30  A    between atoms: C_37  and  N_38
REMARK   31  A    between atoms: N_38  and  C_39
REMARK                            x       y       z     vdW  Elec       q    Type
REMARK                         _______ _______ _______ _____ _____    ______ ____
ROOT
ATOM      1  C   UNL     1     148.206 169.641 191.979  0.00  0.00    -0.015 C 
ATOM      2  H   UNL     1     147.998 168.617 192.283  0.00  0.00    +0.030 HD
ATOM      3  H   UNL     1     148.211 170.223 192.907  0.00  0.00    +0.030 HD
ENDROOT
BRANCH   1   4
ATOM      4  C   UNL     1     149.614 169.643 191.356  0.00  0.00    -0.045 C 
ATOM      5  H   UNL     1     149.835 170.660 191.010  0.00  0.00    +0.027 HD
ATOM      6  H   UNL     1     149.594 169.023 190.451  0.00  0.00    +0.027 HD
BRANCH   4   7
ATOM      7  C   UNL     1     150.754 169.167 192.285  0.00  0.00    -0.017 C 
ATOM      8  H   UNL     1     150.418 169.279 193.323  0.00  0.00    +0.032 HD
BRANCH   7   9
ATOM      9  C   UNL     1     151.955 170.109 192.100  0.00  0.00    -0.060 C 
ATOM     10  H   UNL     1     151.693 170.935 191.429  0.00  0.00    +0.023 HD
ATOM     11  H   UNL     1     152.264 170.555 193.049  0.00  0.00    +0.023 HD
ATOM     12  H   UNL     1     152.815 169.588 191.667  0.00  0.00    +0.023 HD
ENDBRANCH   7   9
BRANCH   7  13
ATOM     13  C   UNL     1     151.127 167.675 192.056  0.00  0.00    +0.064 C 
ATOM     14  H   UNL     1     150.219 167.122 191.791  0.00  0.00    +0.060 HD
BRANCH  13  15
ATOM     15  C   UNL     1     151.726 167.044 193.327  0.00  0.00    +0.011 C 
ATOM     16  H   UNL     1     151.953 167.846 194.037  0.00  0.00    +0.033 HD
ATOM     17  H   UNL     1     152.657 166.522 193.080  0.00  0.00    +0.033 HD
BRANCH  15  18
ATOM     18  C   UNL     1     150.765 166.035 193.990  0.00  0.00    +0.108 C 
ATOM     19  H   UNL     1     150.821 165.091 193.433  0.00  0.00    +0.074 HD
BRANCH  18  20
ATOM     20  C   UNL     1     151.152 165.772 195.467  0.00  0.00    -0.009 C 
ATOM     21  H   UNL     1     152.109 166.274 195.662  0.00  0.00    +0.033 HD
BRANCH  20  22
ATOM     22  C   UNL     1     150.124 166.306 196.469  0.00  0.00    -0.059 C 
ATOM     23  H   UNL     1     149.789 165.525 197.161  0.00  0.00    +0.023 HD
ATOM     24  H   UNL     1     150.559 167.115 197.069  0.00  0.00    +0.023 HD
ATOM     25  H   UNL     1     149.246 166.714 195.962  0.00  0.00    +0.023 HD
ENDBRANCH  20  22
BRANCH  20  26
ATOM     26  C   UNL     1     151.381 164.280 195.725  0.00  0.00    -0.059 C 
ATOM     27  H   UNL     1     152.018 164.112 196.597  0.00  0.00    +0.023 HD
ATOM     28  H   UNL     1     150.429 163.762 195.889  0.00  0.00    +0.023 HD
ATOM     29  H   UNL     1     151.867 163.810 194.864  0.00  0.00    +0.023 HD
ENDBRANCH  20  26
ENDBRANCH  18  20
BRANCH  18  30
ATOM     30  O   UNL     1     149.440 166.610 193.906  0.00  0.00    -0.461 OA
BRANCH  30  31
ATOM     31  C   UNL     1     148.421 165.808 193.496  0.00  0.00    +0.307 C 
ATOM     32  O   UNL     1     148.502 164.607 193.279  0.00  0.00    -0.251 OA
BRANCH  31  33
ATOM     33  C   UNL     1     147.195 166.651 193.222  0.00  0.00    +0.046 C 
ATOM     34  H   UNL     1     147.322 167.650 193.654  0.00  0.00    +0.038 HD
ATOM     35  H   UNL     1     147.138 166.765 192.132  0.00  0.00    +0.038 HD
BRANCH  33  36
ATOM     36  C   UNL     1     145.902 166.015 193.735  0.00  0.00    -0.031 C 
ATOM     37  H   UNL     1     145.698 166.325 194.768  0.00  0.00    +0.028 HD
ATOM     38  H   UNL     1     146.038 164.926 193.757  0.00  0.00    +0.028 HD
BRANCH  36  39
ATOM     39  C   UNL     1     144.688 166.313 192.855  0.00  0.00    -0.006 C 
ATOM     40  H   UNL     1     144.282 165.372 192.466  0.00  0.00    +0.042 HD
ATOM     41  H   UNL     1     144.997 166.915 191.992  0.00  0.00    +0.042 HD
BRANCH  39  42
ATOM     42  N   UNL     1     143.646 167.025 193.577  0.00  0.00    -0.330 NA
ATOM     43  H   UNL     1     143.548 166.641 194.521  0.00  0.00    +0.118 HD
ATOM     44  H   UNL     1     142.748 166.882 193.115  0.00  0.00    +0.118 HD
ENDBRANCH  39  42
ENDBRANCH  36  39
ENDBRANCH  33  36
ENDBRANCH  31  33
ENDBRANCH  30  31
ENDBRANCH  18  30
ENDBRANCH  15  18
ENDBRANCH  13  15
BRANCH  13  45
ATOM     45  O   UNL     1     152.101 167.587 191.009  0.00  0.00    -0.379 OA
BRANCH  45  46
ATOM     46  C   UNL     1     152.472 166.255 190.685  0.00  0.00    +0.037 C 
ATOM     47  H   UNL     1     151.742 165.543 191.078  0.00  0.00    +0.052 HD
ATOM     48  H   UNL     1     152.571 166.133 189.603  0.00  0.00    +0.052 HD
ATOM     49  H   UNL     1     153.442 166.048 191.146  0.00  0.00    +0.052 HD
ENDBRANCH  45  46
ENDBRANCH  13  45
ENDBRANCH   7  13
ENDBRANCH   4   7
ENDBRANCH   1   4
BRANCH   1  50
ATOM     50  C   UNL     1     147.090 170.151 191.051  0.00  0.00    +0.108 C 
ATOM     51  H   UNL     1     146.169 170.081 191.648  0.00  0.00    +0.074 HD
BRANCH  50  52
ATOM     52  C   UNL     1     146.851 169.315 189.763  0.00  0.00    +0.020 C 
ATOM     53  H   UNL     1     147.810 168.795 189.627  0.00  0.00    +0.036 HD
BRANCH  52  54
ATOM     54  C   UNL     1     146.749 170.188 188.507  0.00  0.00    -0.057 C 
ATOM     55  H   UNL     1     146.099 169.733 187.754  0.00  0.00    +0.023 HD
ATOM     56  H   UNL     1     147.738 170.305 188.048  0.00  0.00    +0.023 HD
ATOM     57  H   UNL     1     146.370 171.190 188.717  0.00  0.00    +0.023 HD
ENDBRANCH  52  54
BRANCH  52  58
ATOM     58  C   UNL     1     145.820 168.142 189.834  0.00  0.00    +0.070 C 
ATOM     59  H   UNL     1     145.840 167.750 190.860  0.00  0.00    +0.061 HD
BRANCH  58  60
ATOM     60  C   UNL     1     144.311 168.362 189.487  0.00  0.00    +0.002 C 
ATOM     61  H   UNL     1     144.320 169.102 188.671  0.00  0.00    +0.037 HD
BRANCH  60  62
ATOM     62  C   UNL     1     143.512 169.053 190.595  0.00  0.00    -0.057 C 
ATOM     63  H   UNL     1     142.496 169.279 190.251  0.00  0.00    +0.024 HD
ATOM     64  H   UNL     1     143.967 170.005 190.883  0.00  0.00    +0.024 HD
ATOM     65  H   UNL     1     143.414 168.434 191.488  0.00  0.00    +0.024 HD
ENDBRANCH  60  62
BRANCH  60  66
ATOM     66  C   UNL     1     143.651 167.149 188.854  0.00  0.00    -0.065 C 
ATOM     67  C   UNL     1     142.675 166.389 189.374  0.00  0.00    -0.005 C 
ATOM     68  H   UNL     1     144.023 166.923 187.858  0.00  0.00    +0.059 HD
ATOM     69  H   UNL     1     142.275 166.624 190.358  0.00  0.00    +0.078 HD
BRANCH  67  70
ATOM     70  N   UNL     1     142.115 165.272 188.769  0.00  0.00    -0.284 N 
ATOM     71  C   UNL     1     142.537 163.991 189.117  0.00  0.00    +0.206 C 
ATOM     72  O   UNL     1     142.131 162.935 188.650  0.00  0.00    -0.279 OA
ATOM     73  H   UNL     1     143.318 163.994 189.897  0.00  0.00    +0.126 HD
BRANCH  70  74
ATOM     74  C   UNL     1     141.089 165.393 187.743  0.00  0.00    +0.007 C 
ATOM     75  H   UNL     1     140.105 165.088 188.113  0.00  0.00    +0.043 HD
ATOM     76  H   UNL     1     141.347 164.752 186.895  0.00  0.00    +0.043 HD
ATOM     77  H   UNL     1     141.021 166.438 187.421  0.00  0.00    +0.043 HD
ENDBRANCH  70  74
ENDBRANCH  67  70
ENDBRANCH  60  66
ENDBRANCH  58  60
BRANCH  58  78
ATOM     78  O   UNL     1     146.257 167.064 188.969  0.00  0.00    -0.379 OA
BRANCH  78  79
ATOM     79  C   UNL     1     147.136 166.134 189.594  0.00  0.00    +0.037 C 
ATOM     80  H   UNL     1     146.588 165.443 190.240  0.00  0.00    +0.052 HD
ATOM     81  H   UNL     1     147.836 166.696 190.218  0.00  0.00    +0.052 HD
ATOM     82  H   UNL     1     147.713 165.578 188.848  0.00  0.00    +0.052 HD
ENDBRANCH  78  79
ENDBRANCH  58  78
ENDBRANCH  52  58
ENDBRANCH  50  52
BRANCH  50  83
ATOM     83  O   UNL     1     147.330 171.536 190.727  0.00  0.00    -0.459 OA
BRANCH  83  85
ATOM     84  O   UNL     1     145.355 172.392 191.522  0.00  0.00    -0.248 OA
ATOM     85  C   UNL     1     146.570 172.456 191.396  0.00  0.00    +0.337 C 
BRANCH  85  86
ATOM     86  C   UNL     1     147.469 173.567 191.952  0.00  0.00    +0.155 C 
ATOM     87  O   UNL     1     148.860 173.319 191.691  0.00  0.00    -0.365 OA
ATOM     88  C   UNL     1     149.513 172.975 192.919  0.00  0.00    +0.049 C 
ATOM     89  C   UNL     1     148.428 172.753 193.948  0.00  0.00    -0.027 C 
ATOM     90  C   UNL     1     147.336 173.673 193.462  0.00  0.00    -0.014 C 
ATOM     91  H   UNL     1     147.195 174.500 191.447  0.00  0.00    +0.071 HD
ATOM     92  H   UNL     1     150.141 172.093 192.770  0.00  0.00    +0.056 HD
ATOM     93  H   UNL     1     150.156 173.817 193.201  0.00  0.00    +0.056 HD
ATOM     94  H   UNL     1     148.757 172.962 194.969  0.00  0.00    +0.029 HD
ATOM     95  H   UNL     1     148.083 171.713 193.910  0.00  0.00    +0.029 HD
ATOM     96  H   UNL     1     147.558 174.700 193.780  0.00  0.00    +0.030 HD
ATOM     97  H   UNL     1     146.354 173.401 193.855  0.00  0.00    +0.030 HD
ENDBRANCH  85  86
ENDBRANCH  83  85
ENDBRANCH  50  83
ENDBRANCH   1  50
TORSDOF 31
ENDMDL
MODEL 3
REMARK VINA RESULT:      -5.2      3.302      6.207
REMARK  Name = 2u_conf1
REMARK  31 active torsions:
REMARK  status: ('A' for Active; 'I' for Inactive)
REMARK    1  A    between atoms: C_2  and  C_3
REMARK    2  A    between atoms: C_2  and  O_8
REMARK    3  A    between atoms: O_8  and  C_9
REMARK    4  A    between atoms: C_9  and  C_10
REMARK    5  A    between atoms: C_9  and  C_29
REMARK    6  A    between atoms: C_10  and  C_11
REMARK    7  A    between atoms: C_11  and  C_12
REMARK    8  A    between atoms: C_12  and  C_13
REMARK    9  A    between atoms: C_12  and  C_14
REMARK   10  A    between atoms: C_14  and  O_15
REMARK   11  A    between atoms: C_14  and  C_17
REMARK   12  A    between atoms: O_15  and  C_16
REMARK   13  A    between atoms: C_17  and  C_18
REMARK   14  A    between atoms: C_18  and  O_19
REMARK   15  A    between atoms: C_18  and  C_26
REMARK   16  A    between atoms: O_19  and  C_20
REMARK   17  A    between atoms: C_20  and  C_21
REMARK   18  A    between atoms: C_21  and  C_22
REMARK   19  A    between atoms: C_22  and  C_23
REMARK   20  A    between atoms: C_23  and  N_24
REMARK   21  A    between atoms: C_26  and  C_27
REMARK   22  A    between atoms: C_26  and  C_28
REMARK   23  A    between atoms: C_29  and  C_30
REMARK   24  A    between atoms: C_29  and  C_31
REMARK   25  A    between atoms: C_31  and  O_32
REMARK   26  A    between atoms: C_31  and  C_34
REMARK   27  A    between atoms: O_32  and  C_33
REMARK   28  A    between atoms: C_34  and  C_35
REMARK   29  A    between atoms: C_34  and  C_36
REMARK   30  A    between atoms: C_37  and  N_38
REMARK   31  A    between atoms: N_38  and  C_39
REMARK                            x       y       z     vdW  Elec       q    Type
REMARK                         _______ _______ _______ _____ _____    ______ ____
ROOT
ATOM      1  C   UNL     1     149.518 168.933 192.696  0.00  0.00    -0.015 C 
ATOM      2  H   UNL     1     149.317 168.926 193.765  0.00  0.00    +0.030 HD
ATOM      3  H   UNL     1     150.113 169.836 192.520  0.00  0.00    +0.030 HD
ENDROOT
BRANCH   1   4
ATOM      4  C   UNL     1     150.366 167.685 192.393  0.00  0.00    -0.045 C 
ATOM      5  H   UNL     1     149.729 166.952 191.882  0.00  0.00    +0.027 HD
ATOM      6  H   UNL     1     150.646 167.216 193.345  0.00  0.00    +0.027 HD
BRANCH   4   7
ATOM      7  C   UNL     1     151.635 167.930 191.545  0.00  0.00    -0.017 C 
ATOM      8  H   UNL     1     152.505 167.620 192.136  0.00  0.00    +0.032 HD
BRANCH   7   9
ATOM      9  C   UNL     1     151.773 169.443 191.308  0.00  0.00    -0.060 C 
ATOM     10  H   UNL     1     150.799 169.883 191.065  0.00  0.00    +0.023 HD
ATOM     11  H   UNL     1     152.141 169.957 192.199  0.00  0.00    +0.023 HD
ATOM     12  H   UNL     1     152.453 169.661 190.478  0.00  0.00    +0.023 HD
ENDBRANCH   7   9
BRANCH   7  13
ATOM     13  C   UNL     1     151.635 167.117 190.221  0.00  0.00    +0.064 C 
ATOM     14  H   UNL     1     150.649 167.205 189.753  0.00  0.00    +0.060 HD
BRANCH  13  15
ATOM     15  C   UNL     1     151.920 165.624 190.477  0.00  0.00    +0.011 C 
ATOM     16  H   UNL     1     152.003 165.470 191.558  0.00  0.00    +0.033 HD
ATOM     17  H   UNL     1     152.868 165.341 190.009  0.00  0.00    +0.033 HD
BRANCH  15  18
ATOM     18  C   UNL     1     150.809 164.712 189.916  0.00  0.00    +0.108 C 
ATOM     19  H   UNL     1     151.222 163.704 189.793  0.00  0.00    +0.074 HD
BRANCH  18  20
ATOM     20  C   UNL     1     149.595 164.643 190.878  0.00  0.00    -0.009 C 
ATOM     21  H   UNL     1     149.288 165.672 191.111  0.00  0.00    +0.033 HD
BRANCH  20  22
ATOM     22  C   UNL     1     148.388 163.912 190.282  0.00  0.00    -0.059 C 
ATOM     23  H   UNL     1     148.382 163.966 189.187  0.00  0.00    +0.023 HD
ATOM     24  H   UNL     1     148.407 162.852 190.560  0.00  0.00    +0.023 HD
ATOM     25  H   UNL     1     147.447 164.328 190.650  0.00  0.00    +0.023 HD
ENDBRANCH  20  22
BRANCH  20  26
ATOM     26  C   UNL     1     149.976 163.989 192.209  0.00  0.00    -0.059 C 
ATOM     27  H   UNL     1     150.427 163.004 192.063  0.00  0.00    +0.023 HD
ATOM     28  H   UNL     1     150.687 164.615 192.761  0.00  0.00    +0.023 HD
ATOM     29  H   UNL     1     149.092 163.859 192.841  0.00  0.00    +0.023 HD
ENDBRANCH  20  26
ENDBRANCH  18  20
BRANCH  18  30
ATOM     30  O   UNL     1     150.416 165.273 188.642  0.00  0.00    -0.461 OA
BRANCH  30  31
ATOM     31  C   UNL     1     151.017 164.792 187.521  0.00  0.00    +0.307 C 
ATOM     32  O   UNL     1     151.435 163.652 187.370  0.00  0.00    -0.251 OA
BRANCH  31  33
ATOM     33  C   UNL     1     151.210 165.918 186.529  0.00  0.00    +0.046 C 
ATOM     34  H   UNL     1     152.223 166.326 186.616  0.00  0.00    +0.038 HD
ATOM     35  H   UNL     1     151.117 165.468 185.533  0.00  0.00    +0.038 HD
BRANCH  33  36
ATOM     36  C   UNL     1     150.177 167.035 186.682  0.00  0.00    -0.031 C 
ATOM     37  H   UNL     1     150.614 168.008 186.429  0.00  0.00    +0.028 HD
ATOM     38  H   UNL     1     149.881 167.090 187.737  0.00  0.00    +0.028 HD
BRANCH  36  39
ATOM     39  C   UNL     1     148.909 166.807 185.857  0.00  0.00    -0.006 C 
ATOM     40  H   UNL     1     149.174 166.316 184.913  0.00  0.00    +0.042 HD
ATOM     41  H   UNL     1     148.455 167.773 185.605  0.00  0.00    +0.042 HD
BRANCH  39  42
ATOM     42  N   UNL     1     147.931 165.996 186.563  0.00  0.00    -0.330 NA
ATOM     43  H   UNL     1     147.486 166.546 187.302  0.00  0.00    +0.118 HD
ATOM     44  H   UNL     1     148.399 165.217 187.027  0.00  0.00    +0.118 HD
ENDBRANCH  39  42
ENDBRANCH  36  39
ENDBRANCH  33  36
ENDBRANCH  31  33
ENDBRANCH  30  31
ENDBRANCH  18  30
ENDBRANCH  15  18
ENDBRANCH  13  15
BRANCH  13  45
ATOM     45  O   UNL     1     152.656 167.626 189.354  0.00  0.00    -0.379 OA
BRANCH  45  46
ATOM     46  C   UNL     1     153.744 166.733 189.166  0.00  0.00    +0.037 C 
ATOM     47  H   UNL     1     153.417 165.826 188.651  0.00  0.00    +0.052 HD
ATOM     48  H   UNL     1     154.549 167.215 188.605  0.00  0.00    +0.052 HD
ATOM     49  H   UNL     1     154.129 166.451 190.151  0.00  0.00    +0.052 HD
ENDBRANCH  45  46
ENDBRANCH  13  45
ENDBRANCH   7  13
ENDBRANCH   4   7
ENDBRANCH   1   4
BRANCH   1  50
ATOM     50  C   UNL     1     148.197 169.020 191.913  0.00  0.00    +0.108 C 
ATOM     51  H   UNL     1     147.428 169.220 192.673  0.00  0.00    +0.074 HD
BRANCH  50  52
ATOM     52  C   UNL     1     147.766 167.723 191.174  0.00  0.00    +0.020 C 
ATOM     53  H   UNL     1     148.486 166.979 191.546  0.00  0.00    +0.036 HD
BRANCH  52  54
ATOM     54  C   UNL     1     148.066 167.776 189.671  0.00  0.00    -0.057 C 
ATOM     55  H   UNL     1     147.545 168.607 189.187  0.00  0.00    +0.023 HD
ATOM     56  H   UNL     1     147.722 166.855 189.186  0.00  0.00    +0.023 HD
ATOM     57  H   UNL     1     149.132 167.875 189.456  0.00  0.00    +0.023 HD
ENDBRANCH  52  54
BRANCH  52  58
ATOM     58  C   UNL     1     146.384 167.094 191.546  0.00  0.00    +0.070 C 
ATOM     59  H   UNL     1     146.103 166.414 190.731  0.00  0.00    +0.061 HD
BRANCH  58  60
ATOM     60  C   UNL     1     146.190 166.283 192.869  0.00  0.00    +0.002 C 
ATOM     61  H   UNL     1     146.472 165.252 192.606  0.00  0.00    +0.037 HD
BRANCH  60  62
ATOM     62  C   UNL     1     144.730 166.158 193.313  0.00  0.00    -0.057 C 
ATOM     63  H   UNL     1     144.647 165.490 194.179  0.00  0.00    +0.024 HD
ATOM     64  H   UNL     1     144.106 165.729 192.523  0.00  0.00    +0.024 HD
ATOM     65  H   UNL     1     144.299 167.116 193.609  0.00  0.00    +0.024 HD
ENDBRANCH  60  62
BRANCH  60  66
ATOM     66  C   UNL     1     147.182 166.652 193.959  0.00  0.00    -0.065 C 
ATOM     67  C   UNL     1     147.956 165.819 194.672  0.00  0.00    -0.005 C 
ATOM     68  H   UNL     1     147.261 167.722 194.128  0.00  0.00    +0.059 HD
ATOM     69  H   UNL     1     147.905 164.747 194.489  0.00  0.00    +0.078 HD
BRANCH  67  70
ATOM     70  N   UNL     1     148.835 166.198 195.678  0.00  0.00    -0.284 N 
ATOM     71  C   UNL     1     150.191 165.898 195.583  0.00  0.00    +0.206 C 
ATOM     72  O   UNL     1     151.058 166.166 196.404  0.00  0.00    -0.279 OA
ATOM     73  H   UNL     1     150.448 165.363 194.652  0.00  0.00    +0.126 HD
BRANCH  70  74
ATOM     74  C   UNL     1     148.376 166.899 196.868  0.00  0.00    +0.007 C 
ATOM     75  H   UNL     1     148.218 166.215 197.708  0.00  0.00    +0.043 HD
ATOM     76  H   UNL     1     147.425 167.396 196.652  0.00  0.00    +0.043 HD
ATOM     77  H   UNL     1     149.130 167.636 197.168  0.00  0.00    +0.043 HD
ENDBRANCH  70  74
ENDBRANCH  67  70
ENDBRANCH  60  66
ENDBRANCH  58  60
BRANCH  58  78
ATOM     78  O   UNL     1     145.375 168.135 191.585  0.00  0.00    -0.379 OA
BRANCH  78  79
ATOM     79  C   UNL     1     144.643 168.282 190.373  0.00  0.00    +0.037 C 
ATOM     80  H   UNL     1     144.439 169.333 190.157  0.00  0.00    +0.052 HD
ATOM     81  H   UNL     1     143.684 167.770 190.492  0.00  0.00    +0.052 HD
ATOM     82  H   UNL     1     145.176 167.819 189.536  0.00  0.00    +0.052 HD
ENDBRANCH  78  79
ENDBRANCH  58  78
ENDBRANCH  52  58
ENDBRANCH  50  52
BRANCH  50  83
ATOM     83  O   UNL     1     148.251 170.136 191.002  0.00  0.00    -0.459 OA
BRANCH  83  85
ATOM     84  O   UNL     1     146.319 171.262 191.518  0.00  0.00    -0.248 OA
ATOM     85  C   UNL     1     147.531 171.244 191.356  0.00  0.00    +0.337 C 
BRANCH  85  86
ATOM     86  C   UNL     1     148.471 172.446 191.511  0.00  0.00    +0.155 C 
ATOM     87  O   UNL     1     149.560 172.170 192.406  0.00  0.00    -0.365 OA
ATOM     88  C   UNL     1     149.366 172.904 193.621  0.00  0.00    +0.049 C 
ATOM     89  C   UNL     1     147.963 173.464 193.578  0.00  0.00    -0.027 C 
ATOM     90  C   UNL     1     147.737 173.641 192.097  0.00  0.00    -0.014 C 
ATOM     91  H   UNL     1     148.895 172.666 190.525  0.00  0.00    +0.071 HD
ATOM     92  H   UNL     1     149.533 172.248 194.480  0.00  0.00    +0.056 HD
ATOM     93  H   UNL     1     150.110 173.708 193.647  0.00  0.00    +0.056 HD
ATOM     94  H   UNL     1     147.853 174.388 194.153  0.00  0.00    +0.029 HD
ATOM     95  H   UNL     1     147.254 172.730 193.978  0.00  0.00    +0.029 HD
ATOM     96  H   UNL     1     148.218 174.569 191.764  0.00  0.00    +0.030 HD
ATOM     97  H   UNL     1     146.676 173.698 191.840  0.00  0.00    +0.030 HD
ENDBRANCH  85  86
ENDBRANCH  83  85
ENDBRANCH  50  83
ENDBRANCH   1  50
TORSDOF 31
ENDMDL
MODEL 4
REMARK VINA RESULT:      -5.2      2.948      5.335
REMARK  Name = 2u_conf1
REMARK  31 active torsions:
REMARK  status: ('A' for Active; 'I' for Inactive)
REMARK    1  A    between atoms: C_2  and  C_3
REMARK    2  A    between atoms: C_2  and  O_8
REMARK    3  A    between atoms: O_8  and  C_9
REMARK    4  A    between atoms: C_9  and  C_10
REMARK    5  A    between atoms: C_9  and  C_29
REMARK    6  A    between atoms: C_10  and  C_11
REMARK    7  A    between atoms: C_11  and  C_12
REMARK    8  A    between atoms: C_12  and  C_13
REMARK    9  A    between atoms: C_12  and  C_14
REMARK   10  A    between atoms: C_14  and  O_15
REMARK   11  A    between atoms: C_14  and  C_17
REMARK   12  A    between atoms: O_15  and  C_16
REMARK   13  A    between atoms: C_17  and  C_18
REMARK   14  A    between atoms: C_18  and  O_19
REMARK   15  A    between atoms: C_18  and  C_26
REMARK   16  A    between atoms: O_19  and  C_20
REMARK   17  A    between atoms: C_20  and  C_21
REMARK   18  A    between atoms: C_21  and  C_22
REMARK   19  A    between atoms: C_22  and  C_23
REMARK   20  A    between atoms: C_23  and  N_24
REMARK   21  A    between atoms: C_26  and  C_27
REMARK   22  A    between atoms: C_26  and  C_28
REMARK   23  A    between atoms: C_29  and  C_30
REMARK   24  A    between atoms: C_29  and  C_31
REMARK   25  A    between atoms: C_31  and  O_32
REMARK   26  A    between atoms: C_31  and  C_34
REMARK   27  A    between atoms: O_32  and  C_33
REMARK   28  A    between atoms: C_34  and  C_35
REMARK   29  A    between atoms: C_34  and  C_36
REMARK   30  A    between atoms: C_37  and  N_38
REMARK   31  A    between atoms: N_38  and  C_39
REMARK                            x       y       z     vdW  Elec       q    Type
REMARK                         _______ _______ _______ _____ _____    ______ ____
ROOT
ATOM      1  C   UNL     1     148.263 169.431 191.585  0.00  0.00    -0.015 C 
ATOM      2  H   UNL     1     148.381 168.352 191.650  0.00  0.00    +0.030 HD
ATOM      3  H   UNL     1     147.879 169.739 192.564  0.00  0.00    +0.030 HD
ENDROOT
BRANCH   1   4
ATOM      4  C   UNL     1     149.669 170.022 191.371  0.00  0.00    -0.045 C 
ATOM      5  H   UNL     1     149.643 171.082 191.651  0.00  0.00    +0.027 HD
ATOM      6  H   UNL     1     149.891 170.009 190.297  0.00  0.00    +0.027 HD
BRANCH   4   7
ATOM      7  C   UNL     1     150.810 169.322 192.143  0.00  0.00    -0.017 C 
ATOM      8  H   UNL     1     150.447 169.087 193.151  0.00  0.00    +0.032 HD
BRANCH   7   9
ATOM      9  C   UNL     1     151.967 170.321 192.307  0.00  0.00    -0.060 C 
ATOM     10  H   UNL     1     152.932 169.803 192.249  0.00  0.00    +0.023 HD
ATOM     11  H   UNL     1     151.962 171.075 191.516  0.00  0.00    +0.023 HD
ATOM     12  H   UNL     1     151.923 170.835 193.273  0.00  0.00    +0.023 HD
ENDBRANCH   7   9
BRANCH   7  13
ATOM     13  C   UNL     1     151.261 167.996 191.471  0.00  0.00    +0.064 C 
ATOM     14  H   UNL     1     150.373 167.396 191.243  0.00  0.00    +0.060 HD
BRANCH  13  15
ATOM     15  C   UNL     1     152.175 167.175 192.401  0.00  0.00    +0.011 C 
ATOM     16  H   UNL     1     152.559 167.840 193.182  0.00  0.00    +0.033 HD
ATOM     17  H   UNL     1     153.023 166.777 191.833  0.00  0.00    +0.033 HD
BRANCH  15  18
ATOM     18  C   UNL     1     151.432 165.993 193.059  0.00  0.00    +0.108 C 
ATOM     19  H   UNL     1     152.163 165.203 193.270  0.00  0.00    +0.074 HD
BRANCH  18  20
ATOM     20  C   UNL     1     150.755 166.420 194.386  0.00  0.00    -0.009 C 
ATOM     21  H   UNL     1     151.097 167.435 194.630  0.00  0.00    +0.033 HD
BRANCH  20  22
ATOM     22  C   UNL     1     149.225 166.441 194.308  0.00  0.00    -0.059 C 
ATOM     23  H   UNL     1     148.833 167.464 194.316  0.00  0.00    +0.023 HD
ATOM     24  H   UNL     1     148.882 165.962 193.383  0.00  0.00    +0.023 HD
ATOM     25  H   UNL     1     148.775 165.895 195.142  0.00  0.00    +0.023 HD
ENDBRANCH  20  22
BRANCH  20  26
ATOM     26  C   UNL     1     151.190 165.521 195.547  0.00  0.00    -0.059 C 
ATOM     27  H   UNL     1     151.063 166.017 196.513  0.00  0.00    +0.023 HD
ATOM     28  H   UNL     1     150.610 164.591 195.558  0.00  0.00    +0.023 HD
ATOM     29  H   UNL     1     152.246 165.250 195.449  0.00  0.00    +0.023 HD
ENDBRANCH  20  26
ENDBRANCH  18  20
BRANCH  18  30
ATOM     30  O   UNL     1     150.443 165.544 192.104  0.00  0.00    -0.461 OA
BRANCH  30  31
ATOM     31  C   UNL     1     150.506 164.254 191.678  0.00  0.00    +0.307 C 
ATOM     32  O   UNL     1     151.457 163.738 191.107  0.00  0.00    -0.251 OA
BRANCH  31  33
ATOM     33  C   UNL     1     149.169 163.583 191.900  0.00  0.00    +0.046 C 
ATOM     34  H   UNL     1     149.257 162.818 192.678  0.00  0.00    +0.038 HD
ATOM     35  H   UNL     1     148.493 164.362 192.274  0.00  0.00    +0.038 HD
BRANCH  33  36
ATOM     36  C   UNL     1     148.585 162.973 190.625  0.00  0.00    -0.031 C 
ATOM     37  H   UNL     1     149.112 163.345 189.737  0.00  0.00    +0.028 HD
ATOM     38  H   UNL     1     147.542 163.301 190.530  0.00  0.00    +0.028 HD
BRANCH  36  39
ATOM     39  C   UNL     1     148.590 161.444 190.625  0.00  0.00    -0.006 C 
ATOM     40  H   UNL     1     149.388 161.084 189.965  0.00  0.00    +0.042 HD
ATOM     41  H   UNL     1     147.641 161.072 190.221  0.00  0.00    +0.042 HD
BRANCH  39  42
ATOM     42  N   UNL     1     148.783 160.894 191.957  0.00  0.00    -0.330 NA
ATOM     43  H   UNL     1     148.967 161.647 192.625  0.00  0.00    +0.118 HD
ATOM     44  H   UNL     1     149.608 160.295 191.966  0.00  0.00    +0.118 HD
ENDBRANCH  39  42
ENDBRANCH  36  39
ENDBRANCH  33  36
ENDBRANCH  31  33
ENDBRANCH  30  31
ENDBRANCH  18  30
ENDBRANCH  15  18
ENDBRANCH  13  15
BRANCH  13  45
ATOM     45  O   UNL     1     151.992 168.295 190.275  0.00  0.00    -0.379 OA
BRANCH  45  46
ATOM     46  C   UNL     1     152.516 167.149 189.623  0.00  0.00    +0.037 C 
ATOM     47  H   UNL     1     152.025 166.241 189.980  0.00  0.00    +0.052 HD
ATOM     48  H   UNL     1     152.404 167.235 188.539  0.00  0.00    +0.052 HD
ATOM     49  H   UNL     1     153.583 167.080 189.856  0.00  0.00    +0.052 HD
ENDBRANCH  45  46
ENDBRANCH  13  45
ENDBRANCH   7  13
ENDBRANCH   4   7
ENDBRANCH   1   4
BRANCH   1  50
ATOM     50  C   UNL     1     147.242 169.785 190.490  0.00  0.00    +0.108 C 
ATOM     51  H   UNL     1     146.281 169.402 190.863  0.00  0.00    +0.074 HD
BRANCH  50  52
ATOM     52  C   UNL     1     147.480 169.118 189.107  0.00  0.00    +0.020 C 
ATOM     53  H   UNL     1     148.508 169.425 188.862  0.00  0.00    +0.036 HD
BRANCH  52  54
ATOM     54  C   UNL     1     146.650 169.765 187.992  0.00  0.00    -0.057 C 
ATOM     55  H   UNL     1     146.972 170.793 187.799  0.00  0.00    +0.023 HD
ATOM     56  H   UNL     1     145.595 169.809 188.286  0.00  0.00    +0.023 HD
ATOM     57  H   UNL     1     146.702 169.213 187.052  0.00  0.00    +0.023 HD
ENDBRANCH  52  54
BRANCH  52  58
ATOM     58  C   UNL     1     147.555 167.558 189.051  0.00  0.00    +0.070 C 
ATOM     59  H   UNL     1     148.345 167.242 189.744  0.00  0.00    +0.061 HD
BRANCH  58  60
ATOM     60  C   UNL     1     146.311 166.671 189.384  0.00  0.00    +0.002 C 
ATOM     61  H   UNL     1     146.681 165.637 189.309  0.00  0.00    +0.037 HD
BRANCH  60  62
ATOM     62  C   UNL     1     145.200 166.737 188.332  0.00  0.00    -0.057 C 
ATOM     63  H   UNL     1     144.470 165.935 188.494  0.00  0.00    +0.024 HD
ATOM     64  H   UNL     1     145.596 166.603 187.321  0.00  0.00    +0.024 HD
ATOM     65  H   UNL     1     144.649 167.678 188.363  0.00  0.00    +0.024 HD
ENDBRANCH  60  62
BRANCH  60  66
ATOM     66  C   UNL     1     145.858 166.779 190.830  0.00  0.00    -0.065 C 
ATOM     67  C   UNL     1     144.720 166.311 191.365  0.00  0.00    -0.005 C 
ATOM     68  H   UNL     1     146.580 167.275 191.474  0.00  0.00    +0.059 HD
ATOM     69  H   UNL     1     144.004 165.787 190.734  0.00  0.00    +0.078 HD
BRANCH  67  70
ATOM     70  N   UNL     1     144.334 166.452 192.691  0.00  0.00    -0.284 N 
ATOM     71  C   UNL     1     143.086 166.976 193.014  0.00  0.00    +0.206 C 
ATOM     72  O   UNL     1     142.638 167.159 194.139  0.00  0.00    -0.279 OA
ATOM     73  H   UNL     1     142.485 167.233 192.124  0.00  0.00    +0.126 HD
BRANCH  70  74
ATOM     74  C   UNL     1     145.219 166.082 193.786  0.00  0.00    +0.007 C 
ATOM     75  H   UNL     1     144.884 165.170 194.291  0.00  0.00    +0.043 HD
ATOM     76  H   UNL     1     145.240 166.890 194.524  0.00  0.00    +0.043 HD
ATOM     77  H   UNL     1     146.226 165.901 193.393  0.00  0.00    +0.043 HD
ENDBRANCH  70  74
ENDBRANCH  67  70
ENDBRANCH  60  66
ENDBRANCH  58  60
BRANCH  58  78
ATOM     78  O   UNL     1     147.975 167.143 187.726  0.00  0.00    -0.379 OA
BRANCH  78  79
ATOM     79  C   UNL     1     149.360 166.830 187.626  0.00  0.00    +0.037 C 
ATOM     80  H   UNL     1     149.967 167.514 188.223  0.00  0.00    +0.052 HD
ATOM     81  H   UNL     1     149.658 166.940 186.579  0.00  0.00    +0.052 HD
ATOM     82  H   UNL     1     149.550 165.794 187.928  0.00  0.00    +0.052 HD
ENDBRANCH  78  79
ENDBRANCH  58  78
ENDBRANCH  52  58
ENDBRANCH  50  52
BRANCH  50  83
ATOM     83  O   UNL     1     147.152 171.218 190.361  0.00  0.00    -0.459 OA
BRANCH  83  85
ATOM     84  O   UNL     1     145.089 171.332 191.358  0.00  0.00    -0.248 OA
ATOM     85  C   UNL     1     146.173 171.833 191.091  0.00  0.00    +0.337 C 
BRANCH  85  86
ATOM     86  C   UNL     1     146.639 173.232 191.512  0.00  0.00    +0.155 C 
ATOM     87  O   UNL     1     147.958 173.531 191.028  0.00  0.00    -0.365 OA
ATOM     88  C   UNL     1     148.873 173.529 192.131  0.00  0.00    +0.049 C 
ATOM     89  C   UNL     1     148.133 172.953 193.317  0.00  0.00    -0.027 C 
ATOM     90  C   UNL     1     146.708 173.352 193.025  0.00  0.00    -0.014 C 
ATOM     91  H   UNL     1     145.948 173.959 191.072  0.00  0.00    +0.071 HD
ATOM     92  H   UNL     1     149.765 172.953 191.870  0.00  0.00    +0.056 HD
ATOM     93  H   UNL     1     149.171 174.567 192.319  0.00  0.00    +0.056 HD
ATOM     94  H   UNL     1     148.506 173.324 194.275  0.00  0.00    +0.029 HD
ATOM     95  H   UNL     1     148.221 171.860 193.319  0.00  0.00    +0.029 HD
ATOM     96  H   UNL     1     146.556 174.398 193.320  0.00  0.00    +0.030 HD
ATOM     97  H   UNL     1     145.983 172.740 193.567  0.00  0.00    +0.030 HD
ENDBRANCH  85  86
ENDBRANCH  83  85
ENDBRANCH  50  83
ENDBRANCH   1  50
TORSDOF 31
ENDMDL
MODEL 5
REMARK VINA RESULT:      -5.2      2.825      7.769
REMARK  Name = 2u_conf1
REMARK  31 active torsions:
REMARK  status: ('A' for Active; 'I' for Inactive)
REMARK    1  A    between atoms: C_2  and  C_3
REMARK    2  A    between atoms: C_2  and  O_8
REMARK    3  A    between atoms: O_8  and  C_9
REMARK    4  A    between atoms: C_9  and  C_10
REMARK    5  A    between atoms: C_9  and  C_29
REMARK    6  A    between atoms: C_10  and  C_11
REMARK    7  A    between atoms: C_11  and  C_12
REMARK    8  A    between atoms: C_12  and  C_13
REMARK    9  A    between atoms: C_12  and  C_14
REMARK   10  A    between atoms: C_14  and  O_15
REMARK   11  A    between atoms: C_14  and  C_17
REMARK   12  A    between atoms: O_15  and  C_16
REMARK   13  A    between atoms: C_17  and  C_18
REMARK   14  A    between atoms: C_18  and  O_19
REMARK   15  A    between atoms: C_18  and  C_26
REMARK   16  A    between atoms: O_19  and  C_20
REMARK   17  A    between atoms: C_20  and  C_21
REMARK   18  A    between atoms: C_21  and  C_22
REMARK   19  A    between atoms: C_22  and  C_23
REMARK   20  A    between atoms: C_23  and  N_24
REMARK   21  A    between atoms: C_26  and  C_27
REMARK   22  A    between atoms: C_26  and  C_28
REMARK   23  A    between atoms: C_29  and  C_30
REMARK   24  A    between atoms: C_29  and  C_31
REMARK   25  A    between atoms: C_31  and  O_32
REMARK   26  A    between atoms: C_31  and  C_34
REMARK   27  A    between atoms: O_32  and  C_33
REMARK   28  A    between atoms: C_34  and  C_35
REMARK   29  A    between atoms: C_34  and  C_36
REMARK   30  A    between atoms: C_37  and  N_38
REMARK   31  A    between atoms: N_38  and  C_39
REMARK                            x       y       z     vdW  Elec       q    Type
REMARK                         _______ _______ _______ _____ _____    ______ ____
ROOT
ATOM      1  C   UNL     1     148.632 167.847 192.058  0.00  0.00    -0.015 C 
ATOM      2  H   UNL     1     147.781 168.246 192.607  0.00  0.00    +0.030 HD
ATOM      3  H   UNL     1     149.163 167.209 192.773  0.00  0.00    +0.030 HD
ENDROOT
BRANCH   1   4
ATOM      4  C   UNL     1     148.063 166.985 190.917  0.00  0.00    -0.045 C 
ATOM      5  H   UNL     1     148.899 166.644 190.294  0.00  0.00    +0.027 HD
ATOM      6  H   UNL     1     147.457 167.627 190.266  0.00  0.00    +0.027 HD
BRANCH   4   7
ATOM      7  C   UNL     1     147.229 165.761 191.358  0.00  0.00    -0.017 C 
ATOM      8  H   UNL     1     147.474 165.540 192.404  0.00  0.00    +0.032 HD
BRANCH   7   9
ATOM      9  C   UNL     1     147.676 164.546 190.529  0.00  0.00    -0.060 C 
ATOM     10  H   UNL     1     147.344 164.649 189.489  0.00  0.00    +0.023 HD
ATOM     11  H   UNL     1     148.765 164.454 190.507  0.00  0.00    +0.023 HD
ATOM     12  H   UNL     1     147.258 163.613 190.921  0.00  0.00    +0.023 HD
ENDBRANCH   7   9
BRANCH   7  13
ATOM     13  C   UNL     1     145.699 166.015 191.263  0.00  0.00    +0.064 C 
ATOM     14  H   UNL     1     145.176 165.057 191.357  0.00  0.00    +0.060 HD
BRANCH  13  15
ATOM     15  C   UNL     1     145.315 166.646 189.910  0.00  0.00    +0.011 C 
ATOM     16  H   UNL     1     146.118 166.439 189.193  0.00  0.00    +0.033 HD
ATOM     17  H   UNL     1     145.216 167.731 190.021  0.00  0.00    +0.033 HD
BRANCH  15  18
ATOM     18  C   UNL     1     143.986 166.090 189.360  0.00  0.00    +0.108 C 
ATOM     19  H   UNL     1     143.754 166.615 188.426  0.00  0.00    +0.074 HD
BRANCH  18  20
ATOM     20  C   UNL     1     144.085 164.571 189.071  0.00  0.00    -0.009 C 
ATOM     21  H   UNL     1     144.538 164.087 189.947  0.00  0.00    +0.033 HD
BRANCH  20  22
ATOM     22  C   UNL     1     142.727 163.910 188.814  0.00  0.00    -0.059 C 
ATOM     23  H   UNL     1     142.259 163.572 189.746  0.00  0.00    +0.023 HD
ATOM     24  H   UNL     1     142.041 164.620 188.337  0.00  0.00    +0.023 HD
ATOM     25  H   UNL     1     142.821 163.050 188.146  0.00  0.00    +0.023 HD
ENDBRANCH  20  22
BRANCH  20  26
ATOM     26  C   UNL     1     145.016 164.289 187.888  0.00  0.00    -0.059 C 
ATOM     27  H   UNL     1     144.531 163.673 187.127  0.00  0.00    +0.023 HD
ATOM     28  H   UNL     1     145.342 165.224 187.418  0.00  0.00    +0.023 HD
ATOM     29  H   UNL     1     145.913 163.758 188.222  0.00  0.00    +0.023 HD
ENDBRANCH  20  26
ENDBRANCH  18  20
BRANCH  18  30
ATOM     30  O   UNL     1     142.980 166.351 190.366  0.00  0.00    -0.461 OA
BRANCH  30  31
ATOM     31  C   UNL     1     142.170 167.430 190.194  0.00  0.00    +0.307 C 
ATOM     32  O   UNL     1     141.504 167.669 189.197  0.00  0.00    -0.251 OA
BRANCH  31  33
ATOM     33  C   UNL     1     142.318 168.364 191.375  0.00  0.00    +0.046 C 
ATOM     34  H   UNL     1     141.443 168.285 192.029  0.00  0.00    +0.038 HD
ATOM     35  H   UNL     1     143.188 168.009 191.940  0.00  0.00    +0.038 HD
BRANCH  33  36
ATOM     36  C   UNL     1     142.538 169.821 190.964  0.00  0.00    -0.031 C 
ATOM     37  H   UNL     1     142.482 170.485 191.835  0.00  0.00    +0.028 HD
ATOM     38  H   UNL     1     141.722 170.117 190.292  0.00  0.00    +0.028 HD
BRANCH  36  39
ATOM     39  C   UNL     1     143.855 170.050 190.222  0.00  0.00    -0.006 C 
ATOM     40  H   UNL     1     143.862 171.062 189.800  0.00  0.00    +0.042 HD
ATOM     41  H   UNL     1     143.933 169.348 189.384  0.00  0.00    +0.042 HD
BRANCH  39  42
ATOM     42  N   UNL     1     145.011 169.882 191.088  0.00  0.00    -0.330 NA
ATOM     43  H   UNL     1     145.405 168.945 190.970  0.00  0.00    +0.118 HD
ATOM     44  H   UNL     1     144.723 169.951 192.064  0.00  0.00    +0.118 HD
ENDBRANCH  39  42
ENDBRANCH  36  39
ENDBRANCH  33  36
ENDBRANCH  31  33
ENDBRANCH  30  31
ENDBRANCH  18  30
ENDBRANCH  15  18
ENDBRANCH  13  15
BRANCH  13  45
ATOM     45  O   UNL     1     145.303 166.915 192.305  0.00  0.00    -0.379 OA
BRANCH  45  46
ATOM     46  C   UNL     1     144.751 166.267 193.441  0.00  0.00    +0.037 C 
ATOM     47  H   UNL     1     143.736 166.622 193.635  0.00  0.00    +0.052 HD
ATOM     48  H   UNL     1     144.751 165.182 193.306  0.00  0.00    +0.052 HD
ATOM     49  H   UNL     1     145.374 166.507 194.308  0.00  0.00    +0.052 HD
ENDBRANCH  45  46
ENDBRANCH  13  45
ENDBRANCH   7  13
ENDBRANCH   4   7
ENDBRANCH   1   4
BRANCH   1  50
ATOM     50  C   UNL     1     149.550 168.995 191.603  0.00  0.00    +0.108 C 
ATOM     51  H   UNL     1     149.472 169.005 190.507  0.00  0.00    +0.074 HD
BRANCH  50  52
ATOM     52  C   UNL     1     151.057 168.825 191.941  0.00  0.00    +0.020 C 
ATOM     53  H   UNL     1     151.037 168.489 192.988  0.00  0.00    +0.036 HD
BRANCH  52  54
ATOM     54  C   UNL     1     151.796 170.166 192.021  0.00  0.00    -0.057 C 
ATOM     55  H   UNL     1     152.880 170.024 192.056  0.00  0.00    +0.023 HD
ATOM     56  H   UNL     1     151.512 170.698 192.936  0.00  0.00    +0.023 HD
ATOM     57  H   UNL     1     151.570 170.825 191.180  0.00  0.00    +0.023 HD
ENDBRANCH  52  54
BRANCH  52  58
ATOM     58  C   UNL     1     151.843 167.683 191.219  0.00  0.00    +0.070 C 
ATOM     59  H   UNL     1     152.870 168.040 191.063  0.00  0.00    +0.061 HD
BRANCH  58  60
ATOM     60  C   UNL     1     151.974 166.259 191.852  0.00  0.00    +0.002 C 
ATOM     61  H   UNL     1     153.049 166.025 191.788  0.00  0.00    +0.037 HD
BRANCH  60  62
ATOM     62  C   UNL     1     151.311 165.149 191.032  0.00  0.00    -0.057 C 
ATOM     63  H   UNL     1     151.246 165.438 189.977  0.00  0.00    +0.024 HD
ATOM     64  H   UNL     1     150.288 164.958 191.370  0.00  0.00    +0.024 HD
ATOM     65  H   UNL     1     151.866 164.211 191.072  0.00  0.00    +0.024 HD
ENDBRANCH  60  62
BRANCH  60  66
ATOM     66  C   UNL     1     151.698 166.231 193.346  0.00  0.00    -0.065 C 
ATOM     67  C   UNL     1     151.122 165.244 194.050  0.00  0.00    -0.005 C 
ATOM     68  H   UNL     1     152.047 167.119 193.868  0.00  0.00    +0.059 HD
ATOM     69  H   UNL     1     150.796 164.339 193.541  0.00  0.00    +0.078 HD
BRANCH  67  70
ATOM     70  N   UNL     1     150.867 165.270 195.415  0.00  0.00    -0.284 N 
ATOM     71  C   UNL     1     150.291 166.391 196.006  0.00  0.00    +0.206 C 
ATOM     72  O   UNL     1     150.030 166.538 197.193  0.00  0.00    -0.279 OA
ATOM     73  H   UNL     1     150.071 167.194 195.282  0.00  0.00    +0.126 HD
BRANCH  70  74
ATOM     74  C   UNL     1     151.207 164.147 196.276  0.00  0.00    +0.007 C 
ATOM     75  H   UNL     1     151.943 163.484 195.810  0.00  0.00    +0.043 HD
ATOM     76  H   UNL     1     150.305 163.562 196.481  0.00  0.00    +0.043 HD
ATOM     77  H   UNL     1     151.635 164.524 197.211  0.00  0.00    +0.043 HD
ENDBRANCH  70  74
ENDBRANCH  67  70
ENDBRANCH  60  66
ENDBRANCH  58  60
BRANCH  58  78
ATOM     78  O   UNL     1     151.276 167.464 189.902  0.00  0.00    -0.379 OA
BRANCH  78  79
ATOM     79  C   UNL     1     152.214 167.580 188.837  0.00  0.00    +0.037 C 
ATOM     80  H   UNL     1     153.240 167.584 189.211  0.00  0.00    +0.052 HD
ATOM     81  H   UNL     1     152.035 168.533 188.331  0.00  0.00    +0.052 HD
ATOM     82  H   UNL     1     152.078 166.775 188.108  0.00  0.00    +0.052 HD
ENDBRANCH  78  79
ENDBRANCH  58  78
ENDBRANCH  52  58
ENDBRANCH  50  52
BRANCH  50  83
ATOM     83  O   UNL     1     149.047 170.245 192.117  0.00  0.00    -0.459 OA
BRANCH  83  85
ATOM     84  O   UNL     1     147.738 170.683 190.284  0.00  0.00    -0.248 OA
ATOM     85  C   UNL     1     148.434 171.069 191.213  0.00  0.00    +0.337 C 
BRANCH  85  86
ATOM     86  C   UNL     1     148.758 172.532 191.540  0.00  0.00    +0.155 C 
ATOM     87  O   UNL     1     149.398 172.671 192.819  0.00  0.00    -0.365 OA
ATOM     88  C   UNL     1     148.480 173.275 193.738  0.00  0.00    +0.049 C 
ATOM     89  C   UNL     1     147.124 173.280 193.070  0.00  0.00    -0.027 C 
ATOM     90  C   UNL     1     147.492 173.369 191.609  0.00  0.00    -0.014 C 
ATOM     91  H   UNL     1     149.453 172.897 190.777  0.00  0.00    +0.071 HD
ATOM     92  H   UNL     1     148.483 172.722 194.682  0.00  0.00    +0.056 HD
ATOM     93  H   UNL     1     148.826 174.297 193.932  0.00  0.00    +0.056 HD
ATOM     94  H   UNL     1     146.481 174.095 193.411  0.00  0.00    +0.029 HD
ATOM     95  H   UNL     1     146.606 172.334 193.267  0.00  0.00    +0.029 HD
ATOM     96  H   UNL     1     147.724 174.411 191.356  0.00  0.00    +0.030 HD
ATOM     97  H   UNL     1     146.684 173.033 190.954  0.00  0.00    +0.030 HD
ENDBRANCH  85  86
ENDBRANCH  83  85
ENDBRANCH  50  83
ENDBRANCH   1  50
TORSDOF 31
ENDMDL
MODEL 6
REMARK VINA RESULT:      -5.2      3.326      6.138
REMARK  Name = 2u_conf1
REMARK  31 active torsions:
REMARK  status: ('A' for Active; 'I' for Inactive)
REMARK    1  A    between atoms: C_2  and  C_3
REMARK    2  A    between atoms: C_2  and  O_8
REMARK    3  A    between atoms: O_8  and  C_9
REMARK    4  A    between atoms: C_9  and  C_10
REMARK    5  A    between atoms: C_9  and  C_29
REMARK    6  A    between atoms: C_10  and  C_11
REMARK    7  A    between atoms: C_11  and  C_12
REMARK    8  A    between atoms: C_12  and  C_13
REMARK    9  A    between atoms: C_12  and  C_14
REMARK   10  A    between atoms: C_14  and  O_15
REMARK   11  A    between atoms: C_14  and  C_17
REMARK   12  A    between atoms: O_15  and  C_16
REMARK   13  A    between atoms: C_17  and  C_18
REMARK   14  A    between atoms: C_18  and  O_19
REMARK   15  A    between atoms: C_18  and  C_26
REMARK   16  A    between atoms: O_19  and  C_20
REMARK   17  A    between atoms: C_20  and  C_21
REMARK   18  A    between atoms: C_21  and  C_22
REMARK   19  A    between atoms: C_22  and  C_23
REMARK   20  A    between atoms: C_23  and  N_24
REMARK   21  A    between atoms: C_26  and  C_27
REMARK   22  A    between atoms: C_26  and  C_28
REMARK   23  A    between atoms: C_29  and  C_30
REMARK   24  A    between atoms: C_29  and  C_31
REMARK   25  A    between atoms: C_31  and  O_32
REMARK   26  A    between atoms: C_31  and  C_34
REMARK   27  A    between atoms: O_32  and  C_33
REMARK   28  A    between atoms: C_34  and  C_35
REMARK   29  A    between atoms: C_34  and  C_36
REMARK   30  A    between atoms: C_37  and  N_38
REMARK   31  A    between atoms: N_38  and  C_39
REMARK                            x       y       z     vdW  Elec       q    Type
REMARK                         _______ _______ _______ _____ _____    ______ ____
ROOT
ATOM      1  C   UNL     1     148.759 169.717 190.815  0.00  0.00    -0.015 C 
ATOM      2  H   UNL     1     149.282 170.667 190.729  0.00  0.00    +0.030 HD
ATOM      3  H   UNL     1     149.106 169.119 189.965  0.00  0.00    +0.030 HD
ENDROOT
BRANCH   1   4
ATOM      4  C   UNL     1     149.226 169.069 192.130  0.00  0.00    -0.045 C 
ATOM      5  H   UNL     1     148.799 168.059 192.187  0.00  0.00    +0.027 HD
ATOM      6  H   UNL     1     148.781 169.622 192.967  0.00  0.00    +0.027 HD
BRANCH   4   7
ATOM      7  C   UNL     1     150.757 168.981 192.325  0.00  0.00    -0.017 C 
ATOM      8  H   UNL     1     150.974 169.125 193.390  0.00  0.00    +0.032 HD
BRANCH   7   9
ATOM      9  C   UNL     1     151.408 170.154 191.574  0.00  0.00    -0.060 C 
ATOM     10  H   UNL     1     150.725 171.011 191.537  0.00  0.00    +0.023 HD
ATOM     11  H   UNL     1     152.318 170.495 192.074  0.00  0.00    +0.023 HD
ATOM     12  H   UNL     1     151.660 169.885 190.543  0.00  0.00    +0.023 HD
ENDBRANCH   7   9
BRANCH   7  13
ATOM     13  C   UNL     1     151.336 167.605 191.895  0.00  0.00    +0.064 C 
ATOM     14  H   UNL     1     150.509 166.952 191.596  0.00  0.00    +0.060 HD
BRANCH  13  15
ATOM     15  C   UNL     1     152.096 166.928 193.052  0.00  0.00    +0.011 C 
ATOM     16  H   UNL     1     152.259 167.672 193.839  0.00  0.00    +0.033 HD
ATOM     17  H   UNL     1     153.069 166.571 192.700  0.00  0.00    +0.033 HD
BRANCH  15  18
ATOM     18  C   UNL     1     151.321 165.729 193.639  0.00  0.00    +0.108 C 
ATOM     19  H   UNL     1     152.031 164.908 193.801  0.00  0.00    +0.074 HD
BRANCH  18  20
ATOM     20  C   UNL     1     150.656 166.092 194.990  0.00  0.00    -0.009 C 
ATOM     21  H   UNL     1     151.067 167.055 195.323  0.00  0.00    +0.033 HD
BRANCH  20  22
ATOM     22  C   UNL     1     149.133 166.233 194.899  0.00  0.00    -0.059 C 
ATOM     23  H   UNL     1     148.650 166.043 195.865  0.00  0.00    +0.023 HD
ATOM     24  H   UNL     1     148.860 167.248 194.587  0.00  0.00    +0.023 HD
ATOM     25  H   UNL     1     148.711 165.542 194.164  0.00  0.00    +0.023 HD
ENDBRANCH  20  22
BRANCH  20  26
ATOM     26  C   UNL     1     151.005 165.071 196.076  0.00  0.00    -0.059 C 
ATOM     27  H   UNL     1     150.553 164.096 195.877  0.00  0.00    +0.023 HD
ATOM     28  H   UNL     1     152.091 164.937 196.149  0.00  0.00    +0.023 HD
ATOM     29  H   UNL     1     150.648 165.410 197.053  0.00  0.00    +0.023 HD
ENDBRANCH  20  26
ENDBRANCH  18  20
BRANCH  18  30
ATOM     30  O   UNL     1     150.320 165.365 192.661  0.00  0.00    -0.461 OA
BRANCH  30  31
ATOM     31  C   UNL     1     150.356 164.104 192.149  0.00  0.00    +0.307 C 
ATOM     32  O   UNL     1     151.363 163.511 191.788  0.00  0.00    -0.251 OA
BRANCH  31  33
ATOM     33  C   UNL     1     148.944 163.593 191.970  0.00  0.00    +0.046 C 
ATOM     34  H   UNL     1     148.598 163.114 192.893  0.00  0.00    +0.038 HD
ATOM     35  H   UNL     1     148.317 164.476 191.799  0.00  0.00    +0.038 HD
BRANCH  33  36
ATOM     36  C   UNL     1     148.800 162.630 190.791  0.00  0.00    -0.031 C 
ATOM     37  H   UNL     1     149.627 162.756 190.081  0.00  0.00    +0.028 HD
ATOM     38  H   UNL     1     147.881 162.884 190.248  0.00  0.00    +0.028 HD
BRANCH  36  39
ATOM     39  C   UNL     1     148.698 161.163 191.212  0.00  0.00    -0.006 C 
ATOM     40  H   UNL     1     148.107 160.613 190.471  0.00  0.00    +0.042 HD
ATOM     41  H   UNL     1     148.169 161.091 192.170  0.00  0.00    +0.042 HD
BRANCH  39  42
ATOM     42  N   UNL     1     150.004 160.537 191.347  0.00  0.00    -0.330 NA
ATOM     43  H   UNL     1     150.014 159.638 190.858  0.00  0.00    +0.118 HD
ATOM     44  H   UNL     1     150.188 160.332 192.329  0.00  0.00    +0.118 HD
ENDBRANCH  39  42
ENDBRANCH  36  39
ENDBRANCH  33  36
ENDBRANCH  31  33
ENDBRANCH  30  31
ENDBRANCH  18  30
ENDBRANCH  15  18
ENDBRANCH  13  15
BRANCH  13  45
ATOM     45  O   UNL     1     152.251 167.795 190.809  0.00  0.00    -0.379 OA
BRANCH  45  46
ATOM     46  C   UNL     1     152.855 166.594 190.353  0.00  0.00    +0.037 C 
ATOM     47  H   UNL     1     153.008 165.898 191.181  0.00  0.00    +0.052 HD
ATOM     48  H   UNL     1     152.245 166.124 189.576  0.00  0.00    +0.052 HD
ATOM     49  H   UNL     1     153.830 166.842 189.924  0.00  0.00    +0.052 HD
ENDBRANCH  45  46
ENDBRANCH  13  45
ENDBRANCH   7  13
ENDBRANCH   4   7
ENDBRANCH   1   4
BRANCH   1  50
ATOM     50  C   UNL     1     147.241 169.940 190.709  0.00  0.00    +0.108 C 
ATOM     51  H   UNL     1     146.857 169.774 191.726  0.00  0.00    +0.074 HD
BRANCH  50  52
ATOM     52  C   UNL     1     146.479 168.955 189.780  0.00  0.00    +0.020 C 
ATOM     53  H   UNL     1     146.031 169.624 189.030  0.00  0.00    +0.036 HD
BRANCH  52  54
ATOM     54  C   UNL     1     145.256 168.330 190.462  0.00  0.00    -0.057 C 
ATOM     55  H   UNL     1     144.723 169.061 191.076  0.00  0.00    +0.023 HD
ATOM     56  H   UNL     1     145.572 167.520 191.130  0.00  0.00    +0.023 HD
ATOM     57  H   UNL     1     144.546 167.905 189.750  0.00  0.00    +0.023 HD
ENDBRANCH  52  54
BRANCH  52  58
ATOM     58  C   UNL     1     147.324 167.968 188.912  0.00  0.00    +0.070 C 
ATOM     59  H   UNL     1     148.267 168.474 188.664  0.00  0.00    +0.061 HD
BRANCH  58  60
ATOM     60  C   UNL     1     147.722 166.552 189.444  0.00  0.00    +0.002 C 
ATOM     61  H   UNL     1     147.512 166.593 190.524  0.00  0.00    +0.037 HD
BRANCH  60  62
ATOM     62  C   UNL     1     149.224 166.261 189.376  0.00  0.00    -0.057 C 
ATOM     63  H   UNL     1     149.801 167.176 189.553  0.00  0.00    +0.024 HD
ATOM     64  H   UNL     1     149.516 165.889 188.389  0.00  0.00    +0.024 HD
ATOM     65  H   UNL     1     149.543 165.534 190.124  0.00  0.00    +0.024 HD
ENDBRANCH  60  62
BRANCH  60  66
ATOM     66  C   UNL     1     146.812 165.440 188.951  0.00  0.00    -0.065 C 
ATOM     67  C   UNL     1     145.921 164.738 189.669  0.00  0.00    -0.005 C 
ATOM     68  H   UNL     1     146.906 165.243 187.886  0.00  0.00    +0.059 HD
ATOM     69  H   UNL     1     145.798 164.948 190.729  0.00  0.00    +0.078 HD
BRANCH  67  70
ATOM     70  N   UNL     1     145.123 163.712 189.182  0.00  0.00    -0.284 N 
ATOM     71  C   UNL     1     143.769 163.922 188.939  0.00  0.00    +0.206 C 
ATOM     72  O   UNL     1     142.963 163.099 188.524  0.00  0.00    -0.279 OA
ATOM     73  H   UNL     1     143.448 164.954 189.164  0.00  0.00    +0.126 HD
BRANCH  70  74
ATOM     74  C   UNL     1     145.660 162.383 188.927  0.00  0.00    +0.007 C 
ATOM     75  H   UNL     1     146.748 162.354 189.042  0.00  0.00    +0.043 HD
ATOM     76  H   UNL     1     145.419 162.085 187.902  0.00  0.00    +0.043 HD
ATOM     77  H   UNL     1     145.225 161.673 189.640  0.00  0.00    +0.043 HD
ENDBRANCH  70  74
ENDBRANCH  67  70
ENDBRANCH  60  66
ENDBRANCH  58  60
BRANCH  58  78
ATOM     78  O   UNL     1     146.642 167.725 187.655  0.00  0.00    -0.379 OA
BRANCH  78  79
ATOM     79  C   UNL     1     146.829 168.748 186.683  0.00  0.00    +0.037 C 
ATOM     80  H   UNL     1     145.894 169.272 186.472  0.00  0.00    +0.052 HD
ATOM     81  H   UNL     1     147.168 168.276 185.756  0.00  0.00    +0.052 HD
ATOM     82  H   UNL     1     147.597 169.458 187.006  0.00  0.00    +0.052 HD
ENDBRANCH  78  79
ENDBRANCH  58  78
ENDBRANCH  52  58
ENDBRANCH  50  52
BRANCH  50  83
ATOM     83  O   UNL     1     146.980 171.307 190.332  0.00  0.00    -0.459 OA
BRANCH  83  85
ATOM     84  O   UNL     1     145.035 171.708 191.481  0.00  0.00    -0.248 OA
ATOM     85  C   UNL     1     146.175 172.026 191.172  0.00  0.00    +0.337 C 
BRANCH  85  86
ATOM     86  C   UNL     1     146.916 173.279 191.655  0.00  0.00    +0.155 C 
ATOM     87  O   UNL     1     148.271 173.322 191.182  0.00  0.00    -0.365 OA
ATOM     88  C   UNL     1     149.159 173.083 192.281  0.00  0.00    +0.049 C 
ATOM     89  C   UNL     1     148.308 172.619 193.442  0.00  0.00    -0.027 C 
ATOM     90  C   UNL     1     146.997 173.315 193.172  0.00  0.00    -0.014 C 
ATOM     91  H   UNL     1     146.392 174.152 191.250  0.00  0.00    +0.071 HD
ATOM     92  H   UNL     1     149.916 172.349 191.993  0.00  0.00    +0.056 HD
ATOM     93  H   UNL     1     149.662 174.028 192.516  0.00  0.00    +0.056 HD
ATOM     94  H   UNL     1     148.742 172.862 194.415  0.00  0.00    +0.029 HD
ATOM     95  H   UNL     1     148.171 171.532 193.394  0.00  0.00    +0.029 HD
ATOM     96  H   UNL     1     147.061 174.355 193.514  0.00  0.00    +0.030 HD
ATOM     97  H   UNL     1     146.158 172.840 193.687  0.00  0.00    +0.030 HD
ENDBRANCH  85  86
ENDBRANCH  83  85
ENDBRANCH  50  83
ENDBRANCH   1  50
TORSDOF 31
ENDMDL
MODEL 7
REMARK VINA RESULT:      -5.1      3.118      5.560
REMARK  Name = 2u_conf1
REMARK  31 active torsions:
REMARK  status: ('A' for Active; 'I' for Inactive)
REMARK    1  A    between atoms: C_2  and  C_3
REMARK    2  A    between atoms: C_2  and  O_8
REMARK    3  A    between atoms: O_8  and  C_9
REMARK    4  A    between atoms: C_9  and  C_10
REMARK    5  A    between atoms: C_9  and  C_29
REMARK    6  A    between atoms: C_10  and  C_11
REMARK    7  A    between atoms: C_11  and  C_12
REMARK    8  A    between atoms: C_12  and  C_13
REMARK    9  A    between atoms: C_12  and  C_14
REMARK   10  A    between atoms: C_14  and  O_15
REMARK   11  A    between atoms: C_14  and  C_17
REMARK   12  A    between atoms: O_15  and  C_16
REMARK   13  A    between atoms: C_17  and  C_18
REMARK   14  A    between atoms: C_18  and  O_19
REMARK   15  A    between atoms: C_18  and  C_26
REMARK   16  A    between atoms: O_19  and  C_20
REMARK   17  A    between atoms: C_20  and  C_21
REMARK   18  A    between atoms: C_21  and  C_22
REMARK   19  A    between atoms: C_22  and  C_23
REMARK   20  A    between atoms: C_23  and  N_24
REMARK   21  A    between atoms: C_26  and  C_27
REMARK   22  A    between atoms: C_26  and  C_28
REMARK   23  A    between atoms: C_29  and  C_30
REMARK   24  A    between atoms: C_29  and  C_31
REMARK   25  A    between atoms: C_31  and  O_32
REMARK   26  A    between atoms: C_31  and  C_34
REMARK   27  A    between atoms: O_32  and  C_33
REMARK   28  A    between atoms: C_34  and  C_35
REMARK   29  A    between atoms: C_34  and  C_36
REMARK   30  A    between atoms: C_37  and  N_38
REMARK   31  A    between atoms: N_38  and  C_39
REMARK                            x       y       z     vdW  Elec       q    Type
REMARK                         _______ _______ _______ _____ _____    ______ ____
ROOT
ATOM      1  C   UNL     1     148.551 168.444 191.286  0.00  0.00    -0.015 C 
ATOM      2  H   UNL     1     149.102 167.782 190.621  0.00  0.00    +0.030 HD
ATOM      3  H   UNL     1     148.049 167.782 192.001  0.00  0.00    +0.030 HD
ENDROOT
BRANCH   1   4
ATOM      4  C   UNL     1     149.592 169.307 192.021  0.00  0.00    -0.045 C 
ATOM      5  H   UNL     1     149.278 169.408 193.067  0.00  0.00    +0.027 HD
ATOM      6  H   UNL     1     149.557 170.321 191.605  0.00  0.00    +0.027 HD
BRANCH   4   7
ATOM      7  C   UNL     1     151.044 168.780 191.978  0.00  0.00    -0.017 C 
ATOM      8  H   UNL     1     151.261 168.299 192.939  0.00  0.00    +0.032 HD
BRANCH   7   9
ATOM      9  C   UNL     1     151.993 169.984 191.858  0.00  0.00    -0.060 C 
ATOM     10  H   UNL     1     151.859 170.482 190.890  0.00  0.00    +0.023 HD
ATOM     11  H   UNL     1     151.792 170.731 192.630  0.00  0.00    +0.023 HD
ATOM     12  H   UNL     1     153.042 169.681 191.934  0.00  0.00    +0.023 HD
ENDBRANCH   7   9
BRANCH   7  13
ATOM     13  C   UNL     1     151.267 167.733 190.852  0.00  0.00    +0.064 C 
ATOM     14  H   UNL     1     150.291 167.416 190.467  0.00  0.00    +0.060 HD
BRANCH  13  15
ATOM     15  C   UNL     1     152.007 166.488 191.378  0.00  0.00    +0.011 C 
ATOM     16  H   UNL     1     152.337 166.691 192.403  0.00  0.00    +0.033 HD
ATOM     17  H   UNL     1     152.890 166.291 190.760  0.00  0.00    +0.033 HD
BRANCH  15  18
ATOM     18  C   UNL     1     151.116 165.229 191.370  0.00  0.00    +0.108 C 
ATOM     19  H   UNL     1     150.130 165.509 190.981  0.00  0.00    +0.074 HD
BRANCH  18  20
ATOM     20  C   UNL     1     151.714 164.118 190.470  0.00  0.00    -0.009 C 
ATOM     21  H   UNL     1     151.875 163.227 191.092  0.00  0.00    +0.033 HD
BRANCH  20  22
ATOM     22  C   UNL     1     150.803 163.724 189.304  0.00  0.00    -0.059 C 
ATOM     23  H   UNL     1     151.186 162.848 188.768  0.00  0.00    +0.023 HD
ATOM     24  H   UNL     1     149.800 163.475 189.669  0.00  0.00    +0.023 HD
ATOM     25  H   UNL     1     150.694 164.543 188.587  0.00  0.00    +0.023 HD
ENDBRANCH  20  22
BRANCH  20  26
ATOM     26  C   UNL     1     153.087 164.523 189.925  0.00  0.00    -0.059 C 
ATOM     27  H   UNL     1     153.900 164.033 190.467  0.00  0.00    +0.023 HD
ATOM     28  H   UNL     1     153.176 164.264 188.863  0.00  0.00    +0.023 HD
ATOM     29  H   UNL     1     153.233 165.604 190.013  0.00  0.00    +0.023 HD
ENDBRANCH  20  26
ENDBRANCH  18  20
BRANCH  18  30
ATOM     30  O   UNL     1     151.025 164.778 192.741  0.00  0.00    -0.461 OA
BRANCH  30  31
ATOM     31  C   UNL     1     149.867 165.014 193.415  0.00  0.00    +0.307 C 
ATOM     32  O   UNL     1     148.769 164.560 193.126  0.00  0.00    -0.251 OA
BRANCH  31  33
ATOM     33  C   UNL     1     150.118 166.033 194.506  0.00  0.00    +0.046 C 
ATOM     34  H   UNL     1     150.131 167.042 194.081  0.00  0.00    +0.038 HD
ATOM     35  H   UNL     1     149.260 165.969 195.187  0.00  0.00    +0.038 HD
BRANCH  33  36
ATOM     36  C   UNL     1     151.408 165.772 195.285  0.00  0.00    -0.031 C 
ATOM     37  H   UNL     1     151.577 166.556 196.033  0.00  0.00    +0.028 HD
ATOM     38  H   UNL     1     152.250 165.821 194.584  0.00  0.00    +0.028 HD
BRANCH  36  39
ATOM     39  C   UNL     1     151.443 164.398 195.957  0.00  0.00    -0.006 C 
ATOM     40  H   UNL     1     152.396 164.278 196.486  0.00  0.00    +0.042 HD
ATOM     41  H   UNL     1     151.394 163.613 195.193  0.00  0.00    +0.042 HD
BRANCH  39  42
ATOM     42  N   UNL     1     150.347 164.215 196.894  0.00  0.00    -0.330 NA
ATOM     43  H   UNL     1     150.711 163.948 197.812  0.00  0.00    +0.118 HD
ATOM     44  H   UNL     1     149.755 163.444 196.585  0.00  0.00    +0.118 HD
ENDBRANCH  39  42
ENDBRANCH  36  39
ENDBRANCH  33  36
ENDBRANCH  31  33
ENDBRANCH  30  31
ENDBRANCH  18  30
ENDBRANCH  15  18
ENDBRANCH  13  15
BRANCH  13  45
ATOM     45  O   UNL     1     152.059 168.318 189.811  0.00  0.00    -0.379 OA
BRANCH  45  46
ATOM     46  C   UNL     1     152.052 167.575 188.601  0.00  0.00    +0.037 C 
ATOM     47  H   UNL     1     151.236 166.849 188.596  0.00  0.00    +0.052 HD
ATOM     48  H   UNL     1     151.968 168.241 187.738  0.00  0.00    +0.052 HD
ATOM     49  H   UNL     1     152.999 167.032 188.528  0.00  0.00    +0.052 HD
ENDBRANCH  45  46
ENDBRANCH  13  45
ENDBRANCH   7  13
ENDBRANCH   4   7
ENDBRANCH   1   4
BRANCH   1  50
ATOM     50  C   UNL     1     147.502 169.238 190.488  0.00  0.00    +0.108 C 
ATOM     51  H   UNL     1     146.553 169.067 191.017  0.00  0.00    +0.074 HD
BRANCH  50  52
ATOM     52  C   UNL     1     147.284 168.779 189.020  0.00  0.00    +0.020 C 
ATOM     53  H   UNL     1     148.246 169.019 188.544  0.00  0.00    +0.036 HD
BRANCH  52  54
ATOM     54  C   UNL     1     146.291 169.672 188.266  0.00  0.00    -0.057 C 
ATOM     55  H   UNL     1     145.258 169.361 188.444  0.00  0.00    +0.023 HD
ATOM     56  H   UNL     1     146.467 169.602 187.187  0.00  0.00    +0.023 HD
ATOM     57  H   UNL     1     146.378 170.726 188.540  0.00  0.00    +0.023 HD
ENDBRANCH  52  54
BRANCH  52  58
ATOM     58  C   UNL     1     147.128 167.248 188.749  0.00  0.00    +0.070 C 
ATOM     59  H   UNL     1     148.099 166.877 188.394  0.00  0.00    +0.061 HD
BRANCH  58  60
ATOM     60  C   UNL     1     146.677 166.263 189.877  0.00  0.00    +0.002 C 
ATOM     61  H   UNL     1     146.991 166.752 190.812  0.00  0.00    +0.037 HD
BRANCH  60  62
ATOM     62  C   UNL     1     147.440 164.936 189.886  0.00  0.00    -0.057 C 
ATOM     63  H   UNL     1     147.980 164.809 190.832  0.00  0.00    +0.024 HD
ATOM     64  H   UNL     1     148.188 164.898 189.088  0.00  0.00    +0.024 HD
ATOM     65  H   UNL     1     146.780 164.073 189.779  0.00  0.00    +0.024 HD
ENDBRANCH  60  62
BRANCH  60  66
ATOM     66  C   UNL     1     145.169 166.158 190.024  0.00  0.00    -0.065 C 
ATOM     67  C   UNL     1     144.442 166.356 191.135  0.00  0.00    -0.005 C 
ATOM     68  H   UNL     1     144.658 165.920 189.094  0.00  0.00    +0.059 HD
ATOM     69  H   UNL     1     144.941 166.624 192.064  0.00  0.00    +0.078 HD
BRANCH  67  70
ATOM     70  N   UNL     1     143.063 166.227 191.230  0.00  0.00    -0.284 N 
ATOM     71  C   UNL     1     142.403 166.541 192.414  0.00  0.00    +0.206 C 
ATOM     72  O   UNL     1     141.199 166.458 192.625  0.00  0.00    -0.279 OA
ATOM     73  H   UNL     1     143.086 166.894 193.206  0.00  0.00    +0.126 HD
BRANCH  70  74
ATOM     74  C   UNL     1     142.263 165.743 190.114  0.00  0.00    +0.007 C 
ATOM     75  H   UNL     1     141.977 164.695 190.242  0.00  0.00    +0.043 HD
ATOM     76  H   UNL     1     142.843 165.827 189.189  0.00  0.00    +0.043 HD
ATOM     77  H   UNL     1     141.346 166.339 190.041  0.00  0.00    +0.043 HD
ENDBRANCH  70  74
ENDBRANCH  67  70
ENDBRANCH  60  66
ENDBRANCH  58  60
BRANCH  58  78
ATOM     78  O   UNL     1     146.185 167.044 187.665  0.00  0.00    -0.379 OA
BRANCH  78  79
ATOM     79  C   UNL     1     146.740 166.398 186.524  0.00  0.00    +0.037 C 
ATOM     80  H   UNL     1     146.317 166.794 185.598  0.00  0.00    +0.052 HD
ATOM     81  H   UNL     1     146.491 165.334 186.582  0.00  0.00    +0.052 HD
ATOM     82  H   UNL     1     147.832 166.493 186.513  0.00  0.00    +0.052 HD
ENDBRANCH  78  79
ENDBRANCH  58  78
ENDBRANCH  52  58
ENDBRANCH  50  52
BRANCH  50  83
ATOM     83  O   UNL     1     147.818 170.644 190.545  0.00  0.00    -0.459 OA
BRANCH  83  85
ATOM     84  O   UNL     1     145.739 171.125 191.387  0.00  0.00    -0.248 OA
ATOM     85  C   UNL     1     146.895 171.449 191.154  0.00  0.00    +0.337 C 
BRANCH  85  86
ATOM     86  C   UNL     1     147.528 172.806 191.487  0.00  0.00    +0.155 C 
ATOM     87  O   UNL     1     148.963 172.746 191.491  0.00  0.00    -0.365 OA
ATOM     88  C   UNL     1     149.433 172.850 192.840  0.00  0.00    +0.049 C 
ATOM     89  C   UNL     1     148.225 172.713 193.740  0.00  0.00    -0.027 C 
ATOM     90  C   UNL     1     147.122 173.271 192.875  0.00  0.00    -0.014 C 
ATOM     91  H   UNL     1     147.225 173.515 190.709  0.00  0.00    +0.071 HD
ATOM     92  H   UNL     1     150.189 172.083 193.029  0.00  0.00    +0.056 HD
ATOM     93  H   UNL     1     149.899 173.835 192.957  0.00  0.00    +0.056 HD
ATOM     94  H   UNL     1     148.340 173.232 194.694  0.00  0.00    +0.029 HD
ATOM     95  H   UNL     1     148.034 171.654 193.950  0.00  0.00    +0.029 HD
ATOM     96  H   UNL     1     147.146 174.367 192.918  0.00  0.00    +0.030 HD
ATOM     97  H   UNL     1     146.131 172.942 193.197  0.00  0.00    +0.030 HD
ENDBRANCH  85  86
ENDBRANCH  83  85
ENDBRANCH  50  83
ENDBRANCH   1  50
TORSDOF 31
ENDMDL
MODEL 8
REMARK VINA RESULT:      -5.1      4.261      7.455
REMARK  Name = 2u_conf1
REMARK  31 active torsions:
REMARK  status: ('A' for Active; 'I' for Inactive)
REMARK    1  A    between atoms: C_2  and  C_3
REMARK    2  A    between atoms: C_2  and  O_8
REMARK    3  A    between atoms: O_8  and  C_9
REMARK    4  A    between atoms: C_9  and  C_10
REMARK    5  A    between atoms: C_9  and  C_29
REMARK    6  A    between atoms: C_10  and  C_11
REMARK    7  A    between atoms: C_11  and  C_12
REMARK    8  A    between atoms: C_12  and  C_13
REMARK    9  A    between atoms: C_12  and  C_14
REMARK   10  A    between atoms: C_14  and  O_15
REMARK   11  A    between atoms: C_14  and  C_17
REMARK   12  A    between atoms: O_15  and  C_16
REMARK   13  A    between atoms: C_17  and  C_18
REMARK   14  A    between atoms: C_18  and  O_19
REMARK   15  A    between atoms: C_18  and  C_26
REMARK   16  A    between atoms: O_19  and  C_20
REMARK   17  A    between atoms: C_20  and  C_21
REMARK   18  A    between atoms: C_21  and  C_22
REMARK   19  A    between atoms: C_22  and  C_23
REMARK   20  A    between atoms: C_23  and  N_24
REMARK   21  A    between atoms: C_26  and  C_27
REMARK   22  A    between atoms: C_26  and  C_28
REMARK   23  A    between atoms: C_29  and  C_30
REMARK   24  A    between atoms: C_29  and  C_31
REMARK   25  A    between atoms: C_31  and  O_32
REMARK   26  A    between atoms: C_31  and  C_34
REMARK   27  A    between atoms: O_32  and  C_33
REMARK   28  A    between atoms: C_34  and  C_35
REMARK   29  A    between atoms: C_34  and  C_36
REMARK   30  A    between atoms: C_37  and  N_38
REMARK   31  A    between atoms: N_38  and  C_39
REMARK                            x       y       z     vdW  Elec       q    Type
REMARK                         _______ _______ _______ _____ _____    ______ ____
ROOT
ATOM      1  C   UNL     1     150.715 165.825 189.838  0.00  0.00    -0.015 C 
ATOM      2  H   UNL     1     150.228 166.313 188.997  0.00  0.00    +0.030 HD
ATOM      3  H   UNL     1     150.879 164.790 189.516  0.00  0.00    +0.030 HD
ENDROOT
BRANCH   1   4
ATOM      4  C   UNL     1     152.070 166.527 190.038  0.00  0.00    -0.045 C 
ATOM      5  H   UNL     1     152.722 165.860 190.615  0.00  0.00    +0.027 HD
ATOM      6  H   UNL     1     151.914 167.407 190.674  0.00  0.00    +0.027 HD
BRANCH   4   7
ATOM      7  C   UNL     1     152.799 166.950 188.742  0.00  0.00    -0.017 C 
ATOM      8  H   UNL     1     153.325 167.892 188.938  0.00  0.00    +0.032 HD
BRANCH   7   9
ATOM      9  C   UNL     1     151.743 167.243 187.665  0.00  0.00    -0.060 C 
ATOM     10  H   UNL     1     150.734 167.092 188.067  0.00  0.00    +0.023 HD
ATOM     11  H   UNL     1     151.796 168.280 187.322  0.00  0.00    +0.023 HD
ATOM     12  H   UNL     1     151.857 166.586 186.796  0.00  0.00    +0.023 HD
ENDBRANCH   7   9
BRANCH   7  13
ATOM     13  C   UNL     1     153.847 165.900 188.277  0.00  0.00    +0.064 C 
ATOM     14  H   UNL     1     153.393 165.265 187.509  0.00  0.00    +0.060 HD
BRANCH  13  15
ATOM     15  C   UNL     1     154.301 165.002 189.444  0.00  0.00    +0.011 C 
ATOM     16  H   UNL     1     153.416 164.710 190.019  0.00  0.00    +0.033 HD
ATOM     17  H   UNL     1     154.977 165.560 190.101  0.00  0.00    +0.033 HD
BRANCH  15  18
ATOM     18  C   UNL     1     155.032 163.734 188.958  0.00  0.00    +0.108 C 
ATOM     19  H   UNL     1     155.005 163.722 187.861  0.00  0.00    +0.074 HD
BRANCH  18  20
ATOM     20  C   UNL     1     156.510 163.720 189.424  0.00  0.00    -0.009 C 
ATOM     21  H   UNL     1     156.671 164.593 190.070  0.00  0.00    +0.033 HD
BRANCH  20  22
ATOM     22  C   UNL     1     156.885 162.466 190.220  0.00  0.00    -0.059 C 
ATOM     23  H   UNL     1     156.645 162.575 191.284  0.00  0.00    +0.023 HD
ATOM     24  H   UNL     1     156.334 161.595 189.844  0.00  0.00    +0.023 HD
ATOM     25  H   UNL     1     157.951 162.239 190.130  0.00  0.00    +0.023 HD
ENDBRANCH  20  22
BRANCH  20  26
ATOM     26  C   UNL     1     157.469 163.872 188.240  0.00  0.00    -0.059 C 
ATOM     27  H   UNL     1     157.001 164.397 187.403  0.00  0.00    +0.023 HD
ATOM     28  H   UNL     1     158.367 164.428 188.535  0.00  0.00    +0.023 HD
ATOM     29  H   UNL     1     157.793 162.891 187.878  0.00  0.00    +0.023 HD
ENDBRANCH  20  26
ENDBRANCH  18  20
BRANCH  18  30
ATOM     30  O   UNL     1     154.315 162.606 189.509  0.00  0.00    -0.461 OA
BRANCH  30  31
ATOM     31  C   UNL     1     153.599 161.825 188.654  0.00  0.00    +0.307 C 
ATOM     32  O   UNL     1     152.847 162.231 187.779  0.00  0.00    -0.251 OA
BRANCH  31  33
ATOM     33  C   UNL     1     153.773 160.371 189.034  0.00  0.00    +0.046 C 
ATOM     34  H   UNL     1     154.214 159.815 188.200  0.00  0.00    +0.038 HD
ATOM     35  H   UNL     1     154.492 160.355 189.862  0.00  0.00    +0.038 HD
BRANCH  33  36
ATOM     36  C   UNL     1     152.468 159.708 189.479  0.00  0.00    -0.031 C 
ATOM     37  H   UNL     1     152.604 158.627 189.606  0.00  0.00    +0.028 HD
ATOM     38  H   UNL     1     151.725 159.839 188.683  0.00  0.00    +0.028 HD
BRANCH  36  39
ATOM     39  C   UNL     1     151.887 160.310 190.760  0.00  0.00    -0.006 C 
ATOM     40  H   UNL     1     151.674 161.373 190.596  0.00  0.00    +0.042 HD
ATOM     41  H   UNL     1     152.629 160.247 191.565  0.00  0.00    +0.042 HD
BRANCH  39  42
ATOM     42  N   UNL     1     150.672 159.634 191.183  0.00  0.00    -0.330 NA
ATOM     43  H   UNL     1     150.823 158.623 191.210  0.00  0.00    +0.118 HD
ATOM     44  H   UNL     1     149.932 159.796 190.500  0.00  0.00    +0.118 HD
ENDBRANCH  39  42
ENDBRANCH  36  39
ENDBRANCH  33  36
ENDBRANCH  31  33
ENDBRANCH  30  31
ENDBRANCH  18  30
ENDBRANCH  15  18
ENDBRANCH  13  15
BRANCH  13  45
ATOM     45  O   UNL     1     154.998 166.578 187.760  0.00  0.00    -0.379 OA
BRANCH  45  46
ATOM     46  C   UNL     1     155.174 166.420 186.360  0.00  0.00    +0.037 C 
ATOM     47  H   UNL     1     154.258 166.680 185.822  0.00  0.00    +0.052 HD
ATOM     48  H   UNL     1     156.006 167.033 186.002  0.00  0.00    +0.052 HD
ATOM     49  H   UNL     1     155.406 165.370 186.160  0.00  0.00    +0.052 HD
ENDBRANCH  45  46
ENDBRANCH  13  45
ENDBRANCH   7  13
ENDBRANCH   4   7
ENDBRANCH   1   4
BRANCH   1  50
ATOM     50  C   UNL     1     149.791 165.846 191.068  0.00  0.00    +0.108 C 
ATOM     51  H   UNL     1     149.159 164.953 190.964  0.00  0.00    +0.074 HD
BRANCH  50  52
ATOM     52  C   UNL     1     148.829 167.063 191.165  0.00  0.00    +0.020 C 
ATOM     53  H   UNL     1     147.908 166.615 191.566  0.00  0.00    +0.036 HD
BRANCH  52  54
ATOM     54  C   UNL     1     148.393 167.579 189.789  0.00  0.00    -0.057 C 
ATOM     55  H   UNL     1     147.681 168.404 189.878  0.00  0.00    +0.023 HD
ATOM     56  H   UNL     1     147.891 166.781 189.229  0.00  0.00    +0.023 HD
ATOM     57  H   UNL     1     149.232 167.923 189.181  0.00  0.00    +0.023 HD
ENDBRANCH  52  54
BRANCH  52  58
ATOM     58  C   UNL     1     149.163 168.177 192.210  0.00  0.00    +0.070 C 
ATOM     59  H   UNL     1     149.976 167.798 192.844  0.00  0.00    +0.061 HD
BRANCH  58  60
ATOM     60  C   UNL     1     149.600 169.610 191.760  0.00  0.00    +0.002 C 
ATOM     61  H   UNL     1     149.310 169.667 190.699  0.00  0.00    +0.037 HD
BRANCH  60  62
ATOM     62  C   UNL     1     151.116 169.819 191.734  0.00  0.00    -0.057 C 
ATOM     63  H   UNL     1     151.462 169.994 190.710  0.00  0.00    +0.024 HD
ATOM     64  H   UNL     1     151.649 168.936 192.101  0.00  0.00    +0.024 HD
ATOM     65  H   UNL     1     151.430 170.680 192.327  0.00  0.00    +0.024 HD
ENDBRANCH  60  62
BRANCH  60  66
ATOM     66  C   UNL     1     148.791 170.721 192.406  0.00  0.00    -0.065 C 
ATOM     67  C   UNL     1     147.926 171.555 191.807  0.00  0.00    -0.005 C 
ATOM     68  H   UNL     1     148.940 170.797 193.480  0.00  0.00    +0.059 HD
ATOM     69  H   UNL     1     147.748 171.467 190.737  0.00  0.00    +0.078 HD
BRANCH  67  70
ATOM     70  N   UNL     1     147.223 172.575 192.434  0.00  0.00    -0.284 N 
ATOM     71  C   UNL     1     147.710 173.156 193.601  0.00  0.00    +0.206 C 
ATOM     72  O   UNL     1     147.179 174.049 194.250  0.00  0.00    -0.279 OA
ATOM     73  H   UNL     1     148.673 172.726 193.926  0.00  0.00    +0.126 HD
BRANCH  70  74
ATOM     74  C   UNL     1     145.953 173.058 191.912  0.00  0.00    +0.007 C 
ATOM     75  H   UNL     1     145.544 172.388 191.149  0.00  0.00    +0.043 HD
ATOM     76  H   UNL     1     146.099 174.043 191.457  0.00  0.00    +0.043 HD
ATOM     77  H   UNL     1     145.227 173.123 192.731  0.00  0.00    +0.043 HD
ENDBRANCH  70  74
ENDBRANCH  67  70
ENDBRANCH  60  66
ENDBRANCH  58  60
BRANCH  58  78
ATOM     78  O   UNL     1     148.020 168.382 193.079  0.00  0.00    -0.379 OA
BRANCH  78  79
ATOM     79  C   UNL     1     147.641 167.230 193.824  0.00  0.00    +0.037 C 
ATOM     80  H   UNL     1     146.857 166.666 193.313  0.00  0.00    +0.052 HD
ATOM     81  H   UNL     1     147.243 167.564 194.786  0.00  0.00    +0.052 HD
ATOM     82  H   UNL     1     148.506 166.586 194.016  0.00  0.00    +0.052 HD
ENDBRANCH  78  79
ENDBRANCH  58  78
ENDBRANCH  52  58
ENDBRANCH  50  52
BRANCH  50  83
ATOM     83  O   UNL     1     150.582 165.720 192.266  0.00  0.00    -0.459 OA
BRANCH  83  85
ATOM     84  O   UNL     1     149.162 164.097 193.053  0.00  0.00    -0.248 OA
ATOM     85  C   UNL     1     150.188 164.756 193.154  0.00  0.00    +0.337 C 
BRANCH  85  86
ATOM     86  C   UNL     1     151.218 164.638 194.284  0.00  0.00    +0.155 C 
ATOM     87  O   UNL     1     150.708 163.903 195.407  0.00  0.00    -0.365 OA
ATOM     88  C   UNL     1     150.481 164.807 196.494  0.00  0.00    +0.049 C 
ATOM     89  C   UNL     1     150.616 166.207 195.940  0.00  0.00    -0.027 C 
ATOM     90  C   UNL     1     151.603 166.008 194.816  0.00  0.00    -0.014 C 
ATOM     91  H   UNL     1     152.082 164.092 193.890  0.00  0.00    +0.071 HD
ATOM     92  H   UNL     1     149.496 164.621 196.932  0.00  0.00    +0.056 HD
ATOM     93  H   UNL     1     151.243 164.611 197.257  0.00  0.00    +0.056 HD
ATOM     94  H   UNL     1     150.943 166.934 196.688  0.00  0.00    +0.029 HD
ATOM     95  H   UNL     1     149.654 166.545 195.536  0.00  0.00    +0.029 HD
ATOM     96  H   UNL     1     152.619 165.972 195.228  0.00  0.00    +0.030 HD
ATOM     97  H   UNL     1     151.565 166.814 194.079  0.00  0.00    +0.030 HD
ENDBRANCH  85  86
ENDBRANCH  83  85
ENDBRANCH  50  83
ENDBRANCH   1  50
TORSDOF 31
ENDMDL
MODEL 9
REMARK VINA RESULT:      -5.1      3.088      6.167
REMARK  Name = 2u_conf1
REMARK  31 active torsions:
REMARK  status: ('A' for Active; 'I' for Inactive)
REMARK    1  A    between atoms: C_2  and  C_3
REMARK    2  A    between atoms: C_2  and  O_8
REMARK    3  A    between atoms: O_8  and  C_9
REMARK    4  A    between atoms: C_9  and  C_10
REMARK    5  A    between atoms: C_9  and  C_29
REMARK    6  A    between atoms: C_10  and  C_11
REMARK    7  A    between atoms: C_11  and  C_12
REMARK    8  A    between atoms: C_12  and  C_13
REMARK    9  A    between atoms: C_12  and  C_14
REMARK   10  A    between atoms: C_14  and  O_15
REMARK   11  A    between atoms: C_14  and  C_17
REMARK   12  A    between atoms: O_15  and  C_16
REMARK   13  A    between atoms: C_17  and  C_18
REMARK   14  A    between atoms: C_18  and  O_19
REMARK   15  A    between atoms: C_18  and  C_26
REMARK   16  A    between atoms: O_19  and  C_20
REMARK   17  A    between atoms: C_20  and  C_21
REMARK   18  A    between atoms: C_21  and  C_22
REMARK   19  A    between atoms: C_22  and  C_23
REMARK   20  A    between atoms: C_23  and  N_24
REMARK   21  A    between atoms: C_26  and  C_27
REMARK   22  A    between atoms: C_26  and  C_28
REMARK   23  A    between atoms: C_29  and  C_30
REMARK   24  A    between atoms: C_29  and  C_31
REMARK   25  A    between atoms: C_31  and  O_32
REMARK   26  A    between atoms: C_31  and  C_34
REMARK   27  A    between atoms: O_32  and  C_33
REMARK   28  A    between atoms: C_34  and  C_35
REMARK   29  A    between atoms: C_34  and  C_36
REMARK   30  A    between atoms: C_37  and  N_38
REMARK   31  A    between atoms: N_38  and  C_39
REMARK                            x       y       z     vdW  Elec       q    Type
REMARK                         _______ _______ _______ _____ _____    ______ ____
ROOT
ATOM      1  C   UNL     1     148.639 169.124 192.376  0.00  0.00    -0.015 C 
ATOM      2  H   UNL     1     148.464 168.458 193.218  0.00  0.00    +0.030 HD
ATOM      3  H   UNL     1     148.941 170.079 192.822  0.00  0.00    +0.030 HD
ENDROOT
BRANCH   1   4
ATOM      4  C   UNL     1     149.812 168.533 191.574  0.00  0.00    -0.045 C 
ATOM      5  H   UNL     1     149.768 168.933 190.554  0.00  0.00    +0.027 HD
ATOM      6  H   UNL     1     149.652 167.452 191.471  0.00  0.00    +0.027 HD
BRANCH   4   7
ATOM      7  C   UNL     1     151.219 168.793 192.160  0.00  0.00    -0.017 C 
ATOM      8  H   UNL     1     151.117 168.931 193.243  0.00  0.00    +0.032 HD
BRANCH   7   9
ATOM      9  C   UNL     1     151.743 170.120 191.588  0.00  0.00    -0.060 C 
ATOM     10  H   UNL     1     152.705 170.381 192.046  0.00  0.00    +0.023 HD
ATOM     11  H   UNL     1     151.912 170.054 190.510  0.00  0.00    +0.023 HD
ATOM     12  H   UNL     1     151.049 170.945 191.779  0.00  0.00    +0.023 HD
ENDBRANCH   7   9
BRANCH   7  13
ATOM     13  C   UNL     1     152.197 167.611 191.913  0.00  0.00    +0.064 C 
ATOM     14  H   UNL     1     153.056 167.978 191.341  0.00  0.00    +0.060 HD
BRANCH  13  15
ATOM     15  C   UNL     1     151.524 166.482 191.107  0.00  0.00    +0.011 C 
ATOM     16  H   UNL     1     150.452 166.695 191.045  0.00  0.00    +0.033 HD
ATOM     17  H   UNL     1     151.663 165.525 191.621  0.00  0.00    +0.033 HD
BRANCH  15  18
ATOM     18  C   UNL     1     152.101 166.357 189.681  0.00  0.00    +0.108 C 
ATOM     19  H   UNL     1     152.095 167.352 189.220  0.00  0.00    +0.074 HD
BRANCH  18  20
ATOM     20  C   UNL     1     153.555 165.822 189.704  0.00  0.00    -0.009 C 
ATOM     21  H   UNL     1     153.963 165.991 190.711  0.00  0.00    +0.033 HD
BRANCH  20  22
ATOM     22  C   UNL     1     153.657 164.325 189.397  0.00  0.00    -0.059 C 
ATOM     23  H   UNL     1     153.169 163.718 190.169  0.00  0.00    +0.023 HD
ATOM     24  H   UNL     1     153.172 164.096 188.441  0.00  0.00    +0.023 HD
ATOM     25  H   UNL     1     154.699 164.003 189.318  0.00  0.00    +0.023 HD
ENDBRANCH  20  22
BRANCH  20  26
ATOM     26  C   UNL     1     154.450 166.599 188.735  0.00  0.00    -0.059 C 
ATOM     27  H   UNL     1     155.255 165.976 188.337  0.00  0.00    +0.023 HD
ATOM     28  H   UNL     1     153.866 166.987 187.893  0.00  0.00    +0.023 HD
ATOM     29  H   UNL     1     154.911 167.455 189.239  0.00  0.00    +0.023 HD
ENDBRANCH  20  26
ENDBRANCH  18  20
BRANCH  18  30
ATOM     30  O   UNL     1     151.236 165.446 188.964  0.00  0.00    -0.461 OA
BRANCH  30  31
ATOM     31  C   UNL     1     150.178 165.970 188.288  0.00  0.00    +0.307 C 
ATOM     32  O   UNL     1     150.143 167.075 187.765  0.00  0.00    -0.251 OA
BRANCH  31  33
ATOM     33  C   UNL     1     148.997 165.030 188.392  0.00  0.00    +0.046 C 
ATOM     34  H   UNL     1     148.184 165.375 187.745  0.00  0.00    +0.038 HD
ATOM     35  H   UNL     1     149.341 164.062 188.006  0.00  0.00    +0.038 HD
BRANCH  33  36
ATOM     36  C   UNL     1     148.494 164.856 189.826  0.00  0.00    -0.031 C 
ATOM     37  H   UNL     1     147.435 165.133 189.904  0.00  0.00    +0.028 HD
ATOM     38  H   UNL     1     149.047 165.549 190.473  0.00  0.00    +0.028 HD
BRANCH  36  39
ATOM     39  C   UNL     1     148.701 163.444 190.375  0.00  0.00    -0.006 C 
ATOM     40  H   UNL     1     148.333 162.713 189.645  0.00  0.00    +0.042 HD
ATOM     41  H   UNL     1     148.111 163.315 191.291  0.00  0.00    +0.042 HD
BRANCH  39  42
ATOM     42  N   UNL     1     150.097 163.167 190.671  0.00  0.00    -0.330 NA
ATOM     43  H   UNL     1     150.239 163.120 191.683  0.00  0.00    +0.118 HD
ATOM     44  H   UNL     1     150.679 163.934 190.335  0.00  0.00    +0.118 HD
ENDBRANCH  39  42
ENDBRANCH  36  39
ENDBRANCH  33  36
ENDBRANCH  31  33
ENDBRANCH  30  31
ENDBRANCH  18  30
ENDBRANCH  15  18
ENDBRANCH  13  15
BRANCH  13  45
ATOM     45  O   UNL     1     152.617 167.073 193.172  0.00  0.00    -0.379 OA
BRANCH  45  46
ATOM     46  C   UNL     1     153.838 167.619 193.649  0.00  0.00    +0.037 C 
ATOM     47  H   UNL     1     153.703 168.065 194.637  0.00  0.00    +0.052 HD
ATOM     48  H   UNL     1     154.617 166.853 193.685  0.00  0.00    +0.052 HD
ATOM     49  H   UNL     1     154.156 168.402 192.955  0.00  0.00    +0.052 HD
ENDBRANCH  45  46
ENDBRANCH  13  45
ENDBRANCH   7  13
ENDBRANCH   4   7
ENDBRANCH   1   4
BRANCH   1  50
ATOM     50  C   UNL     1     147.340 169.313 191.574  0.00  0.00    +0.108 C 
ATOM     51  H   UNL     1     146.552 169.425 192.332  0.00  0.00    +0.074 HD
BRANCH  50  52
ATOM     52  C   UNL     1     146.926 168.117 190.673  0.00  0.00    +0.020 C 
ATOM     53  H   UNL     1     147.691 167.361 190.903  0.00  0.00    +0.036 HD
BRANCH  52  54
ATOM     54  C   UNL     1     147.152 168.397 189.183  0.00  0.00    -0.057 C 
ATOM     55  H   UNL     1     146.230 168.276 188.608  0.00  0.00    +0.023 HD
ATOM     56  H   UNL     1     147.881 167.689 188.773  0.00  0.00    +0.023 HD
ATOM     57  H   UNL     1     147.536 169.402 188.995  0.00  0.00    +0.023 HD
ENDBRANCH  52  54
BRANCH  52  58
ATOM     58  C   UNL     1     145.590 167.378 191.008  0.00  0.00    +0.070 C 
ATOM     59  H   UNL     1     145.249 166.884 190.088  0.00  0.00    +0.061 HD
BRANCH  58  60
ATOM     60  C   UNL     1     145.519 166.293 192.132  0.00  0.00    +0.002 C 
ATOM     61  H   UNL     1     145.335 165.349 191.594  0.00  0.00    +0.037 HD
BRANCH  60  62
ATOM     62  C   UNL     1     144.304 166.428 193.053  0.00  0.00    -0.057 C 
ATOM     63  H   UNL     1     143.641 167.227 192.700  0.00  0.00    +0.024 HD
ATOM     64  H   UNL     1     144.601 166.693 194.072  0.00  0.00    +0.024 HD
ATOM     65  H   UNL     1     143.707 165.516 193.096  0.00  0.00    +0.024 HD
ENDBRANCH  60  62
BRANCH  60  66
ATOM     66  C   UNL     1     146.849 166.049 192.825  0.00  0.00    -0.065 C 
ATOM     67  C   UNL     1     147.141 166.245 194.120  0.00  0.00    -0.005 C 
ATOM     68  H   UNL     1     147.613 165.645 192.166  0.00  0.00    +0.059 HD
ATOM     69  H   UNL     1     146.374 166.622 194.794  0.00  0.00    +0.078 HD
BRANCH  67  70
ATOM     70  N   UNL     1     148.380 166.030 194.708  0.00  0.00    -0.284 N 
ATOM     71  C   UNL     1     148.579 166.301 196.059  0.00  0.00    +0.206 C 
ATOM     72  O   UNL     1     149.621 166.165 196.686  0.00  0.00    -0.279 OA
ATOM     73  H   UNL     1     147.669 166.674 196.561  0.00  0.00    +0.126 HD
BRANCH  70  74
ATOM     74  C   UNL     1     149.514 165.538 193.940  0.00  0.00    +0.007 C 
ATOM     75  H   UNL     1     149.554 165.983 192.941  0.00  0.00    +0.043 HD
ATOM     76  H   UNL     1     149.430 164.452 193.825  0.00  0.00    +0.043 HD
ATOM     77  H   UNL     1     150.443 165.792 194.462  0.00  0.00    +0.043 HD
ENDBRANCH  70  74
ENDBRANCH  67  70
ENDBRANCH  60  66
ENDBRANCH  58  60
BRANCH  58  78
ATOM     78  O   UNL     1     144.573 168.353 191.355  0.00  0.00    -0.379 OA
BRANCH  78  79
ATOM     79  C   UNL     1     143.686 168.674 190.289  0.00  0.00    +0.037 C 
ATOM     80  H   UNL     1     144.100 169.457 189.650  0.00  0.00    +0.052 HD
ATOM     81  H   UNL     1     142.756 169.051 190.724  0.00  0.00    +0.052 HD
ATOM     82  H   UNL     1     143.450 167.785 189.695  0.00  0.00    +0.052 HD
ENDBRANCH  78  79
ENDBRANCH  58  78
ENDBRANCH  52  58
ENDBRANCH  50  52
BRANCH  50  83
ATOM     83  O   UNL     1     147.422 170.530 190.805  0.00  0.00    -0.459 OA
BRANCH  83  85
ATOM     84  O   UNL     1     145.422 171.499 191.378  0.00  0.00    -0.248 OA
ATOM     85  C   UNL     1     146.634 171.567 191.225  0.00  0.00    +0.337 C 
BRANCH  85  86
ATOM     86  C   UNL     1     147.498 172.812 191.464  0.00  0.00    +0.155 C 
ATOM     87  O   UNL     1     148.901 172.510 191.439  0.00  0.00    -0.365 OA
ATOM     88  C   UNL     1     149.424 172.604 192.769  0.00  0.00    +0.049 C 
ATOM     89  C   UNL     1     148.240 172.723 193.702  0.00  0.00    -0.027 C 
ATOM     90  C   UNL     1     147.220 173.414 192.831  0.00  0.00    -0.014 C 
ATOM     91  H   UNL     1     147.293 173.519 190.653  0.00  0.00    +0.071 HD
ATOM     92  H   UNL     1     150.046 171.731 192.986  0.00  0.00    +0.056 HD
ATOM     93  H   UNL     1     150.054 173.500 192.817  0.00  0.00    +0.056 HD
ATOM     94  H   UNL     1     148.472 173.266 194.622  0.00  0.00    +0.029 HD
ATOM     95  H   UNL     1     147.880 171.725 193.978  0.00  0.00    +0.029 HD
ATOM     96  H   UNL     1     147.430 174.490 192.810  0.00  0.00    +0.030 HD
ATOM     97  H   UNL     1     146.199 173.275 193.194  0.00  0.00    +0.030 HD
ENDBRANCH  85  86
ENDBRANCH  83  85
ENDBRANCH  50  83
ENDBRANCH   1  50
TORSDOF 31
ENDMDL
MODEL 10
REMARK VINA RESULT:      -5.1      3.036      6.055
REMARK  Name = 2u_conf1
REMARK  31 active torsions:
REMARK  status: ('A' for Active; 'I' for Inactive)
REMARK    1  A    between atoms: C_2  and  C_3
REMARK    2  A    between atoms: C_2  and  O_8
REMARK    3  A    between atoms: O_8  and  C_9
REMARK    4  A    between atoms: C_9  and  C_10
REMARK    5  A    between atoms: C_9  and  C_29
REMARK    6  A    between atoms: C_10  and  C_11
REMARK    7  A    between atoms: C_11  and  C_12
REMARK    8  A    between atoms: C_12  and  C_13
REMARK    9  A    between atoms: C_12  and  C_14
REMARK   10  A    between atoms: C_14  and  O_15
REMARK   11  A    between atoms: C_14  and  C_17
REMARK   12  A    between atoms: O_15  and  C_16
REMARK   13  A    between atoms: C_17  and  C_18
REMARK   14  A    between atoms: C_18  and  O_19
REMARK   15  A    between atoms: C_18  and  C_26
REMARK   16  A    between atoms: O_19  and  C_20
REMARK   17  A    between atoms: C_20  and  C_21
REMARK   18  A    between atoms: C_21  and  C_22
REMARK   19  A    between atoms: C_22  and  C_23
REMARK   20  A    between atoms: C_23  and  N_24
REMARK   21  A    between atoms: C_26  and  C_27
REMARK   22  A    between atoms: C_26  and  C_28
REMARK   23  A    between atoms: C_29  and  C_30
REMARK   24  A    between atoms: C_29  and  C_31
REMARK   25  A    between atoms: C_31  and  O_32
REMARK   26  A    between atoms: C_31  and  C_34
REMARK   27  A    between atoms: O_32  and  C_33
REMARK   28  A    between atoms: C_34  and  C_35
REMARK   29  A    between atoms: C_34  and  C_36
REMARK   30  A    between atoms: C_37  and  N_38
REMARK   31  A    between atoms: N_38  and  C_39
REMARK                            x       y       z     vdW  Elec       q    Type
REMARK                         _______ _______ _______ _____ _____    ______ ____
ROOT
ATOM      1  C   UNL     1     148.603 169.228 192.213  0.00  0.00    -0.015 C 
ATOM      2  H   UNL     1     148.440 168.546 193.044  0.00  0.00    +0.030 HD
ATOM      3  H   UNL     1     148.934 170.167 192.672  0.00  0.00    +0.030 HD
ENDROOT
BRANCH   1   4
ATOM      4  C   UNL     1     149.742 168.635 191.365  0.00  0.00    -0.045 C 
ATOM      5  H   UNL     1     149.684 169.068 190.359  0.00  0.00    +0.027 HD
ATOM      6  H   UNL     1     149.554 167.563 191.233  0.00  0.00    +0.027 HD
BRANCH   4   7
ATOM      7  C   UNL     1     151.168 168.845 191.924  0.00  0.00    -0.017 C 
ATOM      8  H   UNL     1     151.141 168.666 193.005  0.00  0.00    +0.032 HD
BRANCH   7   9
ATOM      9  C   UNL     1     151.554 170.319 191.725  0.00  0.00    -0.060 C 
ATOM     10  H   UNL     1     152.528 170.526 192.186  0.00  0.00    +0.023 HD
ATOM     11  H   UNL     1     151.644 170.572 190.666  0.00  0.00    +0.023 HD
ATOM     12  H   UNL     1     150.821 170.994 192.180  0.00  0.00    +0.023 HD
ENDBRANCH   7   9
BRANCH   7  13
ATOM     13  C   UNL     1     152.204 167.869 191.299  0.00  0.00    +0.064 C 
ATOM     14  H   UNL     1     153.082 168.443 190.982  0.00  0.00    +0.060 HD
BRANCH  13  15
ATOM     15  C   UNL     1     151.626 167.148 190.065  0.00  0.00    +0.011 C 
ATOM     16  H   UNL     1     151.796 167.779 189.186  0.00  0.00    +0.033 HD
ATOM     17  H   UNL     1     150.547 167.006 190.190  0.00  0.00    +0.033 HD
BRANCH  15  18
ATOM     18  C   UNL     1     152.276 165.768 189.836  0.00  0.00    +0.108 C 
ATOM     19  H   UNL     1     153.019 165.603 190.625  0.00  0.00    +0.074 HD
BRANCH  18  20
ATOM     20  C   UNL     1     151.223 164.631 189.890  0.00  0.00    -0.009 C 
ATOM     21  H   UNL     1     151.285 164.066 188.950  0.00  0.00    +0.033 HD
BRANCH  20  22
ATOM     22  C   UNL     1     151.445 163.653 191.047  0.00  0.00    -0.059 C 
ATOM     23  H   UNL     1     152.385 163.100 190.936  0.00  0.00    +0.023 HD
ATOM     24  H   UNL     1     151.488 164.191 192.001  0.00  0.00    +0.023 HD
ATOM     25  H   UNL     1     150.629 162.928 191.120  0.00  0.00    +0.023 HD
ENDBRANCH  20  22
BRANCH  20  26
ATOM     26  C   UNL     1     149.801 165.193 189.968  0.00  0.00    -0.059 C 
ATOM     27  H   UNL     1     149.130 164.525 190.515  0.00  0.00    +0.023 HD
ATOM     28  H   UNL     1     149.795 166.170 190.466  0.00  0.00    +0.023 HD
ATOM     29  H   UNL     1     149.386 165.332 188.965  0.00  0.00    +0.023 HD
ENDBRANCH  20  26
ENDBRANCH  18  20
BRANCH  18  30
ATOM     30  O   UNL     1     152.903 165.818 188.534  0.00  0.00    -0.461 OA
BRANCH  30  31
ATOM     31  C   UNL     1     153.958 166.661 188.365  0.00  0.00    +0.307 C 
ATOM     32  O   UNL     1     154.028 167.556 187.535  0.00  0.00    -0.251 OA
BRANCH  31  33
ATOM     33  C   UNL     1     155.090 166.240 189.276  0.00  0.00    +0.046 C 
ATOM     34  H   UNL     1     155.679 167.115 189.572  0.00  0.00    +0.038 HD
ATOM     35  H   UNL     1     154.620 165.834 190.181  0.00  0.00    +0.038 HD
BRANCH  33  36
ATOM     36  C   UNL     1     155.997 165.179 188.654  0.00  0.00    -0.031 C 
ATOM     37  H   UNL     1     157.053 165.464 188.748  0.00  0.00    +0.028 HD
ATOM     38  H   UNL     1     155.782 165.127 187.579  0.00  0.00    +0.028 HD
BRANCH  36  39
ATOM     39  C   UNL     1     155.785 163.781 189.237  0.00  0.00    -0.006 C 
ATOM     40  H   UNL     1     155.763 163.844 190.331  0.00  0.00    +0.042 HD
ATOM     41  H   UNL     1     156.630 163.136 188.965  0.00  0.00    +0.042 HD
BRANCH  39  42
ATOM     42  N   UNL     1     154.554 163.168 188.765  0.00  0.00    -0.330 NA
ATOM     43  H   UNL     1     154.767 162.401 188.122  0.00  0.00    +0.118 HD
ATOM     44  H   UNL     1     154.014 163.848 188.231  0.00  0.00    +0.118 HD
ENDBRANCH  39  42
ENDBRANCH  36  39
ENDBRANCH  33  36
ENDBRANCH  31  33
ENDBRANCH  30  31
ENDBRANCH  18  30
ENDBRANCH  15  18
ENDBRANCH  13  15
BRANCH  13  45
ATOM     45  O   UNL     1     152.566 166.879 192.268  0.00  0.00    -0.379 OA
BRANCH  45  46
ATOM     46  C   UNL     1     153.216 167.410 193.413  0.00  0.00    +0.037 C 
ATOM     47  H   UNL     1     152.674 167.146 194.324  0.00  0.00    +0.052 HD
ATOM     48  H   UNL     1     154.248 167.053 193.473  0.00  0.00    +0.052 HD
ATOM     49  H   UNL     1     153.232 168.500 193.322  0.00  0.00    +0.052 HD
ENDBRANCH  45  46
ENDBRANCH  13  45
ENDBRANCH   7  13
ENDBRANCH   4   7
ENDBRANCH   1   4
BRANCH   1  50
ATOM     50  C   UNL     1     147.286 169.458 191.453  0.00  0.00    +0.108 C 
ATOM     51  H   UNL     1     146.514 169.522 192.234  0.00  0.00    +0.074 HD
BRANCH  50  52
ATOM     52  C   UNL     1     146.854 168.315 190.493  0.00  0.00    +0.020 C 
ATOM     53  H   UNL     1     147.605 167.535 190.689  0.00  0.00    +0.036 HD
BRANCH  52  54
ATOM     54  C   UNL     1     147.093 168.664 189.019  0.00  0.00    -0.057 C 
ATOM     55  H   UNL     1     146.171 168.587 188.435  0.00  0.00    +0.023 HD
ATOM     56  H   UNL     1     147.811 167.963 188.578  0.00  0.00    +0.023 HD
ATOM     57  H   UNL     1     147.496 169.670 188.882  0.00  0.00    +0.023 HD
ENDBRANCH  52  54
BRANCH  52  58
ATOM     58  C   UNL     1     145.504 167.585 190.786  0.00  0.00    +0.070 C 
ATOM     59  H   UNL     1     145.142 167.171 189.835  0.00  0.00    +0.061 HD
BRANCH  58  60
ATOM     60  C   UNL     1     145.417 166.418 191.824  0.00  0.00    +0.002 C 
ATOM     61  H   UNL     1     145.247 165.517 191.214  0.00  0.00    +0.037 HD
BRANCH  60  62
ATOM     62  C   UNL     1     144.185 166.482 192.731  0.00  0.00    -0.057 C 
ATOM     63  H   UNL     1     143.526 167.302 192.426  0.00  0.00    +0.024 HD
ATOM     64  H   UNL     1     144.463 166.670 193.772  0.00  0.00    +0.024 HD
ATOM     65  H   UNL     1     143.591 165.567 192.694  0.00  0.00    +0.024 HD
ENDBRANCH  60  62
BRANCH  60  66
ATOM     66  C   UNL     1     146.735 166.127 192.521  0.00  0.00    -0.065 C 
ATOM     67  C   UNL     1     147.019 166.277 193.824  0.00  0.00    -0.005 C 
ATOM     68  H   UNL     1     147.498 165.729 191.856  0.00  0.00    +0.059 HD
ATOM     69  H   UNL     1     146.253 166.646 194.503  0.00  0.00    +0.078 HD
BRANCH  67  70
ATOM     70  N   UNL     1     148.248 166.019 194.416  0.00  0.00    -0.284 N 
ATOM     71  C   UNL     1     149.316 165.552 193.656  0.00  0.00    +0.206 C 
ATOM     72  O   UNL     1     150.438 165.278 194.062  0.00  0.00    -0.279 OA
ATOM     73  H   UNL     1     149.065 165.437 192.587  0.00  0.00    +0.126 HD
BRANCH  70  74
ATOM     74  C   UNL     1     148.460 166.204 195.844  0.00  0.00    +0.007 C 
ATOM     75  H   UNL     1     147.594 165.881 196.431  0.00  0.00    +0.043 HD
ATOM     76  H   UNL     1     148.634 167.265 196.050  0.00  0.00    +0.043 HD
ATOM     77  H   UNL     1     149.325 165.611 196.162  0.00  0.00    +0.043 HD
ENDBRANCH  70  74
ENDBRANCH  67  70
ENDBRANCH  60  66
ENDBRANCH  58  60
BRANCH  58  78
ATOM     78  O   UNL     1     144.515 168.554 191.219  0.00  0.00    -0.379 OA
BRANCH  78  79
ATOM     79  C   UNL     1     143.601 168.948 190.201  0.00  0.00    +0.037 C 
ATOM     80  H   UNL     1     144.008 169.758 189.593  0.00  0.00    +0.052 HD
ATOM     81  H   UNL     1     142.691 169.314 190.686  0.00  0.00    +0.052 HD
ATOM     82  H   UNL     1     143.331 168.096 189.567  0.00  0.00    +0.052 HD
ENDBRANCH  78  79
ENDBRANCH  58  78
ENDBRANCH  52  58
ENDBRANCH  50  52
BRANCH  50  83
ATOM     83  O   UNL     1     147.346 170.719 190.755  0.00  0.00    -0.459 OA
BRANCH  83  85
ATOM     84  O   UNL     1     145.355 171.635 191.436  0.00  0.00    -0.248 OA
ATOM     85  C   UNL     1     146.561 171.724 191.250  0.00  0.00    +0.337 C 
BRANCH  85  86
ATOM     86  C   UNL     1     147.419 172.966 191.523  0.00  0.00    +0.155 C 
ATOM     87  O   UNL     1     148.823 172.666 191.519  0.00  0.00    -0.365 OA
ATOM     88  C   UNL     1     149.322 172.740 192.859  0.00  0.00    +0.049 C 
ATOM     89  C   UNL     1     148.122 172.843 193.773  0.00  0.00    -0.027 C 
ATOM     90  C   UNL     1     147.116 173.546 192.895  0.00  0.00    -0.014 C 
ATOM     91  H   UNL     1     147.227 173.686 190.720  0.00  0.00    +0.071 HD
ATOM     92  H   UNL     1     149.941 171.864 193.073  0.00  0.00    +0.056 HD
ATOM     93  H   UNL     1     149.950 173.636 192.932  0.00  0.00    +0.056 HD
ATOM     94  H   UNL     1     148.337 173.371 194.705  0.00  0.00    +0.029 HD
ATOM     95  H   UNL     1     147.758 171.840 194.027  0.00  0.00    +0.029 HD
ATOM     96  H   UNL     1     147.325 174.623 192.894  0.00  0.00    +0.030 HD
ATOM     97  H   UNL     1     146.089 173.401 193.238  0.00  0.00    +0.030 HD
ENDBRANCH  85  86
ENDBRANCH  83  85
ENDBRANCH  50  83
ENDBRANCH   1  50
TORSDOF 31
ENDMDL
