MODEL 1
REMARK VINA RESULT:      -5.1      0.000      0.000
REMARK  Name = 2u_conf3
REMARK  31 active torsions:
REMARK  status: ('A' for Active; 'I' for Inactive)
REMARK    1  A    between atoms: C_2  and  C_3
REMARK    2  A    between atoms: C_2  and  O_8
REMARK    3  A    between atoms: O_8  and  C_9
REMARK    4  A    between atoms: C_9  and  C_10
REMARK    5  A    between atoms: C_9  and  C_29
REMARK    6  A    between atoms: C_10  and  C_11
REMARK    7  A    between atoms: C_11  and  C_12
REMARK    8  A    between atoms: C_12  and  C_13
REMARK    9  A    between atoms: C_12  and  C_14
REMARK   10  A    between atoms: C_14  and  O_15
REMARK   11  A    between atoms: C_14  and  C_17
REMARK   12  A    between atoms: O_15  and  C_16
REMARK   13  A    between atoms: C_17  and  C_18
REMARK   14  A    between atoms: C_18  and  O_19
REMARK   15  A    between atoms: C_18  and  C_26
REMARK   16  A    between atoms: O_19  and  C_20
REMARK   17  A    between atoms: C_20  and  C_21
REMARK   18  A    between atoms: C_21  and  C_22
REMARK   19  A    between atoms: C_22  and  C_23
REMARK   20  A    between atoms: C_23  and  N_24
REMARK   21  A    between atoms: C_26  and  C_27
REMARK   22  A    between atoms: C_26  and  C_28
REMARK   23  A    between atoms: C_29  and  C_30
REMARK   24  A    between atoms: C_29  and  C_31
REMARK   25  A    between atoms: C_31  and  O_32
REMARK   26  A    between atoms: C_31  and  C_34
REMARK   27  A    between atoms: O_32  and  C_33
REMARK   28  A    between atoms: C_34  and  C_35
REMARK   29  A    between atoms: C_34  and  C_36
REMARK   30  A    between atoms: C_37  and  N_38
REMARK   31  A    between atoms: N_38  and  C_39
REMARK                            x       y       z     vdW  Elec       q    Type
REMARK                         _______ _______ _______ _____ _____    ______ ____
ROOT
ATOM      1  C   UNL     1     148.069 169.955 191.936  0.00  0.00    -0.015 C 
ATOM      2  H   UNL     1     147.725 169.043 192.426  0.00  0.00    +0.030 HD
ATOM      3  H   UNL     1     148.141 170.745 192.686  0.00  0.00    +0.030 HD
ENDROOT
BRANCH   1   4
ATOM      4  C   UNL     1     149.471 169.709 191.349  0.00  0.00    -0.045 C 
ATOM      5  H   UNL     1     149.837 170.661 190.943  0.00  0.00    +0.027 HD
ATOM      6  H   UNL     1     149.417 169.033 190.492  0.00  0.00    +0.027 HD
BRANCH   4   7
ATOM      7  C   UNL     1     150.509 169.173 192.357  0.00  0.00    -0.017 C 
ATOM      8  H   UNL     1     150.144 169.416 193.363  0.00  0.00    +0.032 HD
BRANCH   7   9
ATOM      9  C   UNL     1     151.817 169.953 192.134  0.00  0.00    -0.060 C 
ATOM     10  H   UNL     1     151.980 170.690 192.928  0.00  0.00    +0.023 HD
ATOM     11  H   UNL     1     152.676 169.274 192.123  0.00  0.00    +0.023 HD
ATOM     12  H   UNL     1     151.816 170.476 191.174  0.00  0.00    +0.023 HD
ENDBRANCH   7   9
BRANCH   7  13
ATOM     13  C   UNL     1     150.736 167.636 192.287  0.00  0.00    +0.064 C 
ATOM     14  H   UNL     1     150.314 167.252 191.351  0.00  0.00    +0.060 HD
BRANCH  13  15
ATOM     15  C   UNL     1     150.033 166.924 193.470  0.00  0.00    +0.011 C 
ATOM     16  H   UNL     1     149.033 166.609 193.147  0.00  0.00    +0.033 HD
ATOM     17  H   UNL     1     149.896 167.641 194.287  0.00  0.00    +0.033 HD
BRANCH  15  18
ATOM     18  C   UNL     1     150.808 165.697 193.994  0.00  0.00    +0.108 C 
ATOM     19  H   UNL     1     151.784 165.614 193.501  0.00  0.00    +0.074 HD
BRANCH  18  20
ATOM     20  C   UNL     1     151.051 165.634 195.524  0.00  0.00    -0.009 C 
ATOM     21  H   UNL     1     151.936 166.259 195.721  0.00  0.00    +0.033 HD
BRANCH  20  22
ATOM     22  C   UNL     1     149.898 166.219 196.346  0.00  0.00    -0.059 C 
ATOM     23  H   UNL     1     149.550 165.521 197.114  0.00  0.00    +0.023 HD
ATOM     24  H   UNL     1     149.055 166.488 195.700  0.00  0.00    +0.023 HD
ATOM     25  H   UNL     1     150.222 167.135 196.854  0.00  0.00    +0.023 HD
ENDBRANCH  20  22
BRANCH  20  26
ATOM     26  C   UNL     1     151.401 164.227 196.032  0.00  0.00    -0.059 C 
ATOM     27  H   UNL     1     151.105 164.120 197.083  0.00  0.00    +0.023 HD
ATOM     28  H   UNL     1     152.480 164.033 195.975  0.00  0.00    +0.023 HD
ATOM     29  H   UNL     1     150.883 163.444 195.464  0.00  0.00    +0.023 HD
ENDBRANCH  20  26
ENDBRANCH  18  20
BRANCH  18  30
ATOM     30  O   UNL     1     150.016 164.521 193.681  0.00  0.00    -0.461 OA
BRANCH  30  31
ATOM     31  C   UNL     1     150.188 163.962 192.450  0.00  0.00    +0.307 C 
ATOM     32  O   UNL     1     151.255 163.840 191.867  0.00  0.00    -0.251 OA
BRANCH  31  33
ATOM     33  C   UNL     1     148.843 163.559 191.888  0.00  0.00    +0.046 C 
ATOM     34  H   UNL     1     148.289 162.966 192.630  0.00  0.00    +0.038 HD
ATOM     35  H   UNL     1     148.279 164.482 191.707  0.00  0.00    +0.038 HD
BRANCH  33  36
ATOM     36  C   UNL     1     148.974 162.761 190.591  0.00  0.00    -0.031 C 
ATOM     37  H   UNL     1     150.024 162.726 190.267  0.00  0.00    +0.028 HD
ATOM     38  H   UNL     1     148.410 163.289 189.804  0.00  0.00    +0.028 HD
BRANCH  36  39
ATOM     39  C   UNL     1     148.424 161.344 190.740  0.00  0.00    -0.006 C 
ATOM     40  H   UNL     1     148.289 160.886 189.754  0.00  0.00    +0.042 HD
ATOM     41  H   UNL     1     147.448 161.351 191.236  0.00  0.00    +0.042 HD
BRANCH  39  42
ATOM     42  N   UNL     1     149.350 160.527 191.513  0.00  0.00    -0.330 NA
ATOM     43  H   UNL     1     148.837 159.785 191.979  0.00  0.00    +0.118 HD
ATOM     44  H   UNL     1     149.791 161.090 192.244  0.00  0.00    +0.118 HD
ENDBRANCH  39  42
ENDBRANCH  36  39
ENDBRANCH  33  36
ENDBRANCH  31  33
ENDBRANCH  30  31
ENDBRANCH  18  30
ENDBRANCH  15  18
ENDBRANCH  13  15
BRANCH  13  45
ATOM     45  O   UNL     1     152.132 167.342 192.389  0.00  0.00    -0.379 OA
BRANCH  45  46
ATOM     46  C   UNL     1     152.710 166.826 191.199  0.00  0.00    +0.037 C 
ATOM     47  H   UNL     1     152.352 167.430 190.361  0.00  0.00    +0.052 HD
ATOM     48  H   UNL     1     152.398 165.792 191.033  0.00  0.00    +0.052 HD
ATOM     49  H   UNL     1     153.805 166.901 191.229  0.00  0.00    +0.052 HD
ENDBRANCH  45  46
ENDBRANCH  13  45
ENDBRANCH   7  13
ENDBRANCH   4   7
ENDBRANCH   1   4
BRANCH   1  50
ATOM     50  C   UNL     1     147.067 170.347 190.829  0.00  0.00    +0.108 C 
ATOM     51  H   UNL     1     146.083 170.466 191.306  0.00  0.00    +0.074 HD
BRANCH  50  52
ATOM     52  C   UNL     1     146.928 169.310 189.669  0.00  0.00    +0.020 C 
ATOM     53  H   UNL     1     147.927 168.877 189.541  0.00  0.00    +0.036 HD
BRANCH  52  54
ATOM     54  C   UNL     1     146.573 170.043 188.366  0.00  0.00    -0.057 C 
ATOM     55  H   UNL     1     147.360 170.754 188.081  0.00  0.00    +0.023 HD
ATOM     56  H   UNL     1     145.648 170.619 188.475  0.00  0.00    +0.023 HD
ATOM     57  H   UNL     1     146.443 169.344 187.535  0.00  0.00    +0.023 HD
ENDBRANCH  52  54
BRANCH  52  58
ATOM     58  C   UNL     1     145.962 168.120 189.968  0.00  0.00    +0.070 C 
ATOM     59  H   UNL     1     145.380 167.922 189.058  0.00  0.00    +0.061 HD
BRANCH  58  60
ATOM     60  C   UNL     1     146.699 166.788 190.341  0.00  0.00    +0.002 C 
ATOM     61  H   UNL     1     146.119 165.973 189.888  0.00  0.00    +0.037 HD
BRANCH  60  62
ATOM     62  C   UNL     1     146.682 166.511 191.849  0.00  0.00    -0.057 C 
ATOM     63  H   UNL     1     147.640 166.759 192.320  0.00  0.00    +0.024 HD
ATOM     64  H   UNL     1     145.895 167.093 192.341  0.00  0.00    +0.024 HD
ATOM     65  H   UNL     1     146.492 165.449 192.046  0.00  0.00    +0.024 HD
ENDBRANCH  60  62
BRANCH  60  66
ATOM     66  C   UNL     1     148.120 166.632 189.822  0.00  0.00    -0.065 C 
ATOM     67  C   UNL     1     148.450 166.154 188.612  0.00  0.00    -0.005 C 
ATOM     68  H   UNL     1     148.883 166.971 190.521  0.00  0.00    +0.059 HD
ATOM     69  H   UNL     1     147.648 165.836 187.939  0.00  0.00    +0.078 HD
BRANCH  67  70
ATOM     70  N   UNL     1     149.717 166.039 188.070  0.00  0.00    -0.284 N 
ATOM     71  C   UNL     1     150.725 165.206 188.544  0.00  0.00    +0.206 C 
ATOM     72  O   UNL     1     151.871 165.141 188.107  0.00  0.00    -0.279 OA
ATOM     73  H   UNL     1     150.423 164.570 189.393  0.00  0.00    +0.126 HD
BRANCH  70  74
ATOM     74  C   UNL     1     150.021 166.896 186.927  0.00  0.00    +0.007 C 
ATOM     75  H   UNL     1     150.681 167.708 187.261  0.00  0.00    +0.043 HD
ATOM     76  H   UNL     1     149.085 167.322 186.543  0.00  0.00    +0.043 HD
ATOM     77  H   UNL     1     150.507 166.349 186.115  0.00  0.00    +0.043 HD
ENDBRANCH  70  74
ENDBRANCH  67  70
ENDBRANCH  60  66
ENDBRANCH  58  60
BRANCH  58  78
ATOM     78  O   UNL     1     145.080 168.485 191.042  0.00  0.00    -0.379 OA
BRANCH  78  79
ATOM     79  C   UNL     1     143.711 168.572 190.659  0.00  0.00    +0.037 C 
ATOM     80  H   UNL     1     143.521 169.507 190.123  0.00  0.00    +0.052 HD
ATOM     81  H   UNL     1     143.422 167.720 190.039  0.00  0.00    +0.052 HD
ATOM     82  H   UNL     1     143.102 168.558 191.567  0.00  0.00    +0.052 HD
ENDBRANCH  78  79
ENDBRANCH  58  78
ENDBRANCH  52  58
ENDBRANCH  50  52
BRANCH  50  83
ATOM     83  O   UNL     1     147.495 171.633 190.344  0.00  0.00    -0.459 OA
BRANCH  83  85
ATOM     84  O   UNL     1     145.591 172.918 190.255  0.00  0.00    -0.248 OA
ATOM     85  C   UNL     1     146.725 172.711 190.668  0.00  0.00    +0.337 C 
BRANCH  85  86
ATOM     86  C   UNL     1     147.444 173.612 191.681  0.00  0.00    +0.155 C 
ATOM     87  O   UNL     1     148.877 173.464 191.742  0.00  0.00    -0.365 OA
ATOM     88  C   UNL     1     149.237 173.008 193.054  0.00  0.00    +0.049 C 
ATOM     89  C   UNL     1     148.127 173.501 193.961  0.00  0.00    -0.027 C 
ATOM     90  C   UNL     1     146.913 173.315 193.085  0.00  0.00    -0.014 C 
ATOM     91  H   UNL     1     147.251 174.651 191.388  0.00  0.00    +0.071 HD
ATOM     92  H   UNL     1     150.215 173.415 193.324  0.00  0.00    +0.056 HD
ATOM     93  H   UNL     1     149.296 171.914 193.045  0.00  0.00    +0.056 HD
ATOM     94  H   UNL     1     148.261 174.565 194.181  0.00  0.00    +0.029 HD
ATOM     95  H   UNL     1     148.078 172.948 194.905  0.00  0.00    +0.029 HD
ATOM     96  H   UNL     1     146.549 172.279 193.167  0.00  0.00    +0.030 HD
ATOM     97  H   UNL     1     146.082 173.976 193.362  0.00  0.00    +0.030 HD
ENDBRANCH  85  86
ENDBRANCH  83  85
ENDBRANCH  50  83
ENDBRANCH   1  50
TORSDOF 31
ENDMDL
MODEL 2
REMARK VINA RESULT:      -5.0      1.828      3.800
REMARK  Name = 2u_conf3
REMARK  31 active torsions:
REMARK  status: ('A' for Active; 'I' for Inactive)
REMARK    1  A    between atoms: C_2  and  C_3
REMARK    2  A    between atoms: C_2  and  O_8
REMARK    3  A    between atoms: O_8  and  C_9
REMARK    4  A    between atoms: C_9  and  C_10
REMARK    5  A    between atoms: C_9  and  C_29
REMARK    6  A    between atoms: C_10  and  C_11
REMARK    7  A    between atoms: C_11  and  C_12
REMARK    8  A    between atoms: C_12  and  C_13
REMARK    9  A    between atoms: C_12  and  C_14
REMARK   10  A    between atoms: C_14  and  O_15
REMARK   11  A    between atoms: C_14  and  C_17
REMARK   12  A    between atoms: O_15  and  C_16
REMARK   13  A    between atoms: C_17  and  C_18
REMARK   14  A    between atoms: C_18  and  O_19
REMARK   15  A    between atoms: C_18  and  C_26
REMARK   16  A    between atoms: O_19  and  C_20
REMARK   17  A    between atoms: C_20  and  C_21
REMARK   18  A    between atoms: C_21  and  C_22
REMARK   19  A    between atoms: C_22  and  C_23
REMARK   20  A    between atoms: C_23  and  N_24
REMARK   21  A    between atoms: C_26  and  C_27
REMARK   22  A    between atoms: C_26  and  C_28
REMARK   23  A    between atoms: C_29  and  C_30
REMARK   24  A    between atoms: C_29  and  C_31
REMARK   25  A    between atoms: C_31  and  O_32
REMARK   26  A    between atoms: C_31  and  C_34
REMARK   27  A    between atoms: O_32  and  C_33
REMARK   28  A    between atoms: C_34  and  C_35
REMARK   29  A    between atoms: C_34  and  C_36
REMARK   30  A    between atoms: C_37  and  N_38
REMARK   31  A    between atoms: N_38  and  C_39
REMARK                            x       y       z     vdW  Elec       q    Type
REMARK                         _______ _______ _______ _____ _____    ______ ____
ROOT
ATOM      1  C   UNL     1     148.525 169.741 191.970  0.00  0.00    -0.015 C 
ATOM      2  H   UNL     1     148.096 169.193 192.811  0.00  0.00    +0.030 HD
ATOM      3  H   UNL     1     148.941 170.679 192.344  0.00  0.00    +0.030 HD
ENDROOT
BRANCH   1   4
ATOM      4  C   UNL     1     149.667 168.907 191.362  0.00  0.00    -0.045 C 
ATOM      5  H   UNL     1     149.851 169.281 190.346  0.00  0.00    +0.027 HD
ATOM      6  H   UNL     1     149.360 167.866 191.234  0.00  0.00    +0.027 HD
BRANCH   4   7
ATOM      7  C   UNL     1     150.993 168.954 192.150  0.00  0.00    -0.017 C 
ATOM      8  H   UNL     1     150.741 168.909 193.217  0.00  0.00    +0.032 HD
BRANCH   7   9
ATOM      9  C   UNL     1     151.645 170.322 191.881  0.00  0.00    -0.060 C 
ATOM     10  H   UNL     1     150.953 170.998 191.368  0.00  0.00    +0.023 HD
ATOM     11  H   UNL     1     151.948 170.798 192.819  0.00  0.00    +0.023 HD
ATOM     12  H   UNL     1     152.547 170.226 191.270  0.00  0.00    +0.023 HD
ENDBRANCH   7   9
BRANCH   7  13
ATOM     13  C   UNL     1     151.967 167.782 191.837  0.00  0.00    +0.064 C 
ATOM     14  H   UNL     1     152.707 168.116 191.100  0.00  0.00    +0.060 HD
BRANCH  13  15
ATOM     15  C   UNL     1     151.198 166.574 191.246  0.00  0.00    +0.011 C 
ATOM     16  H   UNL     1     150.159 166.874 191.058  0.00  0.00    +0.033 HD
ATOM     17  H   UNL     1     151.170 165.770 191.990  0.00  0.00    +0.033 HD
BRANCH  15  18
ATOM     18  C   UNL     1     151.815 166.035 189.939  0.00  0.00    +0.108 C 
ATOM     19  H   UNL     1     151.035 165.821 189.199  0.00  0.00    +0.074 HD
BRANCH  18  20
ATOM     20  C   UNL     1     152.876 166.934 189.253  0.00  0.00    -0.009 C 
ATOM     21  H   UNL     1     152.854 167.897 189.787  0.00  0.00    +0.033 HD
BRANCH  20  22
ATOM     22  C   UNL     1     154.302 166.389 189.370  0.00  0.00    -0.059 C 
ATOM     23  H   UNL     1     154.679 166.451 190.397  0.00  0.00    +0.023 HD
ATOM     24  H   UNL     1     154.984 166.934 188.707  0.00  0.00    +0.023 HD
ATOM     25  H   UNL     1     154.331 165.335 189.070  0.00  0.00    +0.023 HD
ENDBRANCH  20  22
BRANCH  20  26
ATOM     26  C   UNL     1     152.552 167.254 187.785  0.00  0.00    -0.059 C 
ATOM     27  H   UNL     1     153.285 167.963 187.383  0.00  0.00    +0.023 HD
ATOM     28  H   UNL     1     151.560 167.714 187.680  0.00  0.00    +0.023 HD
ATOM     29  H   UNL     1     152.581 166.358 187.153  0.00  0.00    +0.023 HD
ENDBRANCH  20  26
ENDBRANCH  18  20
BRANCH  18  30
ATOM     30  O   UNL     1     152.510 164.802 190.266  0.00  0.00    -0.461 OA
BRANCH  30  31
ATOM     31  C   UNL     1     152.085 163.664 189.649  0.00  0.00    +0.307 C 
ATOM     32  O   UNL     1     152.325 163.350 188.493  0.00  0.00    -0.251 OA
BRANCH  31  33
ATOM     33  C   UNL     1     151.224 162.865 190.602  0.00  0.00    +0.046 C 
ATOM     34  H   UNL     1     151.372 161.789 190.428  0.00  0.00    +0.038 HD
ATOM     35  H   UNL     1     151.570 163.092 191.617  0.00  0.00    +0.038 HD
BRANCH  33  36
ATOM     36  C   UNL     1     149.740 163.206 190.465  0.00  0.00    -0.031 C 
ATOM     37  H   UNL     1     149.291 162.634 189.640  0.00  0.00    +0.028 HD
ATOM     38  H   UNL     1     149.656 164.273 190.203  0.00  0.00    +0.028 HD
BRANCH  36  39
ATOM     39  C   UNL     1     148.977 162.943 191.762  0.00  0.00    -0.006 C 
ATOM     40  H   UNL     1     148.914 161.865 191.951  0.00  0.00    +0.042 HD
ATOM     41  H   UNL     1     147.954 163.327 191.701  0.00  0.00    +0.042 HD
BRANCH  39  42
ATOM     42  N   UNL     1     149.663 163.575 192.882  0.00  0.00    -0.330 NA
ATOM     43  H   UNL     1     150.645 163.320 192.863  0.00  0.00    +0.118 HD
ATOM     44  H   UNL     1     149.282 163.230 193.766  0.00  0.00    +0.118 HD
ENDBRANCH  39  42
ENDBRANCH  36  39
ENDBRANCH  33  36
ENDBRANCH  31  33
ENDBRANCH  30  31
ENDBRANCH  18  30
ENDBRANCH  15  18
ENDBRANCH  13  15
BRANCH  13  45
ATOM     45  O   UNL     1     152.595 167.333 193.040  0.00  0.00    -0.379 OA
BRANCH  45  46
ATOM     46  C   UNL     1     151.799 166.456 193.823  0.00  0.00    +0.037 C 
ATOM     47  H   UNL     1     151.740 165.497 193.302  0.00  0.00    +0.052 HD
ATOM     48  H   UNL     1     150.784 166.848 193.935  0.00  0.00    +0.052 HD
ATOM     49  H   UNL     1     152.257 166.281 194.806  0.00  0.00    +0.052 HD
ENDBRANCH  45  46
ENDBRANCH  13  45
ENDBRANCH   7  13
ENDBRANCH   4   7
ENDBRANCH   1   4
BRANCH   1  50
ATOM     50  C   UNL     1     147.422 170.013 190.925  0.00  0.00    +0.108 C 
ATOM     51  H   UNL     1     146.466 170.070 191.467  0.00  0.00    +0.074 HD
BRANCH  50  52
ATOM     52  C   UNL     1     147.289 168.927 189.810  0.00  0.00    +0.020 C 
ATOM     53  H   UNL     1     148.282 168.469 189.726  0.00  0.00    +0.036 HD
BRANCH  52  54
ATOM     54  C   UNL     1     146.980 169.608 188.467  0.00  0.00    -0.057 C 
ATOM     55  H   UNL     1     145.972 170.043 188.463  0.00  0.00    +0.023 HD
ATOM     56  H   UNL     1     147.020 168.890 187.641  0.00  0.00    +0.023 HD
ATOM     57  H   UNL     1     147.688 170.413 188.254  0.00  0.00    +0.023 HD
ENDBRANCH  52  54
BRANCH  52  58
ATOM     58  C   UNL     1     146.292 167.771 190.138  0.00  0.00    +0.070 C 
ATOM     59  H   UNL     1     145.737 167.534 189.220  0.00  0.00    +0.061 HD
BRANCH  58  60
ATOM     60  C   UNL     1     146.992 166.449 190.606  0.00  0.00    +0.002 C 
ATOM     61  H   UNL     1     148.071 166.606 190.482  0.00  0.00    +0.037 HD
BRANCH  60  62
ATOM     62  C   UNL     1     146.647 165.254 189.708  0.00  0.00    -0.057 C 
ATOM     63  H   UNL     1     146.177 165.570 188.771  0.00  0.00    +0.024 HD
ATOM     64  H   UNL     1     147.547 164.679 189.466  0.00  0.00    +0.024 HD
ATOM     65  H   UNL     1     145.941 164.582 190.212  0.00  0.00    +0.024 HD
ENDBRANCH  60  62
BRANCH  60  66
ATOM     66  C   UNL     1     146.788 166.054 192.061  0.00  0.00    -0.065 C 
ATOM     67  C   UNL     1     147.624 166.360 193.065  0.00  0.00    -0.005 C 
ATOM     68  H   UNL     1     145.868 165.501 192.242  0.00  0.00    +0.059 HD
ATOM     69  H   UNL     1     148.532 166.926 192.837  0.00  0.00    +0.078 HD
BRANCH  67  70
ATOM     70  N   UNL     1     147.464 166.072 194.408  0.00  0.00    -0.284 N 
ATOM     71  C   UNL     1     148.411 166.301 195.401  0.00  0.00    +0.206 C 
ATOM     72  O   UNL     1     148.301 165.994 196.586  0.00  0.00    -0.279 OA
ATOM     73  H   UNL     1     149.329 166.797 195.045  0.00  0.00    +0.126 HD
BRANCH  70  74
ATOM     74  C   UNL     1     146.205 165.444 194.798  0.00  0.00    +0.007 C 
ATOM     75  H   UNL     1     146.275 164.365 194.606  0.00  0.00    +0.043 HD
ATOM     76  H   UNL     1     145.393 165.870 194.195  0.00  0.00    +0.043 HD
ATOM     77  H   UNL     1     145.968 165.606 195.853  0.00  0.00    +0.043 HD
ENDBRANCH  70  74
ENDBRANCH  67  70
ENDBRANCH  60  66
ENDBRANCH  58  60
BRANCH  58  78
ATOM     78  O   UNL     1     145.381 168.207 191.160  0.00  0.00    -0.379 OA
BRANCH  78  79
ATOM     79  C   UNL     1     144.027 168.291 190.727  0.00  0.00    +0.037 C 
ATOM     80  H   UNL     1     143.671 169.325 190.778  0.00  0.00    +0.052 HD
ATOM     81  H   UNL     1     143.915 167.907 189.710  0.00  0.00    +0.052 HD
ATOM     82  H   UNL     1     143.418 167.677 191.395  0.00  0.00    +0.052 HD
ENDBRANCH  78  79
ENDBRANCH  58  78
ENDBRANCH  52  58
ENDBRANCH  50  52
BRANCH  50  83
ATOM     83  O   UNL     1     147.710 171.310 190.373  0.00  0.00    -0.459 OA
BRANCH  83  85
ATOM     84  O   UNL     1     145.666 172.353 190.237  0.00  0.00    -0.248 OA
ATOM     85  C   UNL     1     146.823 172.312 190.636  0.00  0.00    +0.337 C 
BRANCH  85  86
ATOM     86  C   UNL     1     147.446 173.366 191.562  0.00  0.00    +0.155 C 
ATOM     87  O   UNL     1     148.883 173.325 191.676  0.00  0.00    -0.365 OA
ATOM     88  C   UNL     1     149.227 173.041 193.041  0.00  0.00    +0.049 C 
ATOM     89  C   UNL     1     148.057 173.552 193.857  0.00  0.00    -0.027 C 
ATOM     90  C   UNL     1     146.888 173.188 192.975  0.00  0.00    -0.014 C 
ATOM     91  H   UNL     1     147.195 174.351 191.149  0.00  0.00    +0.071 HD
ATOM     92  H   UNL     1     150.166 173.541 193.290  0.00  0.00    +0.056 HD
ATOM     93  H   UNL     1     149.358 171.960 193.154  0.00  0.00    +0.056 HD
ATOM     94  H   UNL     1     148.112 174.640 193.960  0.00  0.00    +0.029 HD
ATOM     95  H   UNL     1     148.012 173.103 194.855  0.00  0.00    +0.029 HD
ATOM     96  H   UNL     1     146.590 172.144 193.162  0.00  0.00    +0.030 HD
ATOM     97  H   UNL     1     146.006 173.816 193.154  0.00  0.00    +0.030 HD
ENDBRANCH  85  86
ENDBRANCH  83  85
ENDBRANCH  50  83
ENDBRANCH   1  50
TORSDOF 31
ENDMDL
MODEL 3
REMARK VINA RESULT:      -5.0      1.772      2.264
REMARK  Name = 2u_conf3
REMARK  31 active torsions:
REMARK  status: ('A' for Active; 'I' for Inactive)
REMARK    1  A    between atoms: C_2  and  C_3
REMARK    2  A    between atoms: C_2  and  O_8
REMARK    3  A    between atoms: O_8  and  C_9
REMARK    4  A    between atoms: C_9  and  C_10
REMARK    5  A    between atoms: C_9  and  C_29
REMARK    6  A    between atoms: C_10  and  C_11
REMARK    7  A    between atoms: C_11  and  C_12
REMARK    8  A    between atoms: C_12  and  C_13
REMARK    9  A    between atoms: C_12  and  C_14
REMARK   10  A    between atoms: C_14  and  O_15
REMARK   11  A    between atoms: C_14  and  C_17
REMARK   12  A    between atoms: O_15  and  C_16
REMARK   13  A    between atoms: C_17  and  C_18
REMARK   14  A    between atoms: C_18  and  O_19
REMARK   15  A    between atoms: C_18  and  C_26
REMARK   16  A    between atoms: O_19  and  C_20
REMARK   17  A    between atoms: C_20  and  C_21
REMARK   18  A    between atoms: C_21  and  C_22
REMARK   19  A    between atoms: C_22  and  C_23
REMARK   20  A    between atoms: C_23  and  N_24
REMARK   21  A    between atoms: C_26  and  C_27
REMARK   22  A    between atoms: C_26  and  C_28
REMARK   23  A    between atoms: C_29  and  C_30
REMARK   24  A    between atoms: C_29  and  C_31
REMARK   25  A    between atoms: C_31  and  O_32
REMARK   26  A    between atoms: C_31  and  C_34
REMARK   27  A    between atoms: O_32  and  C_33
REMARK   28  A    between atoms: C_34  and  C_35
REMARK   29  A    between atoms: C_34  and  C_36
REMARK   30  A    between atoms: C_37  and  N_38
REMARK   31  A    between atoms: N_38  and  C_39
REMARK                            x       y       z     vdW  Elec       q    Type
REMARK                         _______ _______ _______ _____ _____    ______ ____
ROOT
ATOM      1  C   UNL     1     148.112 169.417 192.009  0.00  0.00    -0.015 C 
ATOM      2  H   UNL     1     147.848 168.375 192.197  0.00  0.00    +0.030 HD
ATOM      3  H   UNL     1     148.184 169.935 192.967  0.00  0.00    +0.030 HD
ENDROOT
BRANCH   1   4
ATOM      4  C   UNL     1     149.488 169.466 191.321  0.00  0.00    -0.045 C 
ATOM      5  H   UNL     1     149.674 170.504 191.015  0.00  0.00    +0.027 HD
ATOM      6  H   UNL     1     149.477 168.890 190.392  0.00  0.00    +0.027 HD
BRANCH   4   7
ATOM      7  C   UNL     1     150.667 168.996 192.198  0.00  0.00    -0.017 C 
ATOM      8  H   UNL     1     150.303 168.939 193.232  0.00  0.00    +0.032 HD
BRANCH   7   9
ATOM      9  C   UNL     1     151.751 170.087 192.145  0.00  0.00    -0.060 C 
ATOM     10  H   UNL     1     152.011 170.438 193.149  0.00  0.00    +0.023 HD
ATOM     11  H   UNL     1     152.662 169.706 191.673  0.00  0.00    +0.023 HD
ATOM     12  H   UNL     1     151.426 170.949 191.554  0.00  0.00    +0.023 HD
ENDBRANCH   7   9
BRANCH   7  13
ATOM     13  C   UNL     1     151.236 167.601 191.813  0.00  0.00    +0.064 C 
ATOM     14  H   UNL     1     150.429 166.983 191.401  0.00  0.00    +0.060 HD
BRANCH  13  15
ATOM     15  C   UNL     1     151.816 166.883 193.058  0.00  0.00    +0.011 C 
ATOM     16  H   UNL     1     151.785 167.573 193.910  0.00  0.00    +0.033 HD
ATOM     17  H   UNL     1     152.870 166.646 192.874  0.00  0.00    +0.033 HD
BRANCH  15  18
ATOM     18  C   UNL     1     151.061 165.588 193.425  0.00  0.00    +0.108 C 
ATOM     19  H   UNL     1     151.746 164.732 193.448  0.00  0.00    +0.074 HD
BRANCH  18  20
ATOM     20  C   UNL     1     150.280 165.599 194.763  0.00  0.00    -0.009 C 
ATOM     21  H   UNL     1     149.970 164.557 194.947  0.00  0.00    +0.033 HD
BRANCH  20  22
ATOM     22  C   UNL     1     151.132 166.029 195.961  0.00  0.00    -0.059 C 
ATOM     23  H   UNL     1     152.203 165.991 195.734  0.00  0.00    +0.023 HD
ATOM     24  H   UNL     1     150.929 165.395 196.832  0.00  0.00    +0.023 HD
ATOM     25  H   UNL     1     150.890 167.060 196.247  0.00  0.00    +0.023 HD
ENDBRANCH  20  22
BRANCH  20  26
ATOM     26  C   UNL     1     148.985 166.425 194.711  0.00  0.00    -0.059 C 
ATOM     27  H   UNL     1     148.500 166.428 195.695  0.00  0.00    +0.023 HD
ATOM     28  H   UNL     1     148.267 166.008 193.993  0.00  0.00    +0.023 HD
ATOM     29  H   UNL     1     149.176 167.470 194.436  0.00  0.00    +0.023 HD
ENDBRANCH  20  26
ENDBRANCH  18  20
BRANCH  18  30
ATOM     30  O   UNL     1     150.060 165.367 192.396  0.00  0.00    -0.461 OA
BRANCH  30  31
ATOM     31  C   UNL     1     149.852 164.081 191.993  0.00  0.00    +0.307 C 
ATOM     32  O   UNL     1     149.039 163.308 192.477  0.00  0.00    -0.251 OA
BRANCH  31  33
ATOM     33  C   UNL     1     150.821 163.738 190.884  0.00  0.00    +0.046 C 
ATOM     34  H   UNL     1     150.290 163.700 189.922  0.00  0.00    +0.038 HD
ATOM     35  H   UNL     1     151.554 164.552 190.832  0.00  0.00    +0.038 HD
BRANCH  33  36
ATOM     36  C   UNL     1     151.532 162.407 191.128  0.00  0.00    -0.031 C 
ATOM     37  H   UNL     1     151.570 162.185 192.205  0.00  0.00    +0.028 HD
ATOM     38  H   UNL     1     152.574 162.505 190.780  0.00  0.00    +0.028 HD
BRANCH  36  39
ATOM     39  C   UNL     1     150.857 161.259 190.380  0.00  0.00    -0.006 C 
ATOM     40  H   UNL     1     151.612 160.564 189.995  0.00  0.00    +0.042 HD
ATOM     41  H   UNL     1     150.285 161.630 189.523  0.00  0.00    +0.042 HD
BRANCH  39  42
ATOM     42  N   UNL     1     149.966 160.533 191.276  0.00  0.00    -0.330 NA
ATOM     43  H   UNL     1     150.404 160.444 192.187  0.00  0.00    +0.118 HD
ATOM     44  H   UNL     1     149.809 159.586 190.924  0.00  0.00    +0.118 HD
ENDBRANCH  39  42
ENDBRANCH  36  39
ENDBRANCH  33  36
ENDBRANCH  31  33
ENDBRANCH  30  31
ENDBRANCH  18  30
ENDBRANCH  15  18
ENDBRANCH  13  15
BRANCH  13  45
ATOM     45  O   UNL     1     152.308 167.750 190.877  0.00  0.00    -0.379 OA
BRANCH  45  46
ATOM     46  C   UNL     1     152.024 167.250 189.579  0.00  0.00    +0.037 C 
ATOM     47  H   UNL     1     150.942 167.289 189.431  0.00  0.00    +0.052 HD
ATOM     48  H   UNL     1     152.346 166.209 189.485  0.00  0.00    +0.052 HD
ATOM     49  H   UNL     1     152.495 167.872 188.806  0.00  0.00    +0.052 HD
ENDBRANCH  45  46
ENDBRANCH  13  45
ENDBRANCH   7  13
ENDBRANCH   4   7
ENDBRANCH   1   4
BRANCH   1  50
ATOM     50  C   UNL     1     147.028 170.064 191.121  0.00  0.00    +0.108 C 
ATOM     51  H   UNL     1     146.242 170.447 191.792  0.00  0.00    +0.074 HD
BRANCH  50  52
ATOM     52  C   UNL     1     146.362 169.102 190.087  0.00  0.00    +0.020 C 
ATOM     53  H   UNL     1     146.734 168.100 190.336  0.00  0.00    +0.036 HD
BRANCH  52  54
ATOM     54  C   UNL     1     146.864 169.442 188.674  0.00  0.00    -0.057 C 
ATOM     55  H   UNL     1     146.354 168.836 187.914  0.00  0.00    +0.023 HD
ATOM     56  H   UNL     1     147.936 169.240 188.576  0.00  0.00    +0.023 HD
ATOM     57  H   UNL     1     146.691 170.493 188.430  0.00  0.00    +0.023 HD
ENDBRANCH  52  54
BRANCH  52  58
ATOM     58  C   UNL     1     144.804 169.030 190.167  0.00  0.00    +0.070 C 
ATOM     59  H   UNL     1     144.401 169.363 189.201  0.00  0.00    +0.061 HD
BRANCH  58  60
ATOM     60  C   UNL     1     144.251 167.586 190.422  0.00  0.00    +0.002 C 
ATOM     61  H   UNL     1     143.378 167.466 189.767  0.00  0.00    +0.037 HD
BRANCH  60  62
ATOM     62  C   UNL     1     143.719 167.406 191.850  0.00  0.00    -0.057 C 
ATOM     63  H   UNL     1     143.714 166.354 192.154  0.00  0.00    +0.024 HD
ATOM     64  H   UNL     1     144.329 167.969 192.564  0.00  0.00    +0.024 HD
ATOM     65  H   UNL     1     142.687 167.769 191.927  0.00  0.00    +0.024 HD
ENDBRANCH  60  62
BRANCH  60  66
ATOM     66  C   UNL     1     145.188 166.434 190.091  0.00  0.00    -0.065 C 
ATOM     67  C   UNL     1     144.795 165.207 189.715  0.00  0.00    -0.005 C 
ATOM     68  H   UNL     1     146.243 166.692 190.162  0.00  0.00    +0.059 HD
ATOM     69  H   UNL     1     143.724 164.998 189.647  0.00  0.00    +0.078 HD
BRANCH  67  70
ATOM     70  N   UNL     1     145.599 164.142 189.354  0.00  0.00    -0.284 N 
ATOM     71  C   UNL     1     146.948 164.007 189.665  0.00  0.00    +0.206 C 
ATOM     72  O   UNL     1     147.684 163.094 189.298  0.00  0.00    -0.279 OA
ATOM     73  H   UNL     1     147.350 164.818 190.294  0.00  0.00    +0.126 HD
BRANCH  70  74
ATOM     74  C   UNL     1     144.977 163.095 188.548  0.00  0.00    +0.007 C 
ATOM     75  H   UNL     1     145.744 162.357 188.274  0.00  0.00    +0.043 HD
ATOM     76  H   UNL     1     144.564 163.546 187.636  0.00  0.00    +0.043 HD
ATOM     77  H   UNL     1     144.165 162.589 189.077  0.00  0.00    +0.043 HD
ENDBRANCH  70  74
ENDBRANCH  67  70
ENDBRANCH  60  66
ENDBRANCH  58  60
BRANCH  58  78
ATOM     78  O   UNL     1     144.344 169.901 191.213  0.00  0.00    -0.379 OA
BRANCH  78  79
ATOM     79  C   UNL     1     143.310 170.793 190.808  0.00  0.00    +0.037 C 
ATOM     80  H   UNL     1     142.719 170.353 189.999  0.00  0.00    +0.052 HD
ATOM     81  H   UNL     1     142.660 171.048 191.650  0.00  0.00    +0.052 HD
ATOM     82  H   UNL     1     143.776 171.711 190.443  0.00  0.00    +0.052 HD
ENDBRANCH  78  79
ENDBRANCH  58  78
ENDBRANCH  52  58
ENDBRANCH  50  52
BRANCH  50  83
ATOM     83  O   UNL     1     147.660 171.185 190.475  0.00  0.00    -0.459 OA
BRANCH  83  85
ATOM     84  O   UNL     1     146.006 172.684 189.923  0.00  0.00    -0.248 OA
ATOM     85  C   UNL     1     147.020 172.387 190.544  0.00  0.00    +0.337 C 
BRANCH  85  86
ATOM     86  C   UNL     1     147.703 173.313 191.560  0.00  0.00    +0.155 C 
ATOM     87  O   UNL     1     149.085 173.017 191.844  0.00  0.00    -0.365 OA
ATOM     88  C   UNL     1     149.206 172.677 193.233  0.00  0.00    +0.049 C 
ATOM     89  C   UNL     1     148.054 173.388 193.915  0.00  0.00    -0.027 C 
ATOM     90  C   UNL     1     146.955 173.238 192.892  0.00  0.00    -0.014 C 
ATOM     91  H   UNL     1     147.682 174.328 191.142  0.00  0.00    +0.071 HD
ATOM     92  H   UNL     1     150.182 173.001 193.603  0.00  0.00    +0.056 HD
ATOM     93  H   UNL     1     149.129 171.589 193.338  0.00  0.00    +0.056 HD
ATOM     94  H   UNL     1     148.288 174.448 194.048  0.00  0.00    +0.029 HD
ATOM     95  H   UNL     1     147.810 172.954 194.890  0.00  0.00    +0.029 HD
ATOM     96  H   UNL     1     146.457 172.263 193.020  0.00  0.00    +0.030 HD
ATOM     97  H   UNL     1     146.183 174.013 192.978  0.00  0.00    +0.030 HD
ENDBRANCH  85  86
ENDBRANCH  83  85
ENDBRANCH  50  83
ENDBRANCH   1  50
TORSDOF 31
ENDMDL
MODEL 4
REMARK VINA RESULT:      -4.9      1.866      2.373
REMARK  Name = 2u_conf3
REMARK  31 active torsions:
REMARK  status: ('A' for Active; 'I' for Inactive)
REMARK    1  A    between atoms: C_2  and  C_3
REMARK    2  A    between atoms: C_2  and  O_8
REMARK    3  A    between atoms: O_8  and  C_9
REMARK    4  A    between atoms: C_9  and  C_10
REMARK    5  A    between atoms: C_9  and  C_29
REMARK    6  A    between atoms: C_10  and  C_11
REMARK    7  A    between atoms: C_11  and  C_12
REMARK    8  A    between atoms: C_12  and  C_13
REMARK    9  A    between atoms: C_12  and  C_14
REMARK   10  A    between atoms: C_14  and  O_15
REMARK   11  A    between atoms: C_14  and  C_17
REMARK   12  A    between atoms: O_15  and  C_16
REMARK   13  A    between atoms: C_17  and  C_18
REMARK   14  A    between atoms: C_18  and  O_19
REMARK   15  A    between atoms: C_18  and  C_26
REMARK   16  A    between atoms: O_19  and  C_20
REMARK   17  A    between atoms: C_20  and  C_21
REMARK   18  A    between atoms: C_21  and  C_22
REMARK   19  A    between atoms: C_22  and  C_23
REMARK   20  A    between atoms: C_23  and  N_24
REMARK   21  A    between atoms: C_26  and  C_27
REMARK   22  A    between atoms: C_26  and  C_28
REMARK   23  A    between atoms: C_29  and  C_30
REMARK   24  A    between atoms: C_29  and  C_31
REMARK   25  A    between atoms: C_31  and  O_32
REMARK   26  A    between atoms: C_31  and  C_34
REMARK   27  A    between atoms: O_32  and  C_33
REMARK   28  A    between atoms: C_34  and  C_35
REMARK   29  A    between atoms: C_34  and  C_36
REMARK   30  A    between atoms: C_37  and  N_38
REMARK   31  A    between atoms: N_38  and  C_39
REMARK                            x       y       z     vdW  Elec       q    Type
REMARK                         _______ _______ _______ _____ _____    ______ ____
ROOT
ATOM      1  C   UNL     1     148.106 169.871 191.943  0.00  0.00    -0.015 C 
ATOM      2  H   UNL     1     147.835 168.913 192.392  0.00  0.00    +0.030 HD
ATOM      3  H   UNL     1     148.074 170.638 192.719  0.00  0.00    +0.030 HD
ENDROOT
BRANCH   1   4
ATOM      4  C   UNL     1     149.544 169.780 191.403  0.00  0.00    -0.045 C 
ATOM      5  H   UNL     1     149.866 170.795 191.134  0.00  0.00    +0.027 HD
ATOM      6  H   UNL     1     149.570 169.214 190.468  0.00  0.00    +0.027 HD
BRANCH   4   7
ATOM      7  C   UNL     1     150.570 169.185 192.389  0.00  0.00    -0.017 C 
ATOM      8  H   UNL     1     150.227 169.426 193.403  0.00  0.00    +0.032 HD
BRANCH   7   9
ATOM      9  C   UNL     1     151.907 169.912 192.163  0.00  0.00    -0.060 C 
ATOM     10  H   UNL     1     152.110 170.629 192.966  0.00  0.00    +0.023 HD
ATOM     11  H   UNL     1     152.736 169.199 192.130  0.00  0.00    +0.023 HD
ATOM     12  H   UNL     1     151.917 170.452 191.212  0.00  0.00    +0.023 HD
ENDBRANCH   7   9
BRANCH   7  13
ATOM     13  C   UNL     1     150.732 167.641 192.292  0.00  0.00    +0.064 C 
ATOM     14  H   UNL     1     150.263 167.287 191.366  0.00  0.00    +0.060 HD
BRANCH  13  15
ATOM     15  C   UNL     1     150.040 166.942 193.489  0.00  0.00    +0.011 C 
ATOM     16  H   UNL     1     149.032 166.634 193.184  0.00  0.00    +0.033 HD
ATOM     17  H   UNL     1     149.923 167.664 194.305  0.00  0.00    +0.033 HD
BRANCH  15  18
ATOM     18  C   UNL     1     150.812 165.710 194.008  0.00  0.00    +0.108 C 
ATOM     19  H   UNL     1     151.786 165.625 193.512  0.00  0.00    +0.074 HD
BRANCH  18  20
ATOM     20  C   UNL     1     151.059 165.643 195.537  0.00  0.00    -0.009 C 
ATOM     21  H   UNL     1     151.961 166.245 195.730  0.00  0.00    +0.033 HD
BRANCH  20  22
ATOM     22  C   UNL     1     149.925 166.258 196.363  0.00  0.00    -0.059 C 
ATOM     23  H   UNL     1     149.449 165.519 197.015  0.00  0.00    +0.023 HD
ATOM     24  H   UNL     1     149.164 166.702 195.711  0.00  0.00    +0.023 HD
ATOM     25  H   UNL     1     150.314 167.061 197.001  0.00  0.00    +0.023 HD
ENDBRANCH  20  22
BRANCH  20  26
ATOM     26  C   UNL     1     151.375 164.227 196.045  0.00  0.00    -0.059 C 
ATOM     27  H   UNL     1     151.080 164.129 197.097  0.00  0.00    +0.023 HD
ATOM     28  H   UNL     1     152.448 164.005 195.984  0.00  0.00    +0.023 HD
ATOM     29  H   UNL     1     150.834 163.457 195.480  0.00  0.00    +0.023 HD
ENDBRANCH  20  26
ENDBRANCH  18  20
BRANCH  18  30
ATOM     30  O   UNL     1     150.014 164.538 193.695  0.00  0.00    -0.461 OA
BRANCH  30  31
ATOM     31  C   UNL     1     150.189 163.974 192.466  0.00  0.00    +0.307 C 
ATOM     32  O   UNL     1     151.265 163.765 191.927  0.00  0.00    -0.251 OA
BRANCH  31  33
ATOM     33  C   UNL     1     148.839 163.690 191.845  0.00  0.00    +0.046 C 
ATOM     34  H   UNL     1     148.209 163.137 192.557  0.00  0.00    +0.038 HD
ATOM     35  H   UNL     1     148.362 164.658 191.655  0.00  0.00    +0.038 HD
BRANCH  33  36
ATOM     36  C   UNL     1     148.957 162.898 190.544  0.00  0.00    -0.031 C 
ATOM     37  H   UNL     1     150.010 162.820 190.237  0.00  0.00    +0.028 HD
ATOM     38  H   UNL     1     148.429 163.456 189.753  0.00  0.00    +0.028 HD
BRANCH  36  39
ATOM     39  C   UNL     1     148.344 161.505 190.672  0.00  0.00    -0.006 C 
ATOM     40  H   UNL     1     148.296 161.021 189.689  0.00  0.00    +0.042 HD
ATOM     41  H   UNL     1     147.322 161.559 191.062  0.00  0.00    +0.042 HD
BRANCH  39  42
ATOM     42  N   UNL     1     149.154 160.681 191.560  0.00  0.00    -0.330 NA
ATOM     43  H   UNL     1     148.569 159.971 191.988  0.00  0.00    +0.118 HD
ATOM     44  H   UNL     1     149.536 161.251 192.317  0.00  0.00    +0.118 HD
ENDBRANCH  39  42
ENDBRANCH  36  39
ENDBRANCH  33  36
ENDBRANCH  31  33
ENDBRANCH  30  31
ENDBRANCH  18  30
ENDBRANCH  15  18
ENDBRANCH  13  15
BRANCH  13  45
ATOM     45  O   UNL     1     152.117 167.289 192.342  0.00  0.00    -0.379 OA
BRANCH  45  46
ATOM     46  C   UNL     1     152.634 166.775 191.124  0.00  0.00    +0.037 C 
ATOM     47  H   UNL     1     152.710 165.689 191.222  0.00  0.00    +0.052 HD
ATOM     48  H   UNL     1     153.634 167.172 190.929  0.00  0.00    +0.052 HD
ATOM     49  H   UNL     1     151.959 166.995 190.286  0.00  0.00    +0.052 HD
ENDBRANCH  45  46
ENDBRANCH  13  45
ENDBRANCH   7  13
ENDBRANCH   4   7
ENDBRANCH   1   4
BRANCH   1  50
ATOM     50  C   UNL     1     147.109 170.201 190.811  0.00  0.00    +0.108 C 
ATOM     51  H   UNL     1     146.108 170.262 191.265  0.00  0.00    +0.074 HD
BRANCH  50  52
ATOM     52  C   UNL     1     147.059 169.156 189.652  0.00  0.00    +0.020 C 
ATOM     53  H   UNL     1     148.073 168.743 189.584  0.00  0.00    +0.036 HD
BRANCH  52  54
ATOM     54  C   UNL     1     146.764 169.875 188.326  0.00  0.00    -0.057 C 
ATOM     55  H   UNL     1     147.552 170.600 188.083  0.00  0.00    +0.023 HD
ATOM     56  H   UNL     1     145.823 170.432 188.378  0.00  0.00    +0.023 HD
ATOM     57  H   UNL     1     146.698 169.169 187.494  0.00  0.00    +0.023 HD
ENDBRANCH  52  54
BRANCH  52  58
ATOM     58  C   UNL     1     146.102 167.947 189.902  0.00  0.00    +0.070 C 
ATOM     59  H   UNL     1     145.445 167.851 189.028  0.00  0.00    +0.061 HD
BRANCH  58  60
ATOM     60  C   UNL     1     146.846 166.578 190.069  0.00  0.00    +0.002 C 
ATOM     61  H   UNL     1     146.827 166.341 191.141  0.00  0.00    +0.037 HD
BRANCH  60  62
ATOM     62  C   UNL     1     148.331 166.669 189.697  0.00  0.00    -0.057 C 
ATOM     63  H   UNL     1     148.530 166.253 188.704  0.00  0.00    +0.024 HD
ATOM     64  H   UNL     1     148.671 167.710 189.709  0.00  0.00    +0.024 HD
ATOM     65  H   UNL     1     148.944 166.105 190.411  0.00  0.00    +0.024 HD
ENDBRANCH  60  62
BRANCH  60  66
ATOM     66  C   UNL     1     146.228 165.381 189.362  0.00  0.00    -0.065 C 
ATOM     67  C   UNL     1     144.973 164.942 189.546  0.00  0.00    -0.005 C 
ATOM     68  H   UNL     1     146.896 164.898 188.651  0.00  0.00    +0.059 HD
ATOM     69  H   UNL     1     144.336 165.466 190.263  0.00  0.00    +0.078 HD
BRANCH  67  70
ATOM     70  N   UNL     1     144.345 163.896 188.896  0.00  0.00    -0.284 N 
ATOM     71  C   UNL     1     144.762 162.569 188.911  0.00  0.00    +0.206 C 
ATOM     72  O   UNL     1     144.246 161.644 188.289  0.00  0.00    -0.279 OA
ATOM     73  H   UNL     1     145.643 162.380 189.547  0.00  0.00    +0.126 HD
BRANCH  70  74
ATOM     74  C   UNL     1     143.167 164.232 188.101  0.00  0.00    +0.007 C 
ATOM     75  H   UNL     1     143.437 164.194 187.037  0.00  0.00    +0.043 HD
ATOM     76  H   UNL     1     142.841 165.248 188.358  0.00  0.00    +0.043 HD
ATOM     77  H   UNL     1     142.333 163.548 188.284  0.00  0.00    +0.043 HD
ENDBRANCH  70  74
ENDBRANCH  67  70
ENDBRANCH  60  66
ENDBRANCH  58  60
BRANCH  58  78
ATOM     78  O   UNL     1     145.316 168.201 191.078  0.00  0.00    -0.379 OA
BRANCH  78  79
ATOM     79  C   UNL     1     143.918 168.298 190.827  0.00  0.00    +0.037 C 
ATOM     80  H   UNL     1     143.672 169.273 190.395  0.00  0.00    +0.052 HD
ATOM     81  H   UNL     1     143.582 167.499 190.161  0.00  0.00    +0.052 HD
ATOM     82  H   UNL     1     143.393 168.194 191.780  0.00  0.00    +0.052 HD
ENDBRANCH  78  79
ENDBRANCH  58  78
ENDBRANCH  52  58
ENDBRANCH  50  52
BRANCH  50  83
ATOM     83  O   UNL     1     147.472 171.509 190.333  0.00  0.00    -0.459 OA
BRANCH  83  85
ATOM     84  O   UNL     1     145.484 172.662 190.281  0.00  0.00    -0.248 OA
ATOM     85  C   UNL     1     146.645 172.544 190.655  0.00  0.00    +0.337 C 
BRANCH  85  86
ATOM     86  C   UNL     1     147.339 173.524 191.610  0.00  0.00    +0.155 C 
ATOM     87  O   UNL     1     148.780 173.450 191.641  0.00  0.00    -0.365 OA
ATOM     88  C   UNL     1     149.192 173.072 192.963  0.00  0.00    +0.049 C 
ATOM     89  C   UNL     1     148.079 173.548 193.874  0.00  0.00    -0.027 C 
ATOM     90  C   UNL     1     146.856 173.264 193.038  0.00  0.00    -0.014 C 
ATOM     91  H   UNL     1     147.087 174.539 191.277  0.00  0.00    +0.071 HD
ATOM     92  H   UNL     1     150.154 173.538 193.190  0.00  0.00    +0.056 HD
ATOM     93  H   UNL     1     149.306 171.983 192.999  0.00  0.00    +0.056 HD
ATOM     94  H   UNL     1     148.163 174.626 194.045  0.00  0.00    +0.029 HD
ATOM     95  H   UNL     1     148.080 173.036 194.842  0.00  0.00    +0.029 HD
ATOM     96  H   UNL     1     146.547 172.215 193.174  0.00  0.00    +0.030 HD
ATOM     97  H   UNL     1     145.999 173.894 193.306  0.00  0.00    +0.030 HD
ENDBRANCH  85  86
ENDBRANCH  83  85
ENDBRANCH  50  83
ENDBRANCH   1  50
TORSDOF 31
ENDMDL
MODEL 5
REMARK VINA RESULT:      -4.9      2.221      4.408
REMARK  Name = 2u_conf3
REMARK  31 active torsions:
REMARK  status: ('A' for Active; 'I' for Inactive)
REMARK    1  A    between atoms: C_2  and  C_3
REMARK    2  A    between atoms: C_2  and  O_8
REMARK    3  A    between atoms: O_8  and  C_9
REMARK    4  A    between atoms: C_9  and  C_10
REMARK    5  A    between atoms: C_9  and  C_29
REMARK    6  A    between atoms: C_10  and  C_11
REMARK    7  A    between atoms: C_11  and  C_12
REMARK    8  A    between atoms: C_12  and  C_13
REMARK    9  A    between atoms: C_12  and  C_14
REMARK   10  A    between atoms: C_14  and  O_15
REMARK   11  A    between atoms: C_14  and  C_17
REMARK   12  A    between atoms: O_15  and  C_16
REMARK   13  A    between atoms: C_17  and  C_18
REMARK   14  A    between atoms: C_18  and  O_19
REMARK   15  A    between atoms: C_18  and  C_26
REMARK   16  A    between atoms: O_19  and  C_20
REMARK   17  A    between atoms: C_20  and  C_21
REMARK   18  A    between atoms: C_21  and  C_22
REMARK   19  A    between atoms: C_22  and  C_23
REMARK   20  A    between atoms: C_23  and  N_24
REMARK   21  A    between atoms: C_26  and  C_27
REMARK   22  A    between atoms: C_26  and  C_28
REMARK   23  A    between atoms: C_29  and  C_30
REMARK   24  A    between atoms: C_29  and  C_31
REMARK   25  A    between atoms: C_31  and  O_32
REMARK   26  A    between atoms: C_31  and  C_34
REMARK   27  A    between atoms: O_32  and  C_33
REMARK   28  A    between atoms: C_34  and  C_35
REMARK   29  A    between atoms: C_34  and  C_36
REMARK   30  A    between atoms: C_37  and  N_38
REMARK   31  A    between atoms: N_38  and  C_39
REMARK                            x       y       z     vdW  Elec       q    Type
REMARK                         _______ _______ _______ _____ _____    ______ ____
ROOT
ATOM      1  C   UNL     1     148.342 169.682 192.168  0.00  0.00    -0.015 C 
ATOM      2  H   UNL     1     147.859 169.104 192.958  0.00  0.00    +0.030 HD
ATOM      3  H   UNL     1     148.847 170.537 192.624  0.00  0.00    +0.030 HD
ENDROOT
BRANCH   1   4
ATOM      4  C   UNL     1     149.398 168.800 191.479  0.00  0.00    -0.045 C 
ATOM      5  H   UNL     1     149.420 169.072 190.415  0.00  0.00    +0.027 HD
ATOM      6  H   UNL     1     149.097 167.749 191.500  0.00  0.00    +0.027 HD
BRANCH   4   7
ATOM      7  C   UNL     1     150.825 168.934 192.049  0.00  0.00    -0.017 C 
ATOM      8  H   UNL     1     150.746 168.891 193.142  0.00  0.00    +0.032 HD
BRANCH   7   9
ATOM      9  C   UNL     1     151.347 170.332 191.673  0.00  0.00    -0.060 C 
ATOM     10  H   UNL     1     152.124 170.273 190.903  0.00  0.00    +0.023 HD
ATOM     11  H   UNL     1     150.536 170.958 191.286  0.00  0.00    +0.023 HD
ATOM     12  H   UNL     1     151.761 170.854 192.540  0.00  0.00    +0.023 HD
ENDBRANCH   7   9
BRANCH   7  13
ATOM     13  C   UNL     1     151.805 167.815 191.595  0.00  0.00    +0.064 C 
ATOM     14  H   UNL     1     152.426 168.191 190.773  0.00  0.00    +0.060 HD
BRANCH  13  15
ATOM     15  C   UNL     1     151.024 166.575 191.090  0.00  0.00    +0.011 C 
ATOM     16  H   UNL     1     149.949 166.766 191.202  0.00  0.00    +0.033 HD
ATOM     17  H   UNL     1     151.266 165.717 191.728  0.00  0.00    +0.033 HD
BRANCH  15  18
ATOM     18  C   UNL     1     151.327 166.217 189.620  0.00  0.00    +0.108 C 
ATOM     19  H   UNL     1     151.225 165.138 189.454  0.00  0.00    +0.074 HD
BRANCH  18  20
ATOM     20  C   UNL     1     150.476 166.938 188.543  0.00  0.00    -0.009 C 
ATOM     21  H   UNL     1     150.394 167.988 188.868  0.00  0.00    +0.033 HD
BRANCH  20  22
ATOM     22  C   UNL     1     151.130 166.948 187.158  0.00  0.00    -0.059 C 
ATOM     23  H   UNL     1     150.419 166.680 186.370  0.00  0.00    +0.023 HD
ATOM     24  H   UNL     1     151.979 166.255 187.123  0.00  0.00    +0.023 HD
ATOM     25  H   UNL     1     151.517 167.948 186.929  0.00  0.00    +0.023 HD
ENDBRANCH  20  22
BRANCH  20  26
ATOM     26  C   UNL     1     149.036 166.410 188.444  0.00  0.00    -0.059 C 
ATOM     27  H   UNL     1     148.325 167.244 188.478  0.00  0.00    +0.023 HD
ATOM     28  H   UNL     1     148.793 165.739 189.278  0.00  0.00    +0.023 HD
ATOM     29  H   UNL     1     148.861 165.867 187.507  0.00  0.00    +0.023 HD
ENDBRANCH  20  26
ENDBRANCH  18  20
BRANCH  18  30
ATOM     30  O   UNL     1     152.699 166.612 189.354  0.00  0.00    -0.461 OA
BRANCH  30  31
ATOM     31  C   UNL     1     153.647 165.633 189.381  0.00  0.00    +0.307 C 
ATOM     32  O   UNL     1     153.427 164.433 189.449  0.00  0.00    -0.251 OA
BRANCH  31  33
ATOM     33  C   UNL     1     155.022 166.262 189.364  0.00  0.00    +0.046 C 
ATOM     34  H   UNL     1     154.955 167.297 188.998  0.00  0.00    +0.038 HD
ATOM     35  H   UNL     1     155.375 166.293 190.401  0.00  0.00    +0.038 HD
BRANCH  33  36
ATOM     36  C   UNL     1     156.006 165.477 188.497  0.00  0.00    -0.031 C 
ATOM     37  H   UNL     1     156.608 166.164 187.883  0.00  0.00    +0.028 HD
ATOM     38  H   UNL     1     155.426 164.846 187.803  0.00  0.00    +0.028 HD
BRANCH  36  39
ATOM     39  C   UNL     1     156.919 164.590 189.339  0.00  0.00    -0.006 C 
ATOM     40  H   UNL     1     157.109 165.059 190.312  0.00  0.00    +0.042 HD
ATOM     41  H   UNL     1     157.888 164.444 188.850  0.00  0.00    +0.042 HD
BRANCH  39  42
ATOM     42  N   UNL     1     156.292 163.293 189.560  0.00  0.00    -0.330 NA
ATOM     43  H   UNL     1     156.074 163.188 190.546  0.00  0.00    +0.118 HD
ATOM     44  H   UNL     1     156.942 162.542 189.316  0.00  0.00    +0.118 HD
ENDBRANCH  39  42
ENDBRANCH  36  39
ENDBRANCH  33  36
ENDBRANCH  31  33
ENDBRANCH  30  31
ENDBRANCH  18  30
ENDBRANCH  15  18
ENDBRANCH  13  15
BRANCH  13  45
ATOM     45  O   UNL     1     152.605 167.386 192.699  0.00  0.00    -0.379 OA
BRANCH  45  46
ATOM     46  C   UNL     1     151.912 166.590 193.649  0.00  0.00    +0.037 C 
ATOM     47  H   UNL     1     151.262 165.901 193.103  0.00  0.00    +0.052 HD
ATOM     48  H   UNL     1     151.287 167.212 194.295  0.00  0.00    +0.052 HD
ATOM     49  H   UNL     1     152.613 165.993 194.248  0.00  0.00    +0.052 HD
ENDBRANCH  45  46
ENDBRANCH  13  45
ENDBRANCH   7  13
ENDBRANCH   4   7
ENDBRANCH   1   4
BRANCH   1  50
ATOM     50  C   UNL     1     147.274 170.157 191.160  0.00  0.00    +0.108 C 
ATOM     51  H   UNL     1     146.385 170.449 191.740  0.00  0.00    +0.074 HD
BRANCH  50  52
ATOM     52  C   UNL     1     146.841 169.088 190.107  0.00  0.00    +0.020 C 
ATOM     53  H   UNL     1     147.495 168.224 190.279  0.00  0.00    +0.036 HD
BRANCH  52  54
ATOM     54  C   UNL     1     147.135 169.614 188.692  0.00  0.00    -0.057 C 
ATOM     55  H   UNL     1     146.226 169.633 188.078  0.00  0.00    +0.023 HD
ATOM     56  H   UNL     1     147.857 168.973 188.175  0.00  0.00    +0.023 HD
ATOM     57  H   UNL     1     147.538 170.630 188.719  0.00  0.00    +0.023 HD
ENDBRANCH  52  54
BRANCH  52  58
ATOM     58  C   UNL     1     145.375 168.572 190.261  0.00  0.00    +0.070 C 
ATOM     59  H   UNL     1     144.885 168.654 189.281  0.00  0.00    +0.061 HD
BRANCH  58  60
ATOM     60  C   UNL     1     145.277 167.071 190.701  0.00  0.00    +0.002 C 
ATOM     61  H   UNL     1     145.197 166.481 189.779  0.00  0.00    +0.037 HD
BRANCH  60  62
ATOM     62  C   UNL     1     143.995 166.775 191.489  0.00  0.00    -0.057 C 
ATOM     63  H   UNL     1     143.911 165.714 191.747  0.00  0.00    +0.024 HD
ATOM     64  H   UNL     1     143.966 167.359 192.415  0.00  0.00    +0.024 HD
ATOM     65  H   UNL     1     143.108 167.033 190.897  0.00  0.00    +0.024 HD
ENDBRANCH  60  62
BRANCH  60  66
ATOM     66  C   UNL     1     146.469 166.509 191.459  0.00  0.00    -0.065 C 
ATOM     67  C   UNL     1     146.544 166.386 192.794  0.00  0.00    -0.005 C 
ATOM     68  H   UNL     1     147.283 166.178 190.816  0.00  0.00    +0.059 HD
ATOM     69  H   UNL     1     145.697 166.722 193.398  0.00  0.00    +0.078 HD
BRANCH  67  70
ATOM     70  N   UNL     1     147.577 165.837 193.530  0.00  0.00    -0.284 N 
ATOM     71  C   UNL     1     147.846 166.104 194.868  0.00  0.00    +0.206 C 
ATOM     72  O   UNL     1     148.796 165.667 195.514  0.00  0.00    -0.279 OA
ATOM     73  H   UNL     1     147.118 166.778 195.349  0.00  0.00    +0.126 HD
BRANCH  70  74
ATOM     74  C   UNL     1     148.476 164.929 192.822  0.00  0.00    +0.007 C 
ATOM     75  H   UNL     1     147.875 164.248 192.203  0.00  0.00    +0.043 HD
ATOM     76  H   UNL     1     149.045 164.345 193.557  0.00  0.00    +0.043 HD
ATOM     77  H   UNL     1     149.187 165.460 192.184  0.00  0.00    +0.043 HD
ENDBRANCH  70  74
ENDBRANCH  67  70
ENDBRANCH  60  66
ENDBRANCH  58  60
BRANCH  58  78
ATOM     78  O   UNL     1     144.685 169.389 191.221  0.00  0.00    -0.379 OA
BRANCH  78  79
ATOM     79  C   UNL     1     143.681 170.224 190.652  0.00  0.00    +0.037 C 
ATOM     80  H   UNL     1     144.133 171.105 190.187  0.00  0.00    +0.052 HD
ATOM     81  H   UNL     1     143.086 169.677 189.917  0.00  0.00    +0.052 HD
ATOM     82  H   UNL     1     143.017 170.553 191.456  0.00  0.00    +0.052 HD
ENDBRANCH  78  79
ENDBRANCH  58  78
ENDBRANCH  52  58
ENDBRANCH  50  52
BRANCH  50  83
ATOM     83  O   UNL     1     147.815 171.334 190.532  0.00  0.00    -0.459 OA
BRANCH  83  85
ATOM     84  O   UNL     1     146.046 172.679 189.945  0.00  0.00    -0.248 OA
ATOM     85  C   UNL     1     147.067 172.472 190.590  0.00  0.00    +0.337 C 
BRANCH  85  86
ATOM     86  C   UNL     1     147.637 173.450 191.625  0.00  0.00    +0.155 C 
ATOM     87  O   UNL     1     149.040 173.297 191.923  0.00  0.00    -0.365 OA
ATOM     88  C   UNL     1     149.181 172.952 193.309  0.00  0.00    +0.049 C 
ATOM     89  C   UNL     1     147.954 173.528 193.985  0.00  0.00    -0.027 C 
ATOM     90  C   UNL     1     146.887 173.278 192.948  0.00  0.00    -0.014 C 
ATOM     91  H   UNL     1     147.514 174.463 191.220  0.00  0.00    +0.071 HD
ATOM     92  H   UNL     1     150.113 173.373 193.694  0.00  0.00    +0.056 HD
ATOM     93  H   UNL     1     149.219 171.861 193.398  0.00  0.00    +0.056 HD
ATOM     94  H   UNL     1     148.073 174.605 194.135  0.00  0.00    +0.029 HD
ATOM     95  H   UNL     1     147.746 173.057 194.952  0.00  0.00    +0.029 HD
ATOM     96  H   UNL     1     146.493 172.254 193.057  0.00  0.00    +0.030 HD
ATOM     97  H   UNL     1     146.037 173.966 193.035  0.00  0.00    +0.030 HD
ENDBRANCH  85  86
ENDBRANCH  83  85
ENDBRANCH  50  83
ENDBRANCH   1  50
TORSDOF 31
ENDMDL
MODEL 6
REMARK VINA RESULT:      -4.9      2.282      3.014
REMARK  Name = 2u_conf3
REMARK  31 active torsions:
REMARK  status: ('A' for Active; 'I' for Inactive)
REMARK    1  A    between atoms: C_2  and  C_3
REMARK    2  A    between atoms: C_2  and  O_8
REMARK    3  A    between atoms: O_8  and  C_9
REMARK    4  A    between atoms: C_9  and  C_10
REMARK    5  A    between atoms: C_9  and  C_29
REMARK    6  A    between atoms: C_10  and  C_11
REMARK    7  A    between atoms: C_11  and  C_12
REMARK    8  A    between atoms: C_12  and  C_13
REMARK    9  A    between atoms: C_12  and  C_14
REMARK   10  A    between atoms: C_14  and  O_15
REMARK   11  A    between atoms: C_14  and  C_17
REMARK   12  A    between atoms: O_15  and  C_16
REMARK   13  A    between atoms: C_17  and  C_18
REMARK   14  A    between atoms: C_18  and  O_19
REMARK   15  A    between atoms: C_18  and  C_26
REMARK   16  A    between atoms: O_19  and  C_20
REMARK   17  A    between atoms: C_20  and  C_21
REMARK   18  A    between atoms: C_21  and  C_22
REMARK   19  A    between atoms: C_22  and  C_23
REMARK   20  A    between atoms: C_23  and  N_24
REMARK   21  A    between atoms: C_26  and  C_27
REMARK   22  A    between atoms: C_26  and  C_28
REMARK   23  A    between atoms: C_29  and  C_30
REMARK   24  A    between atoms: C_29  and  C_31
REMARK   25  A    between atoms: C_31  and  O_32
REMARK   26  A    between atoms: C_31  and  C_34
REMARK   27  A    between atoms: O_32  and  C_33
REMARK   28  A    between atoms: C_34  and  C_35
REMARK   29  A    between atoms: C_34  and  C_36
REMARK   30  A    between atoms: C_37  and  N_38
REMARK   31  A    between atoms: N_38  and  C_39
REMARK                            x       y       z     vdW  Elec       q    Type
REMARK                         _______ _______ _______ _____ _____    ______ ____
ROOT
ATOM      1  C   UNL     1     148.199 169.332 191.781  0.00  0.00    -0.015 C 
ATOM      2  H   UNL     1     148.118 168.266 191.560  0.00  0.00    +0.030 HD
ATOM      3  H   UNL     1     148.036 169.477 192.851  0.00  0.00    +0.030 HD
ENDROOT
BRANCH   1   4
ATOM      4  C   UNL     1     149.622 169.807 191.435  0.00  0.00    -0.045 C 
ATOM      5  H   UNL     1     149.643 170.901 191.531  0.00  0.00    +0.027 HD
ATOM      6  H   UNL     1     149.850 169.607 190.384  0.00  0.00    +0.027 HD
BRANCH   4   7
ATOM      7  C   UNL     1     150.736 169.214 192.321  0.00  0.00    -0.017 C 
ATOM      8  H   UNL     1     150.395 169.278 193.362  0.00  0.00    +0.032 HD
BRANCH   7   9
ATOM      9  C   UNL     1     151.973 170.118 192.179  0.00  0.00    -0.060 C 
ATOM     10  H   UNL     1     152.175 170.353 191.129  0.00  0.00    +0.023 HD
ATOM     11  H   UNL     1     151.827 171.062 192.715  0.00  0.00    +0.023 HD
ATOM     12  H   UNL     1     152.866 169.650 192.604  0.00  0.00    +0.023 HD
ENDBRANCH   7   9
BRANCH   7  13
ATOM     13  C   UNL     1     151.074 167.727 192.018  0.00  0.00    +0.064 C 
ATOM     14  H   UNL     1     150.147 167.184 191.798  0.00  0.00    +0.060 HD
BRANCH  13  15
ATOM     15  C   UNL     1     151.753 167.059 193.240  0.00  0.00    +0.011 C 
ATOM     16  H   UNL     1     152.055 167.842 193.947  0.00  0.00    +0.033 HD
ATOM     17  H   UNL     1     152.667 166.554 192.908  0.00  0.00    +0.033 HD
BRANCH  15  18
ATOM     18  C   UNL     1     150.846 166.042 193.965  0.00  0.00    +0.108 C 
ATOM     19  H   UNL     1     150.793 165.100 193.406  0.00  0.00    +0.074 HD
BRANCH  18  20
ATOM     20  C   UNL     1     151.225 165.696 195.428  0.00  0.00    -0.009 C 
ATOM     21  H   UNL     1     152.243 166.089 195.583  0.00  0.00    +0.033 HD
BRANCH  20  22
ATOM     22  C   UNL     1     150.323 166.371 196.465  0.00  0.00    -0.059 C 
ATOM     23  H   UNL     1     150.066 167.396 196.177  0.00  0.00    +0.023 HD
ATOM     24  H   UNL     1     150.805 166.388 197.449  0.00  0.00    +0.023 HD
ATOM     25  H   UNL     1     149.386 165.813 196.573  0.00  0.00    +0.023 HD
ENDBRANCH  20  22
BRANCH  20  26
ATOM     26  C   UNL     1     151.306 164.186 195.700  0.00  0.00    -0.059 C 
ATOM     27  H   UNL     1     151.258 163.994 196.779  0.00  0.00    +0.023 HD
ATOM     28  H   UNL     1     152.248 163.758 195.334  0.00  0.00    +0.023 HD
ATOM     29  H   UNL     1     150.478 163.639 195.232  0.00  0.00    +0.023 HD
ENDBRANCH  20  26
ENDBRANCH  18  20
BRANCH  18  30
ATOM     30  O   UNL     1     149.518 166.625 194.039  0.00  0.00    -0.461 OA
BRANCH  30  31
ATOM     31  C   UNL     1     148.463 165.816 193.739  0.00  0.00    +0.307 C 
ATOM     32  O   UNL     1     148.541 164.700 193.249  0.00  0.00    -0.251 OA
BRANCH  31  33
ATOM     33  C   UNL     1     147.171 166.534 194.058  0.00  0.00    +0.046 C 
ATOM     34  H   UNL     1     146.792 166.204 195.037  0.00  0.00    +0.038 HD
ATOM     35  H   UNL     1     147.404 167.603 194.131  0.00  0.00    +0.038 HD
BRANCH  33  36
ATOM     36  C   UNL     1     146.101 166.302 192.991  0.00  0.00    -0.031 C 
ATOM     37  H   UNL     1     146.376 165.450 192.353  0.00  0.00    +0.028 HD
ATOM     38  H   UNL     1     146.063 167.193 192.343  0.00  0.00    +0.028 HD
BRANCH  36  39
ATOM     39  C   UNL     1     144.725 166.070 193.610  0.00  0.00    -0.006 C 
ATOM     40  H   UNL     1     144.808 166.002 194.701  0.00  0.00    +0.042 HD
ATOM     41  H   UNL     1     144.285 165.133 193.254  0.00  0.00    +0.042 HD
BRANCH  39  42
ATOM     42  N   UNL     1     143.834 167.176 193.278  0.00  0.00    -0.330 NA
ATOM     43  H   UNL     1     144.155 167.622 192.425  0.00  0.00    +0.118 HD
ATOM     44  H   UNL     1     143.863 167.883 194.016  0.00  0.00    +0.118 HD
ENDBRANCH  39  42
ENDBRANCH  36  39
ENDBRANCH  33  36
ENDBRANCH  31  33
ENDBRANCH  30  31
ENDBRANCH  18  30
ENDBRANCH  15  18
ENDBRANCH  13  15
BRANCH  13  45
ATOM     45  O   UNL     1     151.997 167.645 190.928  0.00  0.00    -0.379 OA
BRANCH  45  46
ATOM     46  C   UNL     1     152.246 166.325 190.471  0.00  0.00    +0.037 C 
ATOM     47  H   UNL     1     152.693 166.391 189.476  0.00  0.00    +0.052 HD
ATOM     48  H   UNL     1     151.315 165.758 190.392  0.00  0.00    +0.052 HD
ATOM     49  H   UNL     1     152.959 165.809 191.129  0.00  0.00    +0.052 HD
ENDBRANCH  45  46
ENDBRANCH  13  45
ENDBRANCH   7  13
ENDBRANCH   4   7
ENDBRANCH   1   4
BRANCH   1  50
ATOM     50  C   UNL     1     147.143 170.104 190.961  0.00  0.00    +0.108 C 
ATOM     51  H   UNL     1     146.336 170.388 191.653  0.00  0.00    +0.074 HD
BRANCH  50  52
ATOM     52  C   UNL     1     146.514 169.302 189.778  0.00  0.00    +0.020 C 
ATOM     53  H   UNL     1     146.186 170.056 189.053  0.00  0.00    +0.036 HD
BRANCH  52  54
ATOM     54  C   UNL     1     145.259 168.561 190.271  0.00  0.00    -0.057 C 
ATOM     55  H   UNL     1     145.505 167.850 191.070  0.00  0.00    +0.023 HD
ATOM     56  H   UNL     1     144.797 167.986 189.463  0.00  0.00    +0.023 HD
ATOM     57  H   UNL     1     144.513 169.257 190.665  0.00  0.00    +0.023 HD
ENDBRANCH  52  54
BRANCH  52  58
ATOM     58  C   UNL     1     147.505 168.361 189.023  0.00  0.00    +0.070 C 
ATOM     59  H   UNL     1     148.516 168.563 189.401  0.00  0.00    +0.061 HD
BRANCH  58  60
ATOM     60  C   UNL     1     147.227 166.836 189.252  0.00  0.00    +0.002 C 
ATOM     61  H   UNL     1     146.376 166.774 189.943  0.00  0.00    +0.037 HD
BRANCH  60  62
ATOM     62  C   UNL     1     148.385 166.129 189.966  0.00  0.00    -0.057 C 
ATOM     63  H   UNL     1     148.323 165.040 189.867  0.00  0.00    +0.024 HD
ATOM     64  H   UNL     1     149.348 166.458 189.562  0.00  0.00    +0.024 HD
ATOM     65  H   UNL     1     148.374 166.355 191.039  0.00  0.00    +0.024 HD
ENDBRANCH  60  62
BRANCH  60  66
ATOM     66  C   UNL     1     146.832 166.028 188.025  0.00  0.00    -0.065 C 
ATOM     67  C   UNL     1     147.540 165.009 187.514  0.00  0.00    -0.005 C 
ATOM     68  H   UNL     1     145.884 166.333 187.584  0.00  0.00    +0.059 HD
ATOM     69  H   UNL     1     148.481 164.732 187.997  0.00  0.00    +0.078 HD
BRANCH  67  70
ATOM     70  N   UNL     1     147.205 164.210 186.436  0.00  0.00    -0.284 N 
ATOM     71  C   UNL     1     147.040 164.649 185.127  0.00  0.00    +0.206 C 
ATOM     72  O   UNL     1     146.684 163.958 184.175  0.00  0.00    -0.279 OA
ATOM     73  H   UNL     1     147.251 165.721 184.979  0.00  0.00    +0.126 HD
BRANCH  70  74
ATOM     74  C   UNL     1     146.973 162.795 186.716  0.00  0.00    +0.007 C 
ATOM     75  H   UNL     1     147.794 162.421 187.343  0.00  0.00    +0.043 HD
ATOM     76  H   UNL     1     146.958 162.243 185.768  0.00  0.00    +0.043 HD
ATOM     77  H   UNL     1     146.023 162.623 187.228  0.00  0.00    +0.043 HD
ENDBRANCH  70  74
ENDBRANCH  67  70
ENDBRANCH  60  66
ENDBRANCH  58  60
BRANCH  58  78
ATOM     78  O   UNL     1     147.446 168.643 187.615  0.00  0.00    -0.379 OA
BRANCH  78  79
ATOM     79  C   UNL     1     146.859 169.902 187.303  0.00  0.00    +0.037 C 
ATOM     80  H   UNL     1     145.774 169.862 187.434  0.00  0.00    +0.052 HD
ATOM     81  H   UNL     1     147.282 170.697 187.923  0.00  0.00    +0.052 HD
ATOM     82  H   UNL     1     147.078 170.129 186.257  0.00  0.00    +0.052 HD
ENDBRANCH  78  79
ENDBRANCH  58  78
ENDBRANCH  52  58
ENDBRANCH  50  52
BRANCH  50  83
ATOM     83  O   UNL     1     147.795 171.303 190.504  0.00  0.00    -0.459 OA
BRANCH  83  85
ATOM     84  O   UNL     1     146.075 172.680 189.845  0.00  0.00    -0.248 OA
ATOM     85  C   UNL     1     147.068 172.456 190.528  0.00  0.00    +0.337 C 
BRANCH  85  86
ATOM     86  C   UNL     1     147.619 173.428 191.579  0.00  0.00    +0.155 C 
ATOM     87  O   UNL     1     149.025 173.300 191.872  0.00  0.00    -0.365 OA
ATOM     88  C   UNL     1     149.175 172.935 193.252  0.00  0.00    +0.049 C 
ATOM     89  C   UNL     1     147.937 173.473 193.940  0.00  0.00    -0.027 C 
ATOM     90  C   UNL     1     146.875 173.218 192.899  0.00  0.00    -0.014 C 
ATOM     91  H   UNL     1     147.474 174.445 191.192  0.00  0.00    +0.071 HD
ATOM     92  H   UNL     1     150.099 173.368 193.644  0.00  0.00    +0.056 HD
ATOM     93  H   UNL     1     149.236 171.843 193.323  0.00  0.00    +0.056 HD
ATOM     94  H   UNL     1     148.034 174.550 194.107  0.00  0.00    +0.029 HD
ATOM     95  H   UNL     1     147.741 172.982 194.899  0.00  0.00    +0.029 HD
ATOM     96  H   UNL     1     146.503 172.185 192.992  0.00  0.00    +0.030 HD
ATOM     97  H   UNL     1     146.011 173.887 192.999  0.00  0.00    +0.030 HD
ENDBRANCH  85  86
ENDBRANCH  83  85
ENDBRANCH  50  83
ENDBRANCH   1  50
TORSDOF 31
ENDMDL
MODEL 7
REMARK VINA RESULT:      -4.9      3.254      8.642
REMARK  Name = 2u_conf3
REMARK  31 active torsions:
REMARK  status: ('A' for Active; 'I' for Inactive)
REMARK    1  A    between atoms: C_2  and  C_3
REMARK    2  A    between atoms: C_2  and  O_8
REMARK    3  A    between atoms: O_8  and  C_9
REMARK    4  A    between atoms: C_9  and  C_10
REMARK    5  A    between atoms: C_9  and  C_29
REMARK    6  A    between atoms: C_10  and  C_11
REMARK    7  A    between atoms: C_11  and  C_12
REMARK    8  A    between atoms: C_12  and  C_13
REMARK    9  A    between atoms: C_12  and  C_14
REMARK   10  A    between atoms: C_14  and  O_15
REMARK   11  A    between atoms: C_14  and  C_17
REMARK   12  A    between atoms: O_15  and  C_16
REMARK   13  A    between atoms: C_17  and  C_18
REMARK   14  A    between atoms: C_18  and  O_19
REMARK   15  A    between atoms: C_18  and  C_26
REMARK   16  A    between atoms: O_19  and  C_20
REMARK   17  A    between atoms: C_20  and  C_21
REMARK   18  A    between atoms: C_21  and  C_22
REMARK   19  A    between atoms: C_22  and  C_23
REMARK   20  A    between atoms: C_23  and  N_24
REMARK   21  A    between atoms: C_26  and  C_27
REMARK   22  A    between atoms: C_26  and  C_28
REMARK   23  A    between atoms: C_29  and  C_30
REMARK   24  A    between atoms: C_29  and  C_31
REMARK   25  A    between atoms: C_31  and  O_32
REMARK   26  A    between atoms: C_31  and  C_34
REMARK   27  A    between atoms: O_32  and  C_33
REMARK   28  A    between atoms: C_34  and  C_35
REMARK   29  A    between atoms: C_34  and  C_36
REMARK   30  A    between atoms: C_37  and  N_38
REMARK   31  A    between atoms: N_38  and  C_39
REMARK                            x       y       z     vdW  Elec       q    Type
REMARK                         _______ _______ _______ _____ _____    ______ ____
ROOT
ATOM      1  C   UNL     1     148.624 168.459 190.643  0.00  0.00    -0.015 C 
ATOM      2  H   UNL     1     147.703 167.949 190.355  0.00  0.00    +0.030 HD
ATOM      3  H   UNL     1     148.993 169.020 189.781  0.00  0.00    +0.030 HD
ENDROOT
BRANCH   1   4
ATOM      4  C   UNL     1     148.313 169.451 191.777  0.00  0.00    -0.045 C 
ATOM      5  H   UNL     1     148.805 169.085 192.688  0.00  0.00    +0.027 HD
ATOM      6  H   UNL     1     147.244 169.451 192.007  0.00  0.00    +0.027 HD
BRANCH   4   7
ATOM      7  C   UNL     1     148.778 170.899 191.516  0.00  0.00    -0.017 C 
ATOM      8  H   UNL     1     148.842 171.031 190.428  0.00  0.00    +0.032 HD
BRANCH   7   9
ATOM      9  C   UNL     1     150.200 171.040 192.087  0.00  0.00    -0.060 C 
ATOM     10  H   UNL     1     150.894 170.347 191.601  0.00  0.00    +0.023 HD
ATOM     11  H   UNL     1     150.578 172.057 191.939  0.00  0.00    +0.023 HD
ATOM     12  H   UNL     1     150.222 170.849 193.164  0.00  0.00    +0.023 HD
ENDBRANCH   7   9
BRANCH   7  13
ATOM     13  C   UNL     1     147.822 171.990 192.076  0.00  0.00    +0.064 C 
ATOM     14  H   UNL     1     146.858 171.531 192.325  0.00  0.00    +0.060 HD
BRANCH  13  15
ATOM     15  C   UNL     1     147.579 173.099 191.021  0.00  0.00    +0.011 C 
ATOM     16  H   UNL     1     148.391 173.069 190.284  0.00  0.00    +0.033 HD
ATOM     17  H   UNL     1     147.627 174.077 191.514  0.00  0.00    +0.033 HD
BRANCH  15  18
ATOM     18  C   UNL     1     146.225 172.964 190.292  0.00  0.00    +0.108 C 
ATOM     19  H   UNL     1     145.754 173.946 190.163  0.00  0.00    +0.074 HD
BRANCH  18  20
ATOM     20  C   UNL     1     146.252 172.272 188.905  0.00  0.00    -0.009 C 
ATOM     21  H   UNL     1     147.249 172.474 188.480  0.00  0.00    +0.033 HD
BRANCH  20  22
ATOM     22  C   UNL     1     146.098 170.750 188.982  0.00  0.00    -0.059 C 
ATOM     23  H   UNL     1     147.043 170.234 188.780  0.00  0.00    +0.023 HD
ATOM     24  H   UNL     1     145.341 170.398 188.272  0.00  0.00    +0.023 HD
ATOM     25  H   UNL     1     145.766 170.453 189.984  0.00  0.00    +0.023 HD
ENDBRANCH  20  22
BRANCH  20  26
ATOM     26  C   UNL     1     145.239 172.856 187.909  0.00  0.00    -0.059 C 
ATOM     27  H   UNL     1     144.452 172.122 187.696  0.00  0.00    +0.023 HD
ATOM     28  H   UNL     1     145.713 173.113 186.952  0.00  0.00    +0.023 HD
ATOM     29  H   UNL     1     144.749 173.757 188.300  0.00  0.00    +0.023 HD
ENDBRANCH  20  26
ENDBRANCH  18  20
BRANCH  18  30
ATOM     30  O   UNL     1     145.371 172.132 191.121  0.00  0.00    -0.461 OA
BRANCH  30  31
ATOM     31  C   UNL     1     144.149 172.634 191.459  0.00  0.00    +0.307 C 
ATOM     32  O   UNL     1     143.074 172.101 191.231  0.00  0.00    -0.251 OA
BRANCH  31  33
ATOM     33  C   UNL     1     144.324 173.983 192.120  0.00  0.00    +0.046 C 
ATOM     34  H   UNL     1     144.366 173.862 193.212  0.00  0.00    +0.038 HD
ATOM     35  H   UNL     1     145.290 174.382 191.789  0.00  0.00    +0.038 HD
BRANCH  33  36
ATOM     36  C   UNL     1     143.201 174.955 191.756  0.00  0.00    -0.031 C 
ATOM     37  H   UNL     1     142.344 174.409 191.337  0.00  0.00    +0.028 HD
ATOM     38  H   UNL     1     143.573 175.630 190.967  0.00  0.00    +0.028 HD
BRANCH  36  39
ATOM     39  C   UNL     1     142.758 175.783 192.960  0.00  0.00    -0.006 C 
ATOM     40  H   UNL     1     141.851 175.353 193.401  0.00  0.00    +0.042 HD
ATOM     41  H   UNL     1     142.525 176.812 192.666  0.00  0.00    +0.042 HD
BRANCH  39  42
ATOM     42  N   UNL     1     143.808 175.799 193.971  0.00  0.00    -0.330 NA
ATOM     43  H   UNL     1     144.589 175.232 193.654  0.00  0.00    +0.118 HD
ATOM     44  H   UNL     1     143.466 175.379 194.838  0.00  0.00    +0.118 HD
ENDBRANCH  39  42
ENDBRANCH  36  39
ENDBRANCH  33  36
ENDBRANCH  31  33
ENDBRANCH  30  31
ENDBRANCH  18  30
ENDBRANCH  15  18
ENDBRANCH  13  15
BRANCH  13  45
ATOM     45  O   UNL     1     148.411 172.619 193.218  0.00  0.00    -0.379 OA
BRANCH  45  46
ATOM     46  C   UNL     1     147.592 173.603 193.831  0.00  0.00    +0.037 C 
ATOM     47  H   UNL     1     147.319 174.338 193.069  0.00  0.00    +0.052 HD
ATOM     48  H   UNL     1     148.135 174.120 194.626  0.00  0.00    +0.052 HD
ATOM     49  H   UNL     1     146.666 173.157 194.220  0.00  0.00    +0.052 HD
ENDBRANCH  45  46
ENDBRANCH  13  45
ENDBRANCH   7  13
ENDBRANCH   4   7
ENDBRANCH   1   4
BRANCH   1  50
ATOM     50  C   UNL     1     149.665 167.412 191.094  0.00  0.00    +0.108 C 
ATOM     51  H   UNL     1     149.404 166.460 190.607  0.00  0.00    +0.074 HD
BRANCH  50  52
ATOM     52  C   UNL     1     149.730 167.170 192.636  0.00  0.00    +0.020 C 
ATOM     53  H   UNL     1     149.345 168.089 193.094  0.00  0.00    +0.036 HD
BRANCH  52  54
ATOM     54  C   UNL     1     151.197 167.020 193.070  0.00  0.00    -0.057 C 
ATOM     55  H   UNL     1     151.325 167.264 194.132  0.00  0.00    +0.023 HD
ATOM     56  H   UNL     1     151.848 167.696 192.506  0.00  0.00    +0.023 HD
ATOM     57  H   UNL     1     151.556 165.998 192.920  0.00  0.00    +0.023 HD
ENDBRANCH  52  54
BRANCH  52  58
ATOM     58  C   UNL     1     148.830 166.004 193.154  0.00  0.00    +0.070 C 
ATOM     59  H   UNL     1     149.383 165.477 193.944  0.00  0.00    +0.061 HD
BRANCH  58  60
ATOM     60  C   UNL     1     147.476 166.482 193.782  0.00  0.00    +0.002 C 
ATOM     61  H   UNL     1     147.635 167.515 194.117  0.00  0.00    +0.037 HD
BRANCH  60  62
ATOM     62  C   UNL     1     147.105 165.694 195.044  0.00  0.00    -0.057 C 
ATOM     63  H   UNL     1     146.082 165.908 195.372  0.00  0.00    +0.024 HD
ATOM     64  H   UNL     1     147.193 164.617 194.869  0.00  0.00    +0.024 HD
ATOM     65  H   UNL     1     147.771 165.958 195.875  0.00  0.00    +0.024 HD
ENDBRANCH  60  62
BRANCH  60  66
ATOM     66  C   UNL     1     146.275 166.523 192.849  0.00  0.00    -0.065 C 
ATOM     67  C   UNL     1     145.009 166.264 193.213  0.00  0.00    -0.005 C 
ATOM     68  H   UNL     1     146.521 166.810 191.828  0.00  0.00    +0.059 HD
ATOM     69  H   UNL     1     144.809 165.990 194.252  0.00  0.00    +0.078 HD
BRANCH  67  70
ATOM     70  N   UNL     1     143.877 166.336 192.423  0.00  0.00    -0.284 N 
ATOM     71  C   UNL     1     142.574 166.476 192.889  0.00  0.00    +0.206 C 
ATOM     72  O   UNL     1     141.558 166.481 192.199  0.00  0.00    -0.279 OA
ATOM     73  H   UNL     1     142.496 166.583 193.984  0.00  0.00    +0.126 HD
BRANCH  70  74
ATOM     74  C   UNL     1     144.076 166.217 190.980  0.00  0.00    +0.007 C 
ATOM     75  H   UNL     1     143.579 165.302 190.630  0.00  0.00    +0.043 HD
ATOM     76  H   UNL     1     145.152 166.150 190.774  0.00  0.00    +0.043 HD
ATOM     77  H   UNL     1     143.676 167.075 190.433  0.00  0.00    +0.043 HD
ENDBRANCH  70  74
ENDBRANCH  67  70
ENDBRANCH  60  66
ENDBRANCH  58  60
BRANCH  58  78
ATOM     78  O   UNL     1     148.553 165.102 192.070  0.00  0.00    -0.379 OA
BRANCH  78  79
ATOM     79  C   UNL     1     149.168 163.825 192.210  0.00  0.00    +0.037 C 
ATOM     80  H   UNL     1     149.790 163.795 193.109  0.00  0.00    +0.052 HD
ATOM     81  H   UNL     1     148.418 163.031 192.247  0.00  0.00    +0.052 HD
ATOM     82  H   UNL     1     149.804 163.657 191.337  0.00  0.00    +0.052 HD
ENDBRANCH  78  79
ENDBRANCH  58  78
ENDBRANCH  52  58
ENDBRANCH  50  52
BRANCH  50  83
ATOM     83  O   UNL     1     150.930 167.858 190.572  0.00  0.00    -0.459 OA
BRANCH  83  85
ATOM     84  O   UNL     1     150.787 166.922 188.477  0.00  0.00    -0.248 OA
ATOM     85  C   UNL     1     151.425 167.199 189.486  0.00  0.00    +0.337 C 
BRANCH  85  86
ATOM     86  C   UNL     1     152.920 166.901 189.661  0.00  0.00    +0.155 C 
ATOM     87  O   UNL     1     153.777 167.355 188.593  0.00  0.00    -0.365 OA
ATOM     88  C   UNL     1     154.407 166.213 187.994  0.00  0.00    +0.049 C 
ATOM     89  C   UNL     1     154.447 165.165 189.087  0.00  0.00    -0.027 C 
ATOM     90  C   UNL     1     153.122 165.388 189.773  0.00  0.00    -0.014 C 
ATOM     91  H   UNL     1     153.252 167.421 190.569  0.00  0.00    +0.071 HD
ATOM     92  H   UNL     1     155.403 166.493 187.640  0.00  0.00    +0.056 HD
ATOM     93  H   UNL     1     153.804 165.885 187.140  0.00  0.00    +0.056 HD
ATOM     94  H   UNL     1     155.261 165.377 189.787  0.00  0.00    +0.029 HD
ATOM     95  H   UNL     1     154.573 164.151 188.693  0.00  0.00    +0.029 HD
ATOM     96  H   UNL     1     152.330 164.836 189.243  0.00  0.00    +0.030 HD
ATOM     97  H   UNL     1     153.117 165.046 190.815  0.00  0.00    +0.030 HD
ENDBRANCH  85  86
ENDBRANCH  83  85
ENDBRANCH  50  83
ENDBRANCH   1  50
TORSDOF 31
ENDMDL
MODEL 8
REMARK VINA RESULT:      -4.8      2.728      4.913
REMARK  Name = 2u_conf3
REMARK  31 active torsions:
REMARK  status: ('A' for Active; 'I' for Inactive)
REMARK    1  A    between atoms: C_2  and  C_3
REMARK    2  A    between atoms: C_2  and  O_8
REMARK    3  A    between atoms: O_8  and  C_9
REMARK    4  A    between atoms: C_9  and  C_10
REMARK    5  A    between atoms: C_9  and  C_29
REMARK    6  A    between atoms: C_10  and  C_11
REMARK    7  A    between atoms: C_11  and  C_12
REMARK    8  A    between atoms: C_12  and  C_13
REMARK    9  A    between atoms: C_12  and  C_14
REMARK   10  A    between atoms: C_14  and  O_15
REMARK   11  A    between atoms: C_14  and  C_17
REMARK   12  A    between atoms: O_15  and  C_16
REMARK   13  A    between atoms: C_17  and  C_18
REMARK   14  A    between atoms: C_18  and  O_19
REMARK   15  A    between atoms: C_18  and  C_26
REMARK   16  A    between atoms: O_19  and  C_20
REMARK   17  A    between atoms: C_20  and  C_21
REMARK   18  A    between atoms: C_21  and  C_22
REMARK   19  A    between atoms: C_22  and  C_23
REMARK   20  A    between atoms: C_23  and  N_24
REMARK   21  A    between atoms: C_26  and  C_27
REMARK   22  A    between atoms: C_26  and  C_28
REMARK   23  A    between atoms: C_29  and  C_30
REMARK   24  A    between atoms: C_29  and  C_31
REMARK   25  A    between atoms: C_31  and  O_32
REMARK   26  A    between atoms: C_31  and  C_34
REMARK   27  A    between atoms: O_32  and  C_33
REMARK   28  A    between atoms: C_34  and  C_35
REMARK   29  A    between atoms: C_34  and  C_36
REMARK   30  A    between atoms: C_37  and  N_38
REMARK   31  A    between atoms: N_38  and  C_39
REMARK                            x       y       z     vdW  Elec       q    Type
REMARK                         _______ _______ _______ _____ _____    ______ ____
ROOT
ATOM      1  C   UNL     1     147.922 169.758 190.950  0.00  0.00    -0.015 C 
ATOM      2  H   UNL     1     147.989 169.626 192.031  0.00  0.00    +0.030 HD
ATOM      3  H   UNL     1     148.755 170.384 190.625  0.00  0.00    +0.030 HD
ENDROOT
BRANCH   1   4
ATOM      4  C   UNL     1     148.050 168.383 190.271  0.00  0.00    -0.045 C 
ATOM      5  H   UNL     1     148.773 168.479 189.450  0.00  0.00    +0.027 HD
ATOM      6  H   UNL     1     147.108 168.100 189.792  0.00  0.00    +0.027 HD
BRANCH   4   7
ATOM      7  C   UNL     1     148.511 167.242 191.201  0.00  0.00    -0.017 C 
ATOM      8  H   UNL     1     149.592 167.359 191.350  0.00  0.00    +0.032 HD
BRANCH   7   9
ATOM      9  C   UNL     1     148.284 165.915 190.456  0.00  0.00    -0.060 C 
ATOM     10  H   UNL     1     147.714 166.069 189.533  0.00  0.00    +0.023 HD
ATOM     11  H   UNL     1     149.239 165.450 190.190  0.00  0.00    +0.023 HD
ATOM     12  H   UNL     1     147.744 165.193 191.075  0.00  0.00    +0.023 HD
ENDBRANCH   7   9
BRANCH   7  13
ATOM     13  C   UNL     1     147.832 167.240 192.599  0.00  0.00    +0.064 C 
ATOM     14  H   UNL     1     148.159 168.124 193.160  0.00  0.00    +0.060 HD
BRANCH  13  15
ATOM     15  C   UNL     1     148.233 165.976 193.401  0.00  0.00    +0.011 C 
ATOM     16  H   UNL     1     148.339 165.135 192.704  0.00  0.00    +0.033 HD
ATOM     17  H   UNL     1     147.421 165.720 194.092  0.00  0.00    +0.033 HD
BRANCH  15  18
ATOM     18  C   UNL     1     149.544 166.145 194.197  0.00  0.00    +0.108 C 
ATOM     19  H   UNL     1     149.936 167.163 194.087  0.00  0.00    +0.074 HD
BRANCH  18  20
ATOM     20  C   UNL     1     149.478 165.832 195.714  0.00  0.00    -0.009 C 
ATOM     21  H   UNL     1     149.259 164.755 195.796  0.00  0.00    +0.033 HD
BRANCH  20  22
ATOM     22  C   UNL     1     150.802 166.075 196.443  0.00  0.00    -0.059 C 
ATOM     23  H   UNL     1     150.664 166.149 197.527  0.00  0.00    +0.023 HD
ATOM     24  H   UNL     1     151.283 166.993 196.083  0.00  0.00    +0.023 HD
ATOM     25  H   UNL     1     151.498 165.249 196.253  0.00  0.00    +0.023 HD
ENDBRANCH  20  22
BRANCH  20  26
ATOM     26  C   UNL     1     148.333 166.555 196.441  0.00  0.00    -0.059 C 
ATOM     27  H   UNL     1     148.543 166.607 197.516  0.00  0.00    +0.023 HD
ATOM     28  H   UNL     1     147.378 166.028 196.318  0.00  0.00    +0.023 HD
ATOM     29  H   UNL     1     148.204 167.584 196.082  0.00  0.00    +0.023 HD
ENDBRANCH  20  26
ENDBRANCH  18  20
BRANCH  18  30
ATOM     30  O   UNL     1     150.504 165.204 193.651  0.00  0.00    -0.461 OA
BRANCH  30  31
ATOM     31  C   UNL     1     151.308 165.645 192.643  0.00  0.00    +0.307 C 
ATOM     32  O   UNL     1     151.564 165.032 191.617  0.00  0.00    -0.251 OA
BRANCH  31  33
ATOM     33  C   UNL     1     151.881 166.996 193.010  0.00  0.00    +0.046 C 
ATOM     34  H   UNL     1     151.219 167.500 193.729  0.00  0.00    +0.038 HD
ATOM     35  H   UNL     1     152.842 166.816 193.506  0.00  0.00    +0.038 HD
BRANCH  33  36
ATOM     36  C   UNL     1     152.082 167.891 191.786  0.00  0.00    -0.031 C 
ATOM     37  H   UNL     1     151.641 167.423 190.894  0.00  0.00    +0.028 HD
ATOM     38  H   UNL     1     153.165 167.983 191.603  0.00  0.00    +0.028 HD
BRANCH  36  39
ATOM     39  C   UNL     1     151.487 169.281 191.998  0.00  0.00    -0.006 C 
ATOM     40  H   UNL     1     151.960 169.767 192.859  0.00  0.00    +0.042 HD
ATOM     41  H   UNL     1     150.413 169.223 192.203  0.00  0.00    +0.042 HD
BRANCH  39  42
ATOM     42  N   UNL     1     151.707 170.105 190.816  0.00  0.00    -0.330 NA
ATOM     43  H   UNL     1     150.942 170.765 190.719  0.00  0.00    +0.118 HD
ATOM     44  H   UNL     1     151.708 169.522 189.976  0.00  0.00    +0.118 HD
ENDBRANCH  39  42
ENDBRANCH  36  39
ENDBRANCH  33  36
ENDBRANCH  31  33
ENDBRANCH  30  31
ENDBRANCH  18  30
ENDBRANCH  15  18
ENDBRANCH  13  15
BRANCH  13  45
ATOM     45  O   UNL     1     146.410 167.212 192.454  0.00  0.00    -0.379 OA
BRANCH  45  46
ATOM     46  C   UNL     1     145.766 166.191 193.201  0.00  0.00    +0.037 C 
ATOM     47  H   UNL     1     145.736 166.506 194.248  0.00  0.00    +0.052 HD
ATOM     48  H   UNL     1     146.325 165.254 193.142  0.00  0.00    +0.052 HD
ATOM     49  H   UNL     1     144.731 166.047 192.861  0.00  0.00    +0.052 HD
ENDBRANCH  45  46
ENDBRANCH  13  45
ENDBRANCH   7  13
ENDBRANCH   4   7
ENDBRANCH   1   4
BRANCH   1  50
ATOM     50  C   UNL     1     146.574 170.424 190.601  0.00  0.00    +0.108 C 
ATOM     51  H   UNL     1     145.962 170.421 191.516  0.00  0.00    +0.074 HD
BRANCH  50  52
ATOM     52  C   UNL     1     145.764 169.718 189.468  0.00  0.00    +0.020 C 
ATOM     53  H   UNL     1     146.235 168.735 189.338  0.00  0.00    +0.036 HD
BRANCH  52  54
ATOM     54  C   UNL     1     145.943 170.491 188.151  0.00  0.00    -0.057 C 
ATOM     55  H   UNL     1     146.795 170.108 187.577  0.00  0.00    +0.023 HD
ATOM     56  H   UNL     1     146.137 171.552 188.339  0.00  0.00    +0.023 HD
ATOM     57  H   UNL     1     145.055 170.414 187.518  0.00  0.00    +0.023 HD
ENDBRANCH  52  54
BRANCH  52  58
ATOM     58  C   UNL     1     144.263 169.450 189.805  0.00  0.00    +0.070 C 
ATOM     59  H   UNL     1     143.653 170.116 189.180  0.00  0.00    +0.061 HD
BRANCH  58  60
ATOM     60  C   UNL     1     143.800 167.983 189.502  0.00  0.00    +0.002 C 
ATOM     61  H   UNL     1     143.330 167.608 190.420  0.00  0.00    +0.037 HD
BRANCH  60  62
ATOM     62  C   UNL     1     144.979 167.041 189.231  0.00  0.00    -0.057 C 
ATOM     63  H   UNL     1     145.278 166.493 190.131  0.00  0.00    +0.024 HD
ATOM     64  H   UNL     1     144.723 166.314 188.453  0.00  0.00    +0.024 HD
ATOM     65  H   UNL     1     145.855 167.605 188.891  0.00  0.00    +0.024 HD
ENDBRANCH  60  62
BRANCH  60  66
ATOM     66  C   UNL     1     142.764 167.815 188.400  0.00  0.00    -0.065 C 
ATOM     67  C   UNL     1     141.778 166.904 188.404  0.00  0.00    -0.005 C 
ATOM     68  H   UNL     1     142.870 168.528 187.585  0.00  0.00    +0.059 HD
ATOM     69  H   UNL     1     141.706 166.215 189.250  0.00  0.00    +0.078 HD
BRANCH  67  70
ATOM     70  N   UNL     1     140.783 166.740 187.458  0.00  0.00    -0.284 N 
ATOM     71  C   UNL     1     139.994 167.757 186.932  0.00  0.00    +0.206 C 
ATOM     72  O   UNL     1     139.068 167.613 186.137  0.00  0.00    -0.279 OA
ATOM     73  H   UNL     1     140.255 168.765 187.295  0.00  0.00    +0.126 HD
BRANCH  70  74
ATOM     74  C   UNL     1     140.525 165.374 187.009  0.00  0.00    +0.007 C 
ATOM     75  H   UNL     1     140.566 164.703 187.878  0.00  0.00    +0.043 HD
ATOM     76  H   UNL     1     141.300 165.084 186.288  0.00  0.00    +0.043 HD
ATOM     77  H   UNL     1     139.550 165.273 186.523  0.00  0.00    +0.043 HD
ENDBRANCH  70  74
ENDBRANCH  67  70
ENDBRANCH  60  66
ENDBRANCH  58  60
BRANCH  58  78
ATOM     78  O   UNL     1     144.031 169.738 191.193  0.00  0.00    -0.379 OA
BRANCH  78  79
ATOM     79  C   UNL     1     142.746 170.290 191.461  0.00  0.00    +0.037 C 
ATOM     80  H   UNL     1     142.521 171.098 190.759  0.00  0.00    +0.052 HD
ATOM     81  H   UNL     1     141.970 169.521 191.409  0.00  0.00    +0.052 HD
ATOM     82  H   UNL     1     142.756 170.699 192.475  0.00  0.00    +0.052 HD
ENDBRANCH  78  79
ENDBRANCH  58  78
ENDBRANCH  52  58
ENDBRANCH  50  52
BRANCH  50  83
ATOM     83  O   UNL     1     146.881 171.789 190.264  0.00  0.00    -0.459 OA
BRANCH  83  85
ATOM     84  O   UNL     1     145.174 172.986 191.233  0.00  0.00    -0.248 OA
ATOM     85  C   UNL     1     146.367 172.762 191.069  0.00  0.00    +0.337 C 
BRANCH  85  86
ATOM     86  C   UNL     1     147.486 173.511 191.805  0.00  0.00    +0.155 C 
ATOM     87  O   UNL     1     148.830 173.098 191.483  0.00  0.00    -0.365 OA
ATOM     88  C   UNL     1     149.448 172.580 192.671  0.00  0.00    +0.049 C 
ATOM     89  C   UNL     1     148.737 173.269 193.818  0.00  0.00    -0.027 C 
ATOM     90  C   UNL     1     147.316 173.315 193.313  0.00  0.00    -0.014 C 
ATOM     91  H   UNL     1     147.410 174.569 191.524  0.00  0.00    +0.071 HD
ATOM     92  H   UNL     1     150.519 172.797 192.646  0.00  0.00    +0.056 HD
ATOM     93  H   UNL     1     149.304 171.495 192.699  0.00  0.00    +0.056 HD
ATOM     94  H   UNL     1     149.115 174.289 193.941  0.00  0.00    +0.029 HD
ATOM     95  H   UNL     1     148.850 172.733 194.766  0.00  0.00    +0.029 HD
ATOM     96  H   UNL     1     146.808 172.365 193.541  0.00  0.00    +0.030 HD
ATOM     97  H   UNL     1     146.726 174.119 193.771  0.00  0.00    +0.030 HD
ENDBRANCH  85  86
ENDBRANCH  83  85
ENDBRANCH  50  83
ENDBRANCH   1  50
TORSDOF 31
ENDMDL
MODEL 9
REMARK VINA RESULT:      -4.8      2.108      4.216
REMARK  Name = 2u_conf3
REMARK  31 active torsions:
REMARK  status: ('A' for Active; 'I' for Inactive)
REMARK    1  A    between atoms: C_2  and  C_3
REMARK    2  A    between atoms: C_2  and  O_8
REMARK    3  A    between atoms: O_8  and  C_9
REMARK    4  A    between atoms: C_9  and  C_10
REMARK    5  A    between atoms: C_9  and  C_29
REMARK    6  A    between atoms: C_10  and  C_11
REMARK    7  A    between atoms: C_11  and  C_12
REMARK    8  A    between atoms: C_12  and  C_13
REMARK    9  A    between atoms: C_12  and  C_14
REMARK   10  A    between atoms: C_14  and  O_15
REMARK   11  A    between atoms: C_14  and  C_17
REMARK   12  A    between atoms: O_15  and  C_16
REMARK   13  A    between atoms: C_17  and  C_18
REMARK   14  A    between atoms: C_18  and  O_19
REMARK   15  A    between atoms: C_18  and  C_26
REMARK   16  A    between atoms: O_19  and  C_20
REMARK   17  A    between atoms: C_20  and  C_21
REMARK   18  A    between atoms: C_21  and  C_22
REMARK   19  A    between atoms: C_22  and  C_23
REMARK   20  A    between atoms: C_23  and  N_24
REMARK   21  A    between atoms: C_26  and  C_27
REMARK   22  A    between atoms: C_26  and  C_28
REMARK   23  A    between atoms: C_29  and  C_30
REMARK   24  A    between atoms: C_29  and  C_31
REMARK   25  A    between atoms: C_31  and  O_32
REMARK   26  A    between atoms: C_31  and  C_34
REMARK   27  A    between atoms: O_32  and  C_33
REMARK   28  A    between atoms: C_34  and  C_35
REMARK   29  A    between atoms: C_34  and  C_36
REMARK   30  A    between atoms: C_37  and  N_38
REMARK   31  A    between atoms: N_38  and  C_39
REMARK                            x       y       z     vdW  Elec       q    Type
REMARK                         _______ _______ _______ _____ _____    ______ ____
ROOT
ATOM      1  C   UNL     1     148.851 168.885 191.012  0.00  0.00    -0.015 C 
ATOM      2  H   UNL     1     149.555 169.717 190.952  0.00  0.00    +0.030 HD
ATOM      3  H   UNL     1     149.338 167.990 190.619  0.00  0.00    +0.030 HD
ENDROOT
BRANCH   1   4
ATOM      4  C   UNL     1     148.495 168.638 192.489  0.00  0.00    -0.045 C 
ATOM      5  H   UNL     1     147.415 168.802 192.606  0.00  0.00    +0.027 HD
ATOM      6  H   UNL     1     148.970 169.386 193.131  0.00  0.00    +0.027 HD
BRANCH   4   7
ATOM      7  C   UNL     1     148.837 167.227 193.011  0.00  0.00    -0.017 C 
ATOM      8  H   UNL     1     148.870 166.557 192.143  0.00  0.00    +0.032 HD
BRANCH   7   9
ATOM      9  C   UNL     1     147.674 166.770 193.909  0.00  0.00    -0.060 C 
ATOM     10  H   UNL     1     147.742 165.700 194.133  0.00  0.00    +0.023 HD
ATOM     11  H   UNL     1     147.679 167.315 194.858  0.00  0.00    +0.023 HD
ATOM     12  H   UNL     1     146.704 166.961 193.441  0.00  0.00    +0.023 HD
ENDBRANCH   7   9
BRANCH   7  13
ATOM     13  C   UNL     1     150.204 167.129 193.746  0.00  0.00    +0.064 C 
ATOM     14  H   UNL     1     150.490 168.123 194.109  0.00  0.00    +0.060 HD
BRANCH  13  15
ATOM     15  C   UNL     1     151.308 166.623 192.783  0.00  0.00    +0.011 C 
ATOM     16  H   UNL     1     151.993 165.974 193.342  0.00  0.00    +0.033 HD
ATOM     17  H   UNL     1     151.893 167.480 192.431  0.00  0.00    +0.033 HD
BRANCH  15  18
ATOM     18  C   UNL     1     150.754 165.852 191.567  0.00  0.00    +0.108 C 
ATOM     19  H   UNL     1     149.669 165.983 191.485  0.00  0.00    +0.074 HD
BRANCH  18  20
ATOM     20  C   UNL     1     151.373 166.197 190.188  0.00  0.00    -0.009 C 
ATOM     21  H   UNL     1     151.567 167.282 190.201  0.00  0.00    +0.033 HD
BRANCH  20  22
ATOM     22  C   UNL     1     152.716 165.506 189.935  0.00  0.00    -0.059 C 
ATOM     23  H   UNL     1     152.913 164.715 190.667  0.00  0.00    +0.023 HD
ATOM     24  H   UNL     1     153.539 166.230 189.963  0.00  0.00    +0.023 HD
ATOM     25  H   UNL     1     152.724 165.045 188.940  0.00  0.00    +0.023 HD
ENDBRANCH  20  22
BRANCH  20  26
ATOM     26  C   UNL     1     150.420 165.949 189.009  0.00  0.00    -0.059 C 
ATOM     27  H   UNL     1     150.970 165.517 188.164  0.00  0.00    +0.023 HD
ATOM     28  H   UNL     1     149.959 166.881 188.657  0.00  0.00    +0.023 HD
ATOM     29  H   UNL     1     149.617 165.249 189.269  0.00  0.00    +0.023 HD
ENDBRANCH  20  26
ENDBRANCH  18  20
BRANCH  18  30
ATOM     30  O   UNL     1     151.048 164.445 191.779  0.00  0.00    -0.461 OA
BRANCH  30  31
ATOM     31  C   UNL     1     149.988 163.601 191.925  0.00  0.00    +0.307 C 
ATOM     32  O   UNL     1     149.145 163.665 192.808  0.00  0.00    -0.251 OA
BRANCH  31  33
ATOM     33  C   UNL     1     150.041 162.535 190.853  0.00  0.00    +0.046 C 
ATOM     34  H   UNL     1     149.407 161.684 191.141  0.00  0.00    +0.038 HD
ATOM     35  H   UNL     1     149.621 162.974 189.941  0.00  0.00    +0.038 HD
BRANCH  33  36
ATOM     36  C   UNL     1     151.466 162.047 190.593  0.00  0.00    -0.031 C 
ATOM     37  H   UNL     1     152.172 162.551 191.269  0.00  0.00    +0.028 HD
ATOM     38  H   UNL     1     151.744 162.330 189.565  0.00  0.00    +0.028 HD
BRANCH  36  39
ATOM     39  C   UNL     1     151.582 160.532 190.748  0.00  0.00    -0.006 C 
ATOM     40  H   UNL     1     152.358 160.286 191.482  0.00  0.00    +0.042 HD
ATOM     41  H   UNL     1     151.863 160.060 189.801  0.00  0.00    +0.042 HD
BRANCH  39  42
ATOM     42  N   UNL     1     150.314 159.977 191.204  0.00  0.00    -0.330 NA
ATOM     43  H   UNL     1     149.597 160.159 190.508  0.00  0.00    +0.118 HD
ATOM     44  H   UNL     1     150.018 160.439 192.066  0.00  0.00    +0.118 HD
ENDBRANCH  39  42
ENDBRANCH  36  39
ENDBRANCH  33  36
ENDBRANCH  31  33
ENDBRANCH  30  31
ENDBRANCH  18  30
ENDBRANCH  15  18
ENDBRANCH  13  15
BRANCH  13  45
ATOM     45  O   UNL     1     150.117 166.186 194.818  0.00  0.00    -0.379 OA
BRANCH  45  46
ATOM     46  C   UNL     1     151.372 165.710 195.280  0.00  0.00    +0.037 C 
ATOM     47  H   UNL     1     151.580 166.185 196.242  0.00  0.00    +0.052 HD
ATOM     48  H   UNL     1     152.171 165.981 194.584  0.00  0.00    +0.052 HD
ATOM     49  H   UNL     1     151.347 164.623 195.436  0.00  0.00    +0.052 HD
ENDBRANCH  45  46
ENDBRANCH  13  45
ENDBRANCH   7  13
ENDBRANCH   4   7
ENDBRANCH   1   4
BRANCH   1  50
ATOM     50  C   UNL     1     147.591 169.224 190.188  0.00  0.00    +0.108 C 
ATOM     51  H   UNL     1     146.718 168.919 190.785  0.00  0.00    +0.074 HD
BRANCH  50  52
ATOM     52  C   UNL     1     147.504 168.519 188.797  0.00  0.00    +0.020 C 
ATOM     53  H   UNL     1     148.542 168.381 188.472  0.00  0.00    +0.036 HD
BRANCH  52  54
ATOM     54  C   UNL     1     146.826 169.460 187.788  0.00  0.00    -0.057 C 
ATOM     55  H   UNL     1     146.980 170.513 188.059  0.00  0.00    +0.023 HD
ATOM     56  H   UNL     1     145.745 169.294 187.756  0.00  0.00    +0.023 HD
ATOM     57  H   UNL     1     147.223 169.317 186.779  0.00  0.00    +0.023 HD
ENDBRANCH  52  54
BRANCH  52  58
ATOM     58  C   UNL     1     146.853 167.100 188.822  0.00  0.00    +0.070 C 
ATOM     59  H   UNL     1     147.611 166.376 188.496  0.00  0.00    +0.061 HD
BRANCH  58  60
ATOM     60  C   UNL     1     146.371 166.652 190.245  0.00  0.00    +0.002 C 
ATOM     61  H   UNL     1     146.862 167.318 190.965  0.00  0.00    +0.037 HD
BRANCH  60  62
ATOM     62  C   UNL     1     146.845 165.238 190.605  0.00  0.00    -0.057 C 
ATOM     63  H   UNL     1     146.103 164.700 191.204  0.00  0.00    +0.024 HD
ATOM     64  H   UNL     1     147.048 164.655 189.701  0.00  0.00    +0.024 HD
ATOM     65  H   UNL     1     147.768 165.279 191.196  0.00  0.00    +0.024 HD
ENDBRANCH  60  62
BRANCH  60  66
ATOM     66  C   UNL     1     144.879 166.761 190.519  0.00  0.00    -0.065 C 
ATOM     67  C   UNL     1     144.264 167.851 191.005  0.00  0.00    -0.005 C 
ATOM     68  H   UNL     1     144.317 165.864 190.263  0.00  0.00    +0.059 HD
ATOM     69  H   UNL     1     144.867 168.733 191.237  0.00  0.00    +0.078 HD
BRANCH  67  70
ATOM     70  N   UNL     1     142.910 168.024 191.225  0.00  0.00    -0.284 N 
ATOM     71  C   UNL     1     142.083 168.897 190.525  0.00  0.00    +0.206 C 
ATOM     72  O   UNL     1     140.893 169.100 190.753  0.00  0.00    -0.279 OA
ATOM     73  H   UNL     1     142.586 169.437 189.707  0.00  0.00    +0.126 HD
BRANCH  70  74
ATOM     74  C   UNL     1     142.317 167.244 192.308  0.00  0.00    +0.007 C 
ATOM     75  H   UNL     1     142.169 167.902 193.176  0.00  0.00    +0.043 HD
ATOM     76  H   UNL     1     143.005 166.433 192.580  0.00  0.00    +0.043 HD
ATOM     77  H   UNL     1     141.359 166.800 192.026  0.00  0.00    +0.043 HD
ENDBRANCH  70  74
ENDBRANCH  67  70
ENDBRANCH  60  66
ENDBRANCH  58  60
BRANCH  58  78
ATOM     78  O   UNL     1     145.736 167.076 187.919  0.00  0.00    -0.379 OA
BRANCH  78  79
ATOM     79  C   UNL     1     145.764 165.992 186.995  0.00  0.00    +0.037 C 
ATOM     80  H   UNL     1     145.598 165.043 187.512  0.00  0.00    +0.052 HD
ATOM     81  H   UNL     1     145.016 166.127 186.210  0.00  0.00    +0.052 HD
ATOM     82  H   UNL     1     146.752 165.969 186.528  0.00  0.00    +0.052 HD
ENDBRANCH  78  79
ENDBRANCH  58  78
ENDBRANCH  52  58
ENDBRANCH  50  52
BRANCH  50  83
ATOM     83  O   UNL     1     147.575 170.658 190.060  0.00  0.00    -0.459 OA
BRANCH  83  85
ATOM     84  O   UNL     1     145.696 171.042 191.329  0.00  0.00    -0.248 OA
ATOM     85  C   UNL     1     146.820 171.357 190.955  0.00  0.00    +0.337 C 
BRANCH  85  86
ATOM     86  C   UNL     1     147.591 172.569 191.493  0.00  0.00    +0.155 C 
ATOM     87  O   UNL     1     149.012 172.385 191.653  0.00  0.00    -0.365 OA
ATOM     88  C   UNL     1     149.340 172.532 193.043  0.00  0.00    +0.049 C 
ATOM     89  C   UNL     1     148.261 173.432 193.610  0.00  0.00    -0.027 C 
ATOM     90  C   UNL     1     147.040 172.948 192.869  0.00  0.00    -0.014 C 
ATOM     91  H   UNL     1     147.463 173.384 190.769  0.00  0.00    +0.071 HD
ATOM     92  H   UNL     1     150.341 172.961 193.135  0.00  0.00    +0.056 HD
ATOM     93  H   UNL     1     149.332 171.543 193.514  0.00  0.00    +0.056 HD
ATOM     94  H   UNL     1     148.459 174.475 193.346  0.00  0.00    +0.029 HD
ATOM     95  H   UNL     1     148.176 173.352 194.699  0.00  0.00    +0.029 HD
ATOM     96  H   UNL     1     146.612 172.073 193.386  0.00  0.00    +0.030 HD
ATOM     97  H   UNL     1     146.250 173.707 192.805  0.00  0.00    +0.030 HD
ENDBRANCH  85  86
ENDBRANCH  83  85
ENDBRANCH  50  83
ENDBRANCH   1  50
TORSDOF 31
ENDMDL
MODEL 10
REMARK VINA RESULT:      -4.8      2.166      7.514
REMARK  Name = 2u_conf3
REMARK  31 active torsions:
REMARK  status: ('A' for Active; 'I' for Inactive)
REMARK    1  A    between atoms: C_2  and  C_3
REMARK    2  A    between atoms: C_2  and  O_8
REMARK    3  A    between atoms: O_8  and  C_9
REMARK    4  A    between atoms: C_9  and  C_10
REMARK    5  A    between atoms: C_9  and  C_29
REMARK    6  A    between atoms: C_10  and  C_11
REMARK    7  A    between atoms: C_11  and  C_12
REMARK    8  A    between atoms: C_12  and  C_13
REMARK    9  A    between atoms: C_12  and  C_14
REMARK   10  A    between atoms: C_14  and  O_15
REMARK   11  A    between atoms: C_14  and  C_17
REMARK   12  A    between atoms: O_15  and  C_16
REMARK   13  A    between atoms: C_17  and  C_18
REMARK   14  A    between atoms: C_18  and  O_19
REMARK   15  A    between atoms: C_18  and  C_26
REMARK   16  A    between atoms: O_19  and  C_20
REMARK   17  A    between atoms: C_20  and  C_21
REMARK   18  A    between atoms: C_21  and  C_22
REMARK   19  A    between atoms: C_22  and  C_23
REMARK   20  A    between atoms: C_23  and  N_24
REMARK   21  A    between atoms: C_26  and  C_27
REMARK   22  A    between atoms: C_26  and  C_28
REMARK   23  A    between atoms: C_29  and  C_30
REMARK   24  A    between atoms: C_29  and  C_31
REMARK   25  A    between atoms: C_31  and  O_32
REMARK   26  A    between atoms: C_31  and  C_34
REMARK   27  A    between atoms: O_32  and  C_33
REMARK   28  A    between atoms: C_34  and  C_35
REMARK   29  A    between atoms: C_34  and  C_36
REMARK   30  A    between atoms: C_37  and  N_38
REMARK   31  A    between atoms: N_38  and  C_39
REMARK                            x       y       z     vdW  Elec       q    Type
REMARK                         _______ _______ _______ _____ _____    ______ ____
ROOT
ATOM      1  C   UNL     1     149.910 167.500 191.291  0.00  0.00    -0.015 C 
ATOM      2  H   UNL     1     149.090 167.071 190.714  0.00  0.00    +0.030 HD
ATOM      3  H   UNL     1     150.662 167.878 190.596  0.00  0.00    +0.030 HD
ENDROOT
BRANCH   1   4
ATOM      4  C   UNL     1     149.373 168.680 192.120  0.00  0.00    -0.045 C 
ATOM      5  H   UNL     1     149.681 168.526 193.163  0.00  0.00    +0.027 HD
ATOM      6  H   UNL     1     148.280 168.672 192.140  0.00  0.00    +0.027 HD
BRANCH   4   7
ATOM      7  C   UNL     1     149.864 170.069 191.664  0.00  0.00    -0.017 C 
ATOM      8  H   UNL     1     149.814 170.090 190.567  0.00  0.00    +0.032 HD
BRANCH   7   9
ATOM      9  C   UNL     1     151.345 170.194 192.065  0.00  0.00    -0.060 C 
ATOM     10  H   UNL     1     151.572 169.578 192.942  0.00  0.00    +0.023 HD
ATOM     11  H   UNL     1     151.997 169.870 191.247  0.00  0.00    +0.023 HD
ATOM     12  H   UNL     1     151.615 171.229 192.293  0.00  0.00    +0.023 HD
ENDBRANCH   7   9
BRANCH   7  13
ATOM     13  C   UNL     1     149.020 171.258 192.205  0.00  0.00    +0.064 C 
ATOM     14  H   UNL     1     148.217 170.869 192.842  0.00  0.00    +0.060 HD
BRANCH  13  15
ATOM     15  C   UNL     1     148.379 172.051 191.038  0.00  0.00    +0.011 C 
ATOM     16  H   UNL     1     148.902 171.795 190.108  0.00  0.00    +0.033 HD
ATOM     17  H   UNL     1     148.532 173.122 191.208  0.00  0.00    +0.033 HD
BRANCH  15  18
ATOM     18  C   UNL     1     146.871 171.774 190.865  0.00  0.00    +0.108 C 
ATOM     19  H   UNL     1     146.449 171.338 191.778  0.00  0.00    +0.074 HD
BRANCH  18  20
ATOM     20  C   UNL     1     145.986 172.985 190.473  0.00  0.00    -0.009 C 
ATOM     21  H   UNL     1     146.669 173.842 190.360  0.00  0.00    +0.033 HD
BRANCH  20  22
ATOM     22  C   UNL     1     145.268 172.805 189.132  0.00  0.00    -0.059 C 
ATOM     23  H   UNL     1     145.830 172.155 188.453  0.00  0.00    +0.023 HD
ATOM     24  H   UNL     1     145.104 173.773 188.645  0.00  0.00    +0.023 HD
ATOM     25  H   UNL     1     144.283 172.349 189.288  0.00  0.00    +0.023 HD
ENDBRANCH  20  22
BRANCH  20  26
ATOM     26  C   UNL     1     144.978 173.386 191.562  0.00  0.00    -0.059 C 
ATOM     27  H   UNL     1     144.620 174.408 191.387  0.00  0.00    +0.023 HD
ATOM     28  H   UNL     1     145.433 173.366 192.562  0.00  0.00    +0.023 HD
ATOM     29  H   UNL     1     144.101 172.728 191.573  0.00  0.00    +0.023 HD
ENDBRANCH  20  26
ENDBRANCH  18  20
BRANCH  18  30
ATOM     30  O   UNL     1     146.728 170.825 189.775  0.00  0.00    -0.461 OA
BRANCH  30  31
ATOM     31  C   UNL     1     146.373 169.550 190.100  0.00  0.00    +0.307 C 
ATOM     32  O   UNL     1     145.714 169.222 191.075  0.00  0.00    -0.251 OA
BRANCH  31  33
ATOM     33  C   UNL     1     146.964 168.590 189.091  0.00  0.00    +0.046 C 
ATOM     34  H   UNL     1     147.935 168.221 189.451  0.00  0.00    +0.038 HD
ATOM     35  H   UNL     1     146.282 167.734 189.023  0.00  0.00    +0.038 HD
BRANCH  33  36
ATOM     36  C   UNL     1     147.139 169.232 187.715  0.00  0.00    -0.031 C 
ATOM     37  H   UNL     1     147.570 170.240 187.815  0.00  0.00    +0.028 HD
ATOM     38  H   UNL     1     146.141 169.350 187.261  0.00  0.00    +0.028 HD
BRANCH  36  39
ATOM     39  C   UNL     1     148.012 168.378 186.799  0.00  0.00    -0.006 C 
ATOM     40  H   UNL     1     147.638 167.347 186.776  0.00  0.00    +0.042 HD
ATOM     41  H   UNL     1     149.046 168.345 187.158  0.00  0.00    +0.042 HD
BRANCH  39  42
ATOM     42  N   UNL     1     147.990 168.914 185.444  0.00  0.00    -0.330 NA
ATOM     43  H   UNL     1     148.839 168.639 184.959  0.00  0.00    +0.118 HD
ATOM     44  H   UNL     1     147.977 169.936 185.470  0.00  0.00    +0.118 HD
ENDBRANCH  39  42
ENDBRANCH  36  39
ENDBRANCH  33  36
ENDBRANCH  31  33
ENDBRANCH  30  31
ENDBRANCH  18  30
ENDBRANCH  15  18
ENDBRANCH  13  15
BRANCH  13  45
ATOM     45  O   UNL     1     149.858 172.169 192.920  0.00  0.00    -0.379 OA
BRANCH  45  46
ATOM     46  C   UNL     1     149.156 173.079 193.753  0.00  0.00    +0.037 C 
ATOM     47  H   UNL     1     149.686 174.034 193.733  0.00  0.00    +0.052 HD
ATOM     48  H   UNL     1     149.133 172.722 194.786  0.00  0.00    +0.052 HD
ATOM     49  H   UNL     1     148.137 173.248 193.380  0.00  0.00    +0.052 HD
ENDBRANCH  45  46
ENDBRANCH  13  45
ENDBRANCH   7  13
ENDBRANCH   4   7
ENDBRANCH   1   4
BRANCH   1  50
ATOM     50  C   UNL     1     150.513 166.412 192.204  0.00  0.00    +0.108 C 
ATOM     51  H   UNL     1     149.749 165.629 192.329  0.00  0.00    +0.074 HD
BRANCH  50  52
ATOM     52  C   UNL     1     150.944 166.906 193.622  0.00  0.00    +0.020 C 
ATOM     53  H   UNL     1     150.590 167.941 193.693  0.00  0.00    +0.036 HD
BRANCH  52  54
ATOM     54  C   UNL     1     152.479 166.937 193.710  0.00  0.00    -0.057 C 
ATOM     55  H   UNL     1     152.817 166.968 194.754  0.00  0.00    +0.023 HD
ATOM     56  H   UNL     1     152.885 167.825 193.216  0.00  0.00    +0.023 HD
ATOM     57  H   UNL     1     152.924 166.053 193.244  0.00  0.00    +0.023 HD
ENDBRANCH  52  54
BRANCH  52  58
ATOM     58  C   UNL     1     150.292 166.131 194.811  0.00  0.00    +0.070 C 
ATOM     59  H   UNL     1     150.852 166.379 195.723  0.00  0.00    +0.061 HD
BRANCH  58  60
ATOM     60  C   UNL     1     148.796 166.519 195.072  0.00  0.00    +0.002 C 
ATOM     61  H   UNL     1     148.734 167.610 194.973  0.00  0.00    +0.037 HD
BRANCH  60  62
ATOM     62  C   UNL     1     148.354 166.213 196.509  0.00  0.00    -0.057 C 
ATOM     63  H   UNL     1     149.164 165.775 197.101  0.00  0.00    +0.024 HD
ATOM     64  H   UNL     1     148.013 167.124 197.011  0.00  0.00    +0.024 HD
ATOM     65  H   UNL     1     147.526 165.494 196.514  0.00  0.00    +0.024 HD
ENDBRANCH  60  62
BRANCH  60  66
ATOM     66  C   UNL     1     147.771 165.949 194.104  0.00  0.00    -0.065 C 
ATOM     67  C   UNL     1     146.803 166.658 193.502  0.00  0.00    -0.005 C 
ATOM     68  H   UNL     1     147.895 164.885 193.907  0.00  0.00    +0.059 HD
ATOM     69  H   UNL     1     146.724 167.726 193.722  0.00  0.00    +0.078 HD
BRANCH  67  70
ATOM     70  N   UNL     1     145.880 166.205 192.578  0.00  0.00    -0.284 N 
ATOM     71  C   UNL     1     146.178 165.730 191.305  0.00  0.00    +0.206 C 
ATOM     72  O   UNL     1     145.362 165.381 190.456  0.00  0.00    -0.279 OA
ATOM     73  H   UNL     1     147.257 165.687 191.081  0.00  0.00    +0.126 HD
BRANCH  70  74
ATOM     74  C   UNL     1     144.474 166.269 192.970  0.00  0.00    +0.007 C 
ATOM     75  H   UNL     1     144.405 166.134 194.058  0.00  0.00    +0.043 HD
ATOM     76  H   UNL     1     143.928 165.460 192.468  0.00  0.00    +0.043 HD
ATOM     77  H   UNL     1     144.008 167.219 192.696  0.00  0.00    +0.043 HD
ENDBRANCH  70  74
ENDBRANCH  67  70
ENDBRANCH  60  66
ENDBRANCH  58  60
BRANCH  58  78
ATOM     78  O   UNL     1     150.374 164.719 194.558  0.00  0.00    -0.379 OA
BRANCH  78  79
ATOM     79  C   UNL     1     151.188 164.013 195.489  0.00  0.00    +0.037 C 
ATOM     80  H   UNL     1     152.112 163.675 195.012  0.00  0.00    +0.052 HD
ATOM     81  H   UNL     1     151.420 164.634 196.358  0.00  0.00    +0.052 HD
ATOM     82  H   UNL     1     150.629 163.138 195.832  0.00  0.00    +0.052 HD
ENDBRANCH  78  79
ENDBRANCH  58  78
ENDBRANCH  52  58
ENDBRANCH  50  52
BRANCH  50  83
ATOM     83  O   UNL     1     151.622 165.853 191.476  0.00  0.00    -0.459 OA
BRANCH  83  85
ATOM     84  O   UNL     1     150.708 163.844 190.832  0.00  0.00    -0.248 OA
ATOM     85  C   UNL     1     151.346 164.860 190.584  0.00  0.00    +0.337 C 
BRANCH  85  86
ATOM     86  C   UNL     1     151.889 165.209 189.192  0.00  0.00    +0.155 C 
ATOM     87  O   UNL     1     152.804 166.322 189.139  0.00  0.00    -0.365 OA
ATOM     88  C   UNL     1     152.226 167.354 188.327  0.00  0.00    +0.049 C 
ATOM     89  C   UNL     1     151.293 166.632 187.376  0.00  0.00    -0.027 C 
ATOM     90  C   UNL     1     150.720 165.559 188.268  0.00  0.00    -0.014 C 
ATOM     91  H   UNL     1     152.442 164.334 188.828  0.00  0.00    +0.071 HD
ATOM     92  H   UNL     1     153.022 167.896 187.808  0.00  0.00    +0.056 HD
ATOM     93  H   UNL     1     151.684 168.052 188.975  0.00  0.00    +0.056 HD
ATOM     94  H   UNL     1     151.861 166.168 186.565  0.00  0.00    +0.029 HD
ATOM     95  H   UNL     1     150.536 167.296 186.944  0.00  0.00    +0.029 HD
ATOM     96  H   UNL     1     149.865 165.961 188.835  0.00  0.00    +0.030 HD
ATOM     97  H   UNL     1     150.359 164.687 187.709  0.00  0.00    +0.030 HD
ENDBRANCH  85  86
ENDBRANCH  83  85
ENDBRANCH  50  83
ENDBRANCH   1  50
TORSDOF 31
ENDMDL
