MODEL 1
REMARK VINA RESULT:      -5.9      0.000      0.000
REMARK  Name = Aplyronine A_conf2
REMARK  45 active torsions:
REMARK  status: ('A' for Active; 'I' for Inactive)
REMARK    1  A    between atoms: C_1  and  C_2
REMARK    2  A    between atoms: C_5  and  O_75
REMARK    3  A    between atoms: C_6  and  C_74
REMARK    4  A    between atoms: C_9  and  C_73
REMARK    5  A    between atoms: C_11  and  O_71
REMARK    6  A    between atoms: C_15  and  C_39
REMARK    7  A    between atoms: C_24  and  O_29
REMARK    8  A    between atoms: C_25  and  C_28
REMARK    9  A    between atoms: C_26  and  O_27
REMARK   10  A    between atoms: O_29  and  C_30
REMARK   11  A    between atoms: C_30  and  C_32
REMARK   12  A    between atoms: C_32  and  C_33
REMARK   13  A    between atoms: C_32  and  N_36
REMARK   14  A    between atoms: C_33  and  O_34
REMARK   15  A    between atoms: O_34  and  C_35
REMARK   16  A    between atoms: N_36  and  C_37
REMARK   17  A    between atoms: N_36  and  C_38
REMARK   18  A    between atoms: C_39  and  C_40
REMARK   19  A    between atoms: C_39  and  C_41
REMARK   20  A    between atoms: C_41  and  C_42
REMARK   21  A    between atoms: C_41  and  O_70
REMARK   22  A    between atoms: C_42  and  C_43
REMARK   23  A    between atoms: C_42  and  C_44
REMARK   24  A    between atoms: C_44  and  C_45
REMARK   25  A    between atoms: C_45  and  C_46
REMARK   26  A    between atoms: C_46  and  C_47
REMARK   27  A    between atoms: C_46  and  O_62
REMARK   28  A    between atoms: C_47  and  C_48
REMARK   29  A    between atoms: C_47  and  C_49
REMARK   30  A    between atoms: C_49  and  C_50
REMARK   31  A    between atoms: C_49  and  O_58
REMARK   32  A    between atoms: C_50  and  C_51
REMARK   33  A    between atoms: C_50  and  C_52
REMARK   34  A    between atoms: C_53  and  N_54
REMARK   35  A    between atoms: N_54  and  C_55
REMARK   36  A    between atoms: O_58  and  C_59
REMARK   37  A    between atoms: C_59  and  C_61
REMARK   38  A    between atoms: O_62  and  C_63
REMARK   39  A    between atoms: C_63  and  C_65
REMARK   40  A    between atoms: C_65  and  C_66
REMARK   41  A    between atoms: C_65  and  N_67
REMARK   42  A    between atoms: N_67  and  C_68
REMARK   43  A    between atoms: N_67  and  C_69
REMARK   44  A    between atoms: O_71  and  C_72
REMARK   45  A    between atoms: O_75  and  C_76
REMARK                            x       y       z     vdW  Elec       q    Type
REMARK                         _______ _______ _______ _____ _____    ______ ____
ROOT
ATOM      1  C   UNL     1     159.441 157.436 192.085  0.00  0.00    -0.017 C 
ATOM      2  C   UNL     1     159.274 157.272 190.555  0.00  0.00    -0.045 C 
ATOM      3  C   UNL     1     158.550 158.441 189.876  0.00  0.00    -0.022 C 
ATOM      4  C   UNL     1     158.491 158.323 188.338  0.00  0.00    +0.079 C 
ATOM      5  C   UNL     1     157.292 157.495 187.861  0.00  0.00    -0.048 C 
ATOM      6  C   UNL     1     156.112 158.086 187.571  0.00  0.00    -0.082 C 
ATOM      7  C   UNL     1     154.832 157.481 187.060  0.00  0.00    -0.032 C 
ATOM      8  C   UNL     1     153.657 157.521 188.063  0.00  0.00    -0.038 C 
ATOM      9  C   UNL     1     153.380 158.908 188.691  0.00  0.00    -0.020 C 
ATOM     10  C   UNL     1     153.172 160.041 187.672  0.00  0.00    +0.077 C 
ATOM     11  C   UNL     1     153.024 161.360 188.391  0.00  0.00    -0.059 C 
ATOM     12  C   UNL     1     154.083 162.107 188.750  0.00  0.00    -0.082 C 
ATOM     13  C   UNL     1     154.012 163.445 189.441  0.00  0.00    +0.003 C 
ATOM     14  C   UNL     1     155.021 164.462 188.852  0.00  0.00    +0.112 C 
ATOM     15  O   UNL     1     156.346 164.058 189.284  0.00  0.00    -0.458 OA
ATOM     16  C   UNL     1     157.182 163.500 188.381  0.00  0.00    +0.332 C 
ATOM     17  O   UNL     1     156.989 163.388 187.182  0.00  0.00    -0.246 OA
ATOM     18  C   UNL     1     158.387 162.954 189.045  0.00  0.00    +0.022 C 
ATOM     19  C   UNL     1     158.667 163.090 190.350  0.00  0.00    -0.055 C 
ATOM     20  C   UNL     1     159.804 162.447 190.969  0.00  0.00    -0.065 C 
ATOM     21  C   UNL     1     160.069 162.530 192.282  0.00  0.00    -0.081 C 
ATOM     22  C   UNL     1     161.190 161.772 192.947  0.00  0.00    +0.003 C 
ATOM     23  C   UNL     1     160.764 160.708 193.990  0.00  0.00    +0.111 C 
ATOM     24  C   UNL     1     159.771 159.577 193.570  0.00  0.00    +0.020 C 
ATOM     25  C   UNL     1     160.402 158.571 192.562  0.00  0.00    +0.064 C 
ATOM     26  H   UNL     1     158.442 157.588 192.507  0.00  0.00    +0.032 HD
ATOM     27  H   UNL     1     160.256 157.119 190.090  0.00  0.00    +0.027 HD
ATOM     28  H   UNL     1     158.703 156.356 190.371  0.00  0.00    +0.027 HD
ATOM     29  H   UNL     1     157.537 158.538 190.289  0.00  0.00    +0.029 HD
ATOM     30  H   UNL     1     159.049 159.384 190.120  0.00  0.00    +0.029 HD
ATOM     31  H   UNL     1     159.429 157.891 187.968  0.00  0.00    +0.064 HD
ATOM     32  H   UNL     1     156.060 159.167 187.704  0.00  0.00    +0.057 HD
ATOM     33  H   UNL     1     154.548 158.029 186.152  0.00  0.00    +0.031 HD
ATOM     34  H   UNL     1     154.978 156.449 186.727  0.00  0.00    +0.031 HD
ATOM     35  H   UNL     1     152.756 157.214 187.512  0.00  0.00    +0.030 HD
ATOM     36  H   UNL     1     154.203 159.165 189.372  0.00  0.00    +0.030 HD
ATOM     37  H   UNL     1     152.479 158.819 189.312  0.00  0.00    +0.030 HD
ATOM     38  H   UNL     1     154.027 160.097 186.988  0.00  0.00    +0.064 HD
ATOM     39  H   UNL     1     152.012 161.691 188.611  0.00  0.00    +0.059 HD
ATOM     40  H   UNL     1     155.079 161.719 188.540  0.00  0.00    +0.057 HD
ATOM     41  H   UNL     1     152.992 163.843 189.361  0.00  0.00    +0.034 HD
ATOM     42  H   UNL     1     154.230 163.276 190.503  0.00  0.00    +0.034 HD
ATOM     43  H   UNL     1     154.936 164.441 187.759  0.00  0.00    +0.074 HD
ATOM     44  H   UNL     1     159.023 162.376 188.386  0.00  0.00    +0.069 HD
ATOM     45  H   UNL     1     158.011 163.661 191.002  0.00  0.00    +0.062 HD
ATOM     46  H   UNL     1     160.427 161.813 190.336  0.00  0.00    +0.061 HD
ATOM     47  H   UNL     1     159.446 163.132 192.939  0.00  0.00    +0.057 HD
ATOM     48  H   UNL     1     161.852 161.326 192.199  0.00  0.00    +0.034 HD
ATOM     49  H   UNL     1     161.803 162.525 193.463  0.00  0.00    +0.034 HD
ATOM     50  H   UNL     1     161.699 160.230 194.317  0.00  0.00    +0.074 HD
ATOM     51  H   UNL     1     159.572 158.994 194.480  0.00  0.00    +0.036 HD
ATOM     52  H   UNL     1     161.250 158.117 193.092  0.00  0.00    +0.060 HD
ENDROOT
BRANCH   1  53
ATOM     53  C   UNL     1     159.916 156.097 192.681  0.00  0.00    -0.060 C 
ATOM     54  H   UNL     1     159.822 156.093 193.772  0.00  0.00    +0.023 HD
ATOM     55  H   UNL     1     159.330 155.263 192.281  0.00  0.00    +0.023 HD
ATOM     56  H   UNL     1     160.966 155.911 192.430  0.00  0.00    +0.023 HD
ENDBRANCH   1  53
BRANCH   5  57
ATOM     57  C   UNL     1     157.548 156.019 187.713  0.00  0.00    -0.041 C 
ATOM     58  H   UNL     1     158.608 155.833 187.505  0.00  0.00    +0.028 HD
ATOM     59  H   UNL     1     157.277 155.490 188.629  0.00  0.00    +0.028 HD
ATOM     60  H   UNL     1     156.989 155.567 186.894  0.00  0.00    +0.028 HD
ENDBRANCH   5  57
BRANCH  24  61
ATOM     61  C   UNL     1     158.388 160.109 193.167  0.00  0.00    -0.057 C 
ATOM     62  H   UNL     1     158.078 160.926 193.827  0.00  0.00    +0.023 HD
ATOM     63  H   UNL     1     157.616 159.341 193.224  0.00  0.00    +0.023 HD
ATOM     64  H   UNL     1     158.393 160.529 192.157  0.00  0.00    +0.023 HD
ENDBRANCH  24  61
BRANCH   8  65
ATOM     65  C   UNL     1     153.871 156.492 189.180  0.00  0.00    -0.062 C 
ATOM     66  H   UNL     1     153.219 155.622 189.040  0.00  0.00    +0.023 HD
ATOM     67  H   UNL     1     154.907 156.139 189.210  0.00  0.00    +0.023 HD
ATOM     68  H   UNL     1     153.636 156.928 190.157  0.00  0.00    +0.023 HD
ENDBRANCH   8  65
BRANCH  14  69
ATOM     69  C   UNL     1     154.762 165.910 189.390  0.00  0.00    +0.020 C 
ATOM     70  H   UNL     1     154.064 165.824 190.233  0.00  0.00    +0.036 HD
BRANCH  69  71
ATOM     71  C   UNL     1     156.064 166.540 189.898  0.00  0.00    -0.057 C 
ATOM     72  H   UNL     1     155.999 166.839 190.945  0.00  0.00    +0.023 HD
ATOM     73  H   UNL     1     156.340 167.424 189.316  0.00  0.00    +0.023 HD
ATOM     74  H   UNL     1     156.895 165.829 189.835  0.00  0.00    +0.023 HD
ENDBRANCH  69  71
BRANCH  69  75
ATOM     75  C   UNL     1     154.047 166.741 188.287  0.00  0.00    +0.064 C 
ATOM     76  H   UNL     1     154.665 167.615 188.045  0.00  0.00    +0.060 HD
BRANCH  75  77
ATOM     77  C   UNL     1     152.585 167.219 188.513  0.00  0.00    -0.017 C 
ATOM     78  H   UNL     1     152.622 168.318 188.560  0.00  0.00    +0.032 HD
BRANCH  77  79
ATOM     79  C   UNL     1     151.640 166.909 187.345  0.00  0.00    -0.060 C 
ATOM     80  H   UNL     1     151.064 167.799 187.070  0.00  0.00    +0.023 HD
ATOM     81  H   UNL     1     152.196 166.606 186.453  0.00  0.00    +0.023 HD
ATOM     82  H   UNL     1     150.920 166.125 187.584  0.00  0.00    +0.023 HD
ENDBRANCH  77  79
BRANCH  77  83
ATOM     83  C   UNL     1     152.059 166.774 189.896  0.00  0.00    -0.045 C 
ATOM     84  H   UNL     1     152.922 166.445 190.490  0.00  0.00    +0.027 HD
ATOM     85  H   UNL     1     151.405 165.907 189.795  0.00  0.00    +0.027 HD
BRANCH  83  86
ATOM     86  C   UNL     1     151.312 167.868 190.664  0.00  0.00    -0.015 C 
ATOM     87  H   UNL     1     151.458 168.835 190.166  0.00  0.00    +0.030 HD
ATOM     88  H   UNL     1     151.758 167.990 191.660  0.00  0.00    +0.030 HD
BRANCH  86  89
ATOM     89  C   UNL     1     149.806 167.607 190.871  0.00  0.00    +0.109 C 
ATOM     90  H   UNL     1     149.688 167.235 191.896  0.00  0.00    +0.074 HD
BRANCH  89  91
ATOM     91  C   UNL     1     149.148 166.570 189.921  0.00  0.00    +0.031 C 
ATOM     92  H   UNL     1     149.962 166.080 189.372  0.00  0.00    +0.037 HD
BRANCH  91  93
ATOM     93  C   UNL     1     148.214 167.239 188.902  0.00  0.00    -0.056 C 
ATOM     94  H   UNL     1     148.436 166.907 187.882  0.00  0.00    +0.023 HD
ATOM     95  H   UNL     1     148.311 168.329 188.927  0.00  0.00    +0.023 HD
ATOM     96  H   UNL     1     147.162 167.015 189.101  0.00  0.00    +0.023 HD
ENDBRANCH  91  93
BRANCH  91  97
ATOM     97  C   UNL     1     148.371 165.477 190.723  0.00  0.00    +0.115 C 
ATOM     98  H   UNL     1     147.705 164.965 190.018  0.00  0.00    +0.074 HD
BRANCH  97  99
ATOM     99  C   UNL     1     149.291 164.401 191.374  0.00  0.00    +0.013 C 
ATOM    100  H   UNL     1     150.294 164.485 190.942  0.00  0.00    +0.038 HD
BRANCH  99 101
ATOM    101  C   UNL     1     148.801 162.983 191.050  0.00  0.00    -0.056 C 
ATOM    102  H   UNL     1     147.711 162.894 191.126  0.00  0.00    +0.024 HD
ATOM    103  H   UNL     1     149.241 162.253 191.743  0.00  0.00    +0.024 HD
ATOM    104  H   UNL     1     149.097 162.693 190.037  0.00  0.00    +0.024 HD
ENDBRANCH  99 101
BRANCH  99 105
ATOM    105  C   UNL     1     149.371 164.545 192.884  0.00  0.00    -0.064 C 
ATOM    106  C   UNL     1     150.415 165.082 193.528  0.00  0.00    -0.005 C 
ATOM    107  H   UNL     1     148.510 164.159 193.421  0.00  0.00    +0.059 HD
ATOM    108  H   UNL     1     151.257 165.454 192.943  0.00  0.00    +0.078 HD
BRANCH 106 109
ATOM    109  N   UNL     1     150.565 165.230 194.898  0.00  0.00    -0.284 N 
ATOM    110  C   UNL     1     150.065 166.282 195.657  0.00  0.00    +0.206 C 
ATOM    111  O   UNL     1     150.203 166.429 196.867  0.00  0.00    -0.279 OA
ATOM    112  H   UNL     1     149.494 167.019 195.077  0.00  0.00    +0.126 HD
BRANCH 109 113
ATOM    113  C   UNL     1     151.339 164.209 195.596  0.00  0.00    +0.007 C 
ATOM    114  H   UNL     1     152.157 164.634 196.180  0.00  0.00    +0.043 HD
ATOM    115  H   UNL     1     150.679 163.653 196.268  0.00  0.00    +0.043 HD
ATOM    116  H   UNL     1     151.753 163.533 194.843  0.00  0.00    +0.043 HD
ENDBRANCH 109 113
ENDBRANCH 106 109
ENDBRANCH  99 105
ENDBRANCH  97  99
BRANCH  97 117
ATOM    117  O   UNL     1     147.602 166.111 191.774  0.00  0.00    -0.461 OA
BRANCH 117 118
ATOM    118  C   UNL     1     146.251 166.166 191.621  0.00  0.00    +0.304 C 
ATOM    119  O   UNL     1     145.488 166.862 192.275  0.00  0.00    -0.251 OA
BRANCH 118 120
ATOM    120  C   UNL     1     145.825 165.258 190.509  0.00  0.00    +0.033 C 
ATOM    121  H   UNL     1     144.754 165.059 190.585  0.00  0.00    +0.034 HD
ATOM    122  H   UNL     1     146.063 165.715 189.545  0.00  0.00    +0.034 HD
ATOM    123  H   UNL     1     146.366 164.311 190.588  0.00  0.00    +0.034 HD
ENDBRANCH 118 120
ENDBRANCH 117 118
ENDBRANCH  97 117
ENDBRANCH  91  97
ENDBRANCH  89  91
BRANCH  89 124
ATOM    124  O   UNL     1     149.150 168.887 190.703  0.00  0.00    -0.460 OA
BRANCH 124 125
ATOM    125  C   UNL     1     148.720 169.525 191.824  0.00  0.00    +0.324 C 
ATOM    126  O   UNL     1     148.093 168.964 192.721  0.00  0.00    -0.249 OA
BRANCH 125 127
ATOM    127  C   UNL     1     149.178 170.992 191.920  0.00  0.00    +0.105 C 
ATOM    128  H   UNL     1     149.064 171.401 190.907  0.00  0.00    +0.058 HD
BRANCH 127 129
ATOM    129  C   UNL     1     150.681 171.035 192.232  0.00  0.00    -0.039 C 
ATOM    130  H   UNL     1     150.863 171.247 193.293  0.00  0.00    +0.025 HD
ATOM    131  H   UNL     1     151.179 170.096 191.972  0.00  0.00    +0.025 HD
ATOM    132  H   UNL     1     151.169 171.830 191.654  0.00  0.00    +0.025 HD
ENDBRANCH 127 129
BRANCH 127 133
ATOM    133  N   UNL     1     148.442 171.893 192.846  0.00  0.00    -0.296 NA
BRANCH 133 134
ATOM    134  C   UNL     1     147.238 172.499 192.293  0.00  0.00    -0.012 C 
ATOM    135  H   UNL     1     146.963 172.062 191.328  0.00  0.00    +0.039 HD
ATOM    136  H   UNL     1     147.330 173.580 192.169  0.00  0.00    +0.039 HD
ATOM    137  H   UNL     1     146.385 172.316 192.958  0.00  0.00    +0.039 HD
ENDBRANCH 133 134
BRANCH 133 138
ATOM    138  C   UNL     1     149.289 172.880 193.506  0.00  0.00    -0.012 C 
ATOM    139  H   UNL     1     149.327 172.707 194.586  0.00  0.00    +0.039 HD
ATOM    140  H   UNL     1     148.871 173.884 193.370  0.00  0.00    +0.039 HD
ATOM    141  H   UNL     1     150.314 172.897 193.125  0.00  0.00    +0.039 HD
ENDBRANCH 133 138
ENDBRANCH 127 133
ENDBRANCH 125 127
ENDBRANCH 124 125
ENDBRANCH  89 124
ENDBRANCH  86  89
ENDBRANCH  83  86
ENDBRANCH  77  83
ENDBRANCH  75  77
BRANCH  75 142
ATOM    142  O   UNL     1     154.034 165.938 187.092  0.00  0.00    -0.391 OA
ATOM    143  H   UNL     1     153.511 165.137 187.261  0.00  0.00    +0.210 HD
ENDBRANCH  75 142
ENDBRANCH  69  75
ENDBRANCH  14  69
BRANCH  25 144
ATOM    144  O   UNL     1     160.988 159.254 191.463  0.00  0.00    -0.391 OA
ATOM    145  H   UNL     1     161.953 159.249 191.589  0.00  0.00    +0.210 HD
ENDBRANCH  25 144
BRANCH  23 146
ATOM    146  O   UNL     1     160.227 161.448 195.119  0.00  0.00    -0.460 OA
BRANCH 146 147
ATOM    147  C   UNL     1     160.217 160.830 196.330  0.00  0.00    +0.327 C 
ATOM    148  O   UNL     1     161.044 159.987 196.673  0.00  0.00    -0.249 OA
BRANCH 147 149
ATOM    149  C   UNL     1     159.076 161.299 197.252  0.00  0.00    +0.131 C 
ATOM    150  H   UNL     1     158.478 161.960 196.610  0.00  0.00    +0.060 HD
BRANCH 149 151
ATOM    151  C   UNL     1     159.707 162.157 198.372  0.00  0.00    +0.073 C 
ATOM    152  H   UNL     1     159.939 161.546 199.253  0.00  0.00    +0.058 HD
ATOM    153  H   UNL     1     160.653 162.588 198.022  0.00  0.00    +0.058 HD
BRANCH 151 154
ATOM    154  O   UNL     1     158.840 163.236 198.738  0.00  0.00    -0.381 OA
BRANCH 154 155
ATOM    155  C   UNL     1     158.171 163.780 197.608  0.00  0.00    +0.037 C 
ATOM    156  H   UNL     1     157.255 164.294 197.911  0.00  0.00    +0.052 HD
ATOM    157  H   UNL     1     157.940 162.989 196.888  0.00  0.00    +0.052 HD
ATOM    158  H   UNL     1     158.836 164.504 197.130  0.00  0.00    +0.052 HD
ENDBRANCH 154 155
ENDBRANCH 151 154
ENDBRANCH 149 151
BRANCH 149 159
ATOM    159  N   UNL     1     158.183 160.169 197.667  0.00  0.00    -0.294 NA
BRANCH 159 160
ATOM    160  C   UNL     1     158.605 159.594 198.944  0.00  0.00    -0.012 C 
ATOM    161  H   UNL     1     157.780 159.152 199.510  0.00  0.00    +0.039 HD
ATOM    162  H   UNL     1     159.074 160.361 199.571  0.00  0.00    +0.039 HD
ATOM    163  H   UNL     1     159.368 158.826 198.786  0.00  0.00    +0.039 HD
ENDBRANCH 159 160
BRANCH 159 164
ATOM    164  C   UNL     1     158.049 159.122 196.657  0.00  0.00    -0.012 C 
ATOM    165  H   UNL     1     158.991 158.567 196.562  0.00  0.00    +0.039 HD
ATOM    166  H   UNL     1     157.800 159.520 195.668  0.00  0.00    +0.039 HD
ATOM    167  H   UNL     1     157.286 158.391 196.939  0.00  0.00    +0.039 HD
ENDBRANCH 159 164
ENDBRANCH 149 159
ENDBRANCH 147 149
ENDBRANCH 146 147
ENDBRANCH  23 146
BRANCH   4 168
ATOM    168  O   UNL     1     158.403 159.673 187.840  0.00  0.00    -0.376 OA
BRANCH 168 169
ATOM    169  C   UNL     1     159.433 159.996 186.913  0.00  0.00    +0.037 C 
ATOM    170  H   UNL     1     160.363 159.490 187.188  0.00  0.00    +0.052 HD
ATOM    171  H   UNL     1     159.148 159.729 185.892  0.00  0.00    +0.052 HD
ATOM    172  H   UNL     1     159.602 161.076 186.954  0.00  0.00    +0.052 HD
ENDBRANCH 168 169
ENDBRANCH   4 168
BRANCH  10 173
ATOM    173  O   UNL     1     151.982 159.771 186.927  0.00  0.00    -0.376 OA
BRANCH 173 174
ATOM    174  C   UNL     1     150.798 160.058 187.662  0.00  0.00    +0.037 C 
ATOM    175  H   UNL     1     150.894 159.604 188.652  0.00  0.00    +0.052 HD
ATOM    176  H   UNL     1     150.668 161.136 187.787  0.00  0.00    +0.052 HD
ATOM    177  H   UNL     1     149.923 159.627 187.167  0.00  0.00    +0.052 HD
ENDBRANCH 173 174
ENDBRANCH  10 173
TORSDOF 45
ENDMDL
MODEL 2
REMARK VINA RESULT:      -5.8      4.822      9.408
REMARK  Name = Aplyronine A_conf2
REMARK  45 active torsions:
REMARK  status: ('A' for Active; 'I' for Inactive)
REMARK    1  A    between atoms: C_1  and  C_2
REMARK    2  A    between atoms: C_5  and  O_75
REMARK    3  A    between atoms: C_6  and  C_74
REMARK    4  A    between atoms: C_9  and  C_73
REMARK    5  A    between atoms: C_11  and  O_71
REMARK    6  A    between atoms: C_15  and  C_39
REMARK    7  A    between atoms: C_24  and  O_29
REMARK    8  A    between atoms: C_25  and  C_28
REMARK    9  A    between atoms: C_26  and  O_27
REMARK   10  A    between atoms: O_29  and  C_30
REMARK   11  A    between atoms: C_30  and  C_32
REMARK   12  A    between atoms: C_32  and  C_33
REMARK   13  A    between atoms: C_32  and  N_36
REMARK   14  A    between atoms: C_33  and  O_34
REMARK   15  A    between atoms: O_34  and  C_35
REMARK   16  A    between atoms: N_36  and  C_37
REMARK   17  A    between atoms: N_36  and  C_38
REMARK   18  A    between atoms: C_39  and  C_40
REMARK   19  A    between atoms: C_39  and  C_41
REMARK   20  A    between atoms: C_41  and  C_42
REMARK   21  A    between atoms: C_41  and  O_70
REMARK   22  A    between atoms: C_42  and  C_43
REMARK   23  A    between atoms: C_42  and  C_44
REMARK   24  A    between atoms: C_44  and  C_45
REMARK   25  A    between atoms: C_45  and  C_46
REMARK   26  A    between atoms: C_46  and  C_47
REMARK   27  A    between atoms: C_46  and  O_62
REMARK   28  A    between atoms: C_47  and  C_48
REMARK   29  A    between atoms: C_47  and  C_49
REMARK   30  A    between atoms: C_49  and  C_50
REMARK   31  A    between atoms: C_49  and  O_58
REMARK   32  A    between atoms: C_50  and  C_51
REMARK   33  A    between atoms: C_50  and  C_52
REMARK   34  A    between atoms: C_53  and  N_54
REMARK   35  A    between atoms: N_54  and  C_55
REMARK   36  A    between atoms: O_58  and  C_59
REMARK   37  A    between atoms: C_59  and  C_61
REMARK   38  A    between atoms: O_62  and  C_63
REMARK   39  A    between atoms: C_63  and  C_65
REMARK   40  A    between atoms: C_65  and  C_66
REMARK   41  A    between atoms: C_65  and  N_67
REMARK   42  A    between atoms: N_67  and  C_68
REMARK   43  A    between atoms: N_67  and  C_69
REMARK   44  A    between atoms: O_71  and  C_72
REMARK   45  A    between atoms: O_75  and  C_76
REMARK                            x       y       z     vdW  Elec       q    Type
REMARK                         _______ _______ _______ _____ _____    ______ ____
ROOT
ATOM      1  C   UNL     1     160.853 167.865 183.845  0.00  0.00    -0.017 C 
ATOM      2  C   UNL     1     160.738 166.345 183.576  0.00  0.00    -0.045 C 
ATOM      3  C   UNL     1     159.565 165.669 184.299  0.00  0.00    -0.022 C 
ATOM      4  C   UNL     1     159.390 164.179 183.935  0.00  0.00    +0.079 C 
ATOM      5  C   UNL     1     160.261 163.261 184.799  0.00  0.00    -0.048 C 
ATOM      6  C   UNL     1     159.787 162.735 185.950  0.00  0.00    -0.082 C 
ATOM      7  C   UNL     1     160.445 161.794 186.923  0.00  0.00    -0.032 C 
ATOM      8  C   UNL     1     160.755 162.411 188.305  0.00  0.00    -0.038 C 
ATOM      9  C   UNL     1     159.565 163.133 188.980  0.00  0.00    -0.020 C 
ATOM     10  C   UNL     1     158.294 162.278 189.118  0.00  0.00    +0.077 C 
ATOM     11  C   UNL     1     157.170 163.114 189.684  0.00  0.00    -0.059 C 
ATOM     12  C   UNL     1     156.374 163.869 188.907  0.00  0.00    -0.082 C 
ATOM     13  C   UNL     1     155.216 164.702 189.395  0.00  0.00    +0.003 C 
ATOM     14  C   UNL     1     153.980 164.586 188.469  0.00  0.00    +0.112 C 
ATOM     15  O   UNL     1     154.281 165.316 187.250  0.00  0.00    -0.458 OA
ATOM     16  C   UNL     1     154.538 164.618 186.123  0.00  0.00    +0.332 C 
ATOM     17  O   UNL     1     154.441 163.410 185.975  0.00  0.00    -0.246 OA
ATOM     18  C   UNL     1     155.039 165.510 185.053  0.00  0.00    +0.022 C 
ATOM     19  C   UNL     1     155.123 166.846 185.150  0.00  0.00    -0.055 C 
ATOM     20  C   UNL     1     155.717 167.661 184.116  0.00  0.00    -0.065 C 
ATOM     21  C   UNL     1     155.856 168.992 184.219  0.00  0.00    -0.081 C 
ATOM     22  C   UNL     1     156.573 169.830 183.192  0.00  0.00    +0.003 C 
ATOM     23  C   UNL     1     157.866 170.536 183.674  0.00  0.00    +0.111 C 
ATOM     24  C   UNL     1     159.015 169.685 184.303  0.00  0.00    +0.020 C 
ATOM     25  C   UNL     1     159.714 168.762 183.261  0.00  0.00    +0.064 C 
ATOM     26  H   UNL     1     160.919 168.000 184.929  0.00  0.00    +0.032 HD
ATOM     27  H   UNL     1     160.667 166.164 182.497  0.00  0.00    +0.027 HD
ATOM     28  H   UNL     1     161.668 165.870 183.906  0.00  0.00    +0.027 HD
ATOM     29  H   UNL     1     159.685 165.783 185.385  0.00  0.00    +0.029 HD
ATOM     30  H   UNL     1     158.630 166.184 184.059  0.00  0.00    +0.029 HD
ATOM     31  H   UNL     1     159.614 164.034 182.870  0.00  0.00    +0.064 HD
ATOM     32  H   UNL     1     158.768 163.008 186.229  0.00  0.00    +0.057 HD
ATOM     33  H   UNL     1     159.774 160.935 187.055  0.00  0.00    +0.031 HD
ATOM     34  H   UNL     1     161.365 161.366 186.511  0.00  0.00    +0.031 HD
ATOM     35  H   UNL     1     161.066 161.586 188.961  0.00  0.00    +0.030 HD
ATOM     36  H   UNL     1     159.338 164.052 188.423  0.00  0.00    +0.030 HD
ATOM     37  H   UNL     1     159.891 163.449 189.980  0.00  0.00    +0.030 HD
ATOM     38  H   UNL     1     157.994 161.885 188.140  0.00  0.00    +0.064 HD
ATOM     39  H   UNL     1     157.025 163.081 190.760  0.00  0.00    +0.059 HD
ATOM     40  H   UNL     1     156.579 163.898 187.837  0.00  0.00    +0.057 HD
ATOM     41  H   UNL     1     154.949 164.394 190.414  0.00  0.00    +0.034 HD
ATOM     42  H   UNL     1     155.558 165.744 189.433  0.00  0.00    +0.034 HD
ATOM     43  H   UNL     1     153.801 163.525 188.262  0.00  0.00    +0.074 HD
ATOM     44  H   UNL     1     155.390 164.983 184.174  0.00  0.00    +0.069 HD
ATOM     45  H   UNL     1     154.780 167.359 186.045  0.00  0.00    +0.062 HD
ATOM     46  H   UNL     1     156.128 167.147 183.246  0.00  0.00    +0.061 HD
ATOM     47  H   UNL     1     155.480 169.526 185.090  0.00  0.00    +0.057 HD
ATOM     48  H   UNL     1     156.774 169.246 182.289  0.00  0.00    +0.034 HD
ATOM     49  H   UNL     1     155.860 170.607 182.881  0.00  0.00    +0.034 HD
ATOM     50  H   UNL     1     158.270 171.042 182.786  0.00  0.00    +0.074 HD
ATOM     51  H   UNL     1     159.784 170.401 184.623  0.00  0.00    +0.036 HD
ATOM     52  H   UNL     1     160.147 169.439 182.512  0.00  0.00    +0.060 HD
ENDROOT
BRANCH   1  53
ATOM     53  C   UNL     1     162.207 168.365 183.307  0.00  0.00    -0.060 C 
ATOM     54  H   UNL     1     162.785 167.547 182.865  0.00  0.00    +0.023 HD
ATOM     55  H   UNL     1     162.061 169.137 182.543  0.00  0.00    +0.023 HD
ATOM     56  H   UNL     1     162.804 168.810 184.111  0.00  0.00    +0.023 HD
ENDBRANCH   1  53
BRANCH   5  57
ATOM     57  C   UNL     1     161.633 162.973 184.251  0.00  0.00    -0.041 C 
ATOM     58  H   UNL     1     161.965 163.790 183.601  0.00  0.00    +0.028 HD
ATOM     59  H   UNL     1     162.355 162.862 185.064  0.00  0.00    +0.028 HD
ATOM     60  H   UNL     1     161.674 162.064 183.650  0.00  0.00    +0.028 HD
ENDBRANCH   5  57
BRANCH  24  61
ATOM     61  C   UNL     1     158.603 168.985 185.607  0.00  0.00    -0.057 C 
ATOM     62  H   UNL     1     159.452 168.454 186.049  0.00  0.00    +0.023 HD
ATOM     63  H   UNL     1     157.813 168.249 185.451  0.00  0.00    +0.023 HD
ATOM     64  H   UNL     1     158.271 169.701 186.365  0.00  0.00    +0.023 HD
ENDBRANCH  24  61
BRANCH   8  65
ATOM     65  C   UNL     1     161.944 163.376 188.205  0.00  0.00    -0.062 C 
ATOM     66  H   UNL     1     162.449 163.474 189.173  0.00  0.00    +0.023 HD
ATOM     67  H   UNL     1     162.679 163.035 187.470  0.00  0.00    +0.023 HD
ATOM     68  H   UNL     1     161.607 164.374 187.906  0.00  0.00    +0.023 HD
ENDBRANCH   8  65
BRANCH  14  69
ATOM     69  C   UNL     1     152.711 165.237 189.115  0.00  0.00    +0.020 C 
ATOM     70  H   UNL     1     152.052 165.551 188.294  0.00  0.00    +0.036 HD
BRANCH  69  71
ATOM     71  C   UNL     1     151.960 164.218 189.979  0.00  0.00    -0.057 C 
ATOM     72  H   UNL     1     151.865 164.543 191.016  0.00  0.00    +0.023 HD
ATOM     73  H   UNL     1     152.457 163.244 189.981  0.00  0.00    +0.023 HD
ATOM     74  H   UNL     1     150.938 164.069 189.612  0.00  0.00    +0.023 HD
ENDBRANCH  69  71
BRANCH  69  75
ATOM     75  C   UNL     1     153.133 166.524 189.879  0.00  0.00    +0.064 C 
ATOM     76  H   UNL     1     154.133 166.372 190.305  0.00  0.00    +0.060 HD
BRANCH  75  77
ATOM     77  C   UNL     1     152.206 167.096 190.989  0.00  0.00    -0.017 C 
ATOM     78  H   UNL     1     151.415 166.348 191.147  0.00  0.00    +0.032 HD
BRANCH  77  79
ATOM     79  C   UNL     1     152.886 167.241 192.356  0.00  0.00    -0.060 C 
ATOM     80  H   UNL     1     152.656 166.381 192.994  0.00  0.00    +0.023 HD
ATOM     81  H   UNL     1     153.976 167.276 192.257  0.00  0.00    +0.023 HD
ATOM     82  H   UNL     1     152.563 168.133 192.894  0.00  0.00    +0.023 HD
ENDBRANCH  77  79
BRANCH  77  83
ATOM     83  C   UNL     1     151.470 168.365 190.504  0.00  0.00    -0.045 C 
ATOM     84  H   UNL     1     150.845 168.080 189.647  0.00  0.00    +0.027 HD
ATOM     85  H   UNL     1     152.184 169.102 190.134  0.00  0.00    +0.027 HD
BRANCH  83  86
ATOM     86  C   UNL     1     150.589 169.024 191.568  0.00  0.00    -0.015 C 
ATOM     87  H   UNL     1     150.895 170.069 191.706  0.00  0.00    +0.030 HD
ATOM     88  H   UNL     1     150.764 168.545 192.540  0.00  0.00    +0.030 HD
BRANCH  86  89
ATOM     89  C   UNL     1     149.072 168.954 191.295  0.00  0.00    +0.109 C 
ATOM     90  H   UNL     1     148.588 168.736 192.255  0.00  0.00    +0.074 HD
BRANCH  89  91
ATOM     91  C   UNL     1     148.603 167.873 190.283  0.00  0.00    +0.031 C 
ATOM     92  H   UNL     1     149.498 167.520 189.756  0.00  0.00    +0.037 HD
BRANCH  91  93
ATOM     93  C   UNL     1     147.626 168.446 189.245  0.00  0.00    -0.056 C 
ATOM     94  H   UNL     1     146.596 168.427 189.616  0.00  0.00    +0.023 HD
ATOM     95  H   UNL     1     147.657 167.876 188.312  0.00  0.00    +0.023 HD
ATOM     96  H   UNL     1     147.865 169.482 188.986  0.00  0.00    +0.023 HD
ENDBRANCH  91  93
BRANCH  91  97
ATOM     97  C   UNL     1     147.953 166.654 191.013  0.00  0.00    +0.115 C 
ATOM     98  H   UNL     1     147.328 166.129 190.281  0.00  0.00    +0.074 HD
BRANCH  97  99
ATOM     99  C   UNL     1     148.989 165.633 191.575  0.00  0.00    +0.013 C 
ATOM    100  H   UNL     1     149.913 165.711 190.994  0.00  0.00    +0.038 HD
BRANCH  99 101
ATOM    101  C   UNL     1     148.493 164.190 191.405  0.00  0.00    -0.056 C 
ATOM    102  H   UNL     1     148.844 163.739 190.469  0.00  0.00    +0.024 HD
ATOM    103  H   UNL     1     147.396 164.156 191.395  0.00  0.00    +0.024 HD
ATOM    104  H   UNL     1     148.835 163.563 192.235  0.00  0.00    +0.024 HD
ENDBRANCH  99 101
BRANCH  99 105
ATOM    105  C   UNL     1     149.289 165.863 193.046  0.00  0.00    -0.064 C 
ATOM    106  C   UNL     1     150.152 165.125 193.756  0.00  0.00    -0.005 C 
ATOM    107  H   UNL     1     148.731 166.677 193.500  0.00  0.00    +0.059 HD
ATOM    108  H   UNL     1     150.686 164.317 193.254  0.00  0.00    +0.078 HD
BRANCH 106 109
ATOM    109  N   UNL     1     150.463 165.265 195.100  0.00  0.00    -0.284 N 
ATOM    110  C   UNL     1     150.081 166.326 195.912  0.00  0.00    +0.206 C 
ATOM    111  O   UNL     1     150.362 166.464 197.098  0.00  0.00    -0.279 OA
ATOM    112  H   UNL     1     149.465 167.080 195.402  0.00  0.00    +0.126 HD
BRANCH 109 113
ATOM    113  C   UNL     1     151.286 164.221 195.702  0.00  0.00    +0.007 C 
ATOM    114  H   UNL     1     151.239 163.283 195.145  0.00  0.00    +0.043 HD
ATOM    115  H   UNL     1     152.326 164.557 195.736  0.00  0.00    +0.043 HD
ATOM    116  H   UNL     1     150.918 164.052 196.717  0.00  0.00    +0.043 HD
ENDBRANCH 109 113
ENDBRANCH 106 109
ENDBRANCH  99 105
ENDBRANCH  97  99
BRANCH  97 117
ATOM    117  O   UNL     1     147.145 167.131 192.116  0.00  0.00    -0.461 OA
BRANCH 117 118
ATOM    118  C   UNL     1     145.908 166.587 192.273  0.00  0.00    +0.304 C 
ATOM    119  O   UNL     1     145.303 166.484 193.331  0.00  0.00    -0.251 OA
BRANCH 118 120
ATOM    120  C   UNL     1     145.372 166.145 190.947  0.00  0.00    +0.033 C 
ATOM    121  H   UNL     1     146.160 165.647 190.377  0.00  0.00    +0.034 HD
ATOM    122  H   UNL     1     144.522 165.473 191.094  0.00  0.00    +0.034 HD
ATOM    123  H   UNL     1     145.031 167.019 190.385  0.00  0.00    +0.034 HD
ENDBRANCH 118 120
ENDBRANCH 117 118
ENDBRANCH  97 117
ENDBRANCH  91  97
ENDBRANCH  89  91
BRANCH  89 124
ATOM    124  O   UNL     1     148.691 170.261 190.804  0.00  0.00    -0.460 OA
BRANCH 124 125
ATOM    125  C   UNL     1     148.207 171.155 191.706  0.00  0.00    +0.324 C 
ATOM    126  O   UNL     1     147.965 170.868 192.877  0.00  0.00    -0.249 OA
BRANCH 125 127
ATOM    127  C   UNL     1     148.084 172.589 191.158  0.00  0.00    +0.105 C 
ATOM    128  H   UNL     1     148.721 172.615 190.263  0.00  0.00    +0.058 HD
BRANCH 127 129
ATOM    129  C   UNL     1     148.710 173.570 192.158  0.00  0.00    -0.039 C 
ATOM    130  H   UNL     1     149.480 174.189 191.682  0.00  0.00    +0.025 HD
ATOM    131  H   UNL     1     147.961 174.230 192.608  0.00  0.00    +0.025 HD
ATOM    132  H   UNL     1     149.193 173.025 192.979  0.00  0.00    +0.025 HD
ENDBRANCH 127 129
BRANCH 127 133
ATOM    133  N   UNL     1     146.735 173.068 190.754  0.00  0.00    -0.296 NA
BRANCH 133 134
ATOM    134  C   UNL     1     145.770 173.185 191.839  0.00  0.00    -0.012 C 
ATOM    135  H   UNL     1     144.937 172.483 191.727  0.00  0.00    +0.039 HD
ATOM    136  H   UNL     1     145.361 174.194 191.931  0.00  0.00    +0.039 HD
ATOM    137  H   UNL     1     146.245 172.935 192.796  0.00  0.00    +0.039 HD
ENDBRANCH 133 134
BRANCH 133 138
ATOM    138  C   UNL     1     146.177 172.358 189.609  0.00  0.00    -0.012 C 
ATOM    139  H   UNL     1     145.894 171.336 189.879  0.00  0.00    +0.039 HD
ATOM    140  H   UNL     1     146.931 172.269 188.818  0.00  0.00    +0.039 HD
ATOM    141  H   UNL     1     145.304 172.853 189.175  0.00  0.00    +0.039 HD
ENDBRANCH 133 138
ENDBRANCH 127 133
ENDBRANCH 125 127
ENDBRANCH 124 125
ENDBRANCH  89 124
ENDBRANCH  86  89
ENDBRANCH  83  86
ENDBRANCH  77  83
ENDBRANCH  75  77
BRANCH  75 142
ATOM    142  O   UNL     1     153.288 167.567 188.899  0.00  0.00    -0.391 OA
ATOM    143  H   UNL     1     152.953 167.246 188.046  0.00  0.00    +0.210 HD
ENDBRANCH  75 142
ENDBRANCH  69  75
ENDBRANCH  14  69
BRANCH  25 144
ATOM    144  O   UNL     1     158.761 167.992 182.544  0.00  0.00    -0.391 OA
ATOM    145  H   UNL     1     158.618 167.164 183.034  0.00  0.00    +0.210 HD
ENDBRANCH  25 144
BRANCH  23 146
ATOM    146  O   UNL     1     157.436 171.561 184.611  0.00  0.00    -0.460 OA
BRANCH 146 147
ATOM    147  C   UNL     1     156.700 172.594 184.120  0.00  0.00    +0.327 C 
ATOM    148  O   UNL     1     155.719 173.064 184.691  0.00  0.00    -0.249 OA
BRANCH 147 149
ATOM    149  C   UNL     1     157.225 173.140 182.779  0.00  0.00    +0.131 C 
ATOM    150  H   UNL     1     157.864 172.330 182.400  0.00  0.00    +0.060 HD
BRANCH 149 151
ATOM    151  C   UNL     1     158.124 174.358 183.094  0.00  0.00    +0.073 C 
ATOM    152  H   UNL     1     157.558 175.294 183.019  0.00  0.00    +0.058 HD
ATOM    153  H   UNL     1     158.497 174.287 184.123  0.00  0.00    +0.058 HD
BRANCH 151 154
ATOM    154  O   UNL     1     159.256 174.396 182.216  0.00  0.00    -0.381 OA
BRANCH 154 155
ATOM    155  C   UNL     1     159.770 173.096 181.963  0.00  0.00    +0.037 C 
ATOM    156  H   UNL     1     160.813 173.148 181.640  0.00  0.00    +0.052 HD
ATOM    157  H   UNL     1     159.165 172.590 181.205  0.00  0.00    +0.052 HD
ATOM    158  H   UNL     1     159.720 172.519 182.891  0.00  0.00    +0.052 HD
ENDBRANCH 154 155
ENDBRANCH 151 154
ENDBRANCH 149 151
BRANCH 149 159
ATOM    159  N   UNL     1     156.126 173.332 181.778  0.00  0.00    -0.294 NA
BRANCH 159 160
ATOM    160  C   UNL     1     156.346 172.522 180.580  0.00  0.00    -0.012 C 
ATOM    161  H   UNL     1     155.623 171.708 180.473  0.00  0.00    +0.039 HD
ATOM    162  H   UNL     1     157.350 172.084 180.595  0.00  0.00    +0.039 HD
ATOM    163  H   UNL     1     156.301 173.145 179.682  0.00  0.00    +0.039 HD
ENDBRANCH 159 160
BRANCH 159 164
ATOM    164  C   UNL     1     155.897 174.728 181.414  0.00  0.00    -0.012 C 
ATOM    165  H   UNL     1     154.854 174.871 181.108  0.00  0.00    +0.039 HD
ATOM    166  H   UNL     1     156.532 175.057 180.586  0.00  0.00    +0.039 HD
ATOM    167  H   UNL     1     156.064 175.395 182.265  0.00  0.00    +0.039 HD
ENDBRANCH 159 164
ENDBRANCH 149 159
ENDBRANCH 147 149
ENDBRANCH 146 147
ENDBRANCH  23 146
BRANCH   4 168
ATOM    168  O   UNL     1     157.993 163.885 184.133  0.00  0.00    -0.376 OA
BRANCH 168 169
ATOM    169  C   UNL     1     157.361 163.362 182.970  0.00  0.00    +0.037 C 
ATOM    170  H   UNL     1     157.472 164.058 182.133  0.00  0.00    +0.052 HD
ATOM    171  H   UNL     1     157.768 162.383 182.701  0.00  0.00    +0.052 HD
ATOM    172  H   UNL     1     156.295 163.246 183.185  0.00  0.00    +0.052 HD
ENDBRANCH 168 169
ENDBRANCH   4 168
BRANCH  10 173
ATOM    173  O   UNL     1     158.569 161.192 190.005  0.00  0.00    -0.376 OA
BRANCH 173 174
ATOM    174  C   UNL     1     158.560 161.584 191.373  0.00  0.00    +0.037 C 
ATOM    175  H   UNL     1     159.318 160.997 191.899  0.00  0.00    +0.052 HD
ATOM    176  H   UNL     1     158.808 162.643 191.478  0.00  0.00    +0.052 HD
ATOM    177  H   UNL     1     157.587 161.377 191.827  0.00  0.00    +0.052 HD
ENDBRANCH 173 174
ENDBRANCH  10 173
TORSDOF 45
ENDMDL
MODEL 3
REMARK VINA RESULT:      -5.7      4.967      9.683
REMARK  Name = Aplyronine A_conf2
REMARK  45 active torsions:
REMARK  status: ('A' for Active; 'I' for Inactive)
REMARK    1  A    between atoms: C_1  and  C_2
REMARK    2  A    between atoms: C_5  and  O_75
REMARK    3  A    between atoms: C_6  and  C_74
REMARK    4  A    between atoms: C_9  and  C_73
REMARK    5  A    between atoms: C_11  and  O_71
REMARK    6  A    between atoms: C_15  and  C_39
REMARK    7  A    between atoms: C_24  and  O_29
REMARK    8  A    between atoms: C_25  and  C_28
REMARK    9  A    between atoms: C_26  and  O_27
REMARK   10  A    between atoms: O_29  and  C_30
REMARK   11  A    between atoms: C_30  and  C_32
REMARK   12  A    between atoms: C_32  and  C_33
REMARK   13  A    between atoms: C_32  and  N_36
REMARK   14  A    between atoms: C_33  and  O_34
REMARK   15  A    between atoms: O_34  and  C_35
REMARK   16  A    between atoms: N_36  and  C_37
REMARK   17  A    between atoms: N_36  and  C_38
REMARK   18  A    between atoms: C_39  and  C_40
REMARK   19  A    between atoms: C_39  and  C_41
REMARK   20  A    between atoms: C_41  and  C_42
REMARK   21  A    between atoms: C_41  and  O_70
REMARK   22  A    between atoms: C_42  and  C_43
REMARK   23  A    between atoms: C_42  and  C_44
REMARK   24  A    between atoms: C_44  and  C_45
REMARK   25  A    between atoms: C_45  and  C_46
REMARK   26  A    between atoms: C_46  and  C_47
REMARK   27  A    between atoms: C_46  and  O_62
REMARK   28  A    between atoms: C_47  and  C_48
REMARK   29  A    between atoms: C_47  and  C_49
REMARK   30  A    between atoms: C_49  and  C_50
REMARK   31  A    between atoms: C_49  and  O_58
REMARK   32  A    between atoms: C_50  and  C_51
REMARK   33  A    between atoms: C_50  and  C_52
REMARK   34  A    between atoms: C_53  and  N_54
REMARK   35  A    between atoms: N_54  and  C_55
REMARK   36  A    between atoms: O_58  and  C_59
REMARK   37  A    between atoms: C_59  and  C_61
REMARK   38  A    between atoms: O_62  and  C_63
REMARK   39  A    between atoms: C_63  and  C_65
REMARK   40  A    between atoms: C_65  and  C_66
REMARK   41  A    between atoms: C_65  and  N_67
REMARK   42  A    between atoms: N_67  and  C_68
REMARK   43  A    between atoms: N_67  and  C_69
REMARK   44  A    between atoms: O_71  and  C_72
REMARK   45  A    between atoms: O_75  and  C_76
REMARK                            x       y       z     vdW  Elec       q    Type
REMARK                         _______ _______ _______ _____ _____    ______ ____
ROOT
ATOM      1  C   UNL     1     160.827 167.833 183.872  0.00  0.00    -0.017 C 
ATOM      2  C   UNL     1     160.707 166.313 183.606  0.00  0.00    -0.045 C 
ATOM      3  C   UNL     1     159.522 165.645 184.317  0.00  0.00    -0.022 C 
ATOM      4  C   UNL     1     159.344 164.156 183.955  0.00  0.00    +0.079 C 
ATOM      5  C   UNL     1     160.200 163.234 184.831  0.00  0.00    -0.048 C 
ATOM      6  C   UNL     1     159.710 162.714 185.978  0.00  0.00    -0.082 C 
ATOM      7  C   UNL     1     160.351 161.773 186.961  0.00  0.00    -0.032 C 
ATOM      8  C   UNL     1     160.650 162.392 188.345  0.00  0.00    -0.038 C 
ATOM      9  C   UNL     1     159.456 163.122 189.005  0.00  0.00    -0.020 C 
ATOM     10  C   UNL     1     158.178 162.274 189.131  0.00  0.00    +0.077 C 
ATOM     11  C   UNL     1     157.053 163.117 189.681  0.00  0.00    -0.059 C 
ATOM     12  C   UNL     1     156.270 163.875 188.893  0.00  0.00    -0.082 C 
ATOM     13  C   UNL     1     155.111 164.715 189.367  0.00  0.00    +0.003 C 
ATOM     14  C   UNL     1     153.885 164.603 188.426  0.00  0.00    +0.112 C 
ATOM     15  O   UNL     1     154.204 165.328 187.209  0.00  0.00    -0.458 OA
ATOM     16  C   UNL     1     154.470 164.626 186.087  0.00  0.00    +0.332 C 
ATOM     17  O   UNL     1     154.368 163.418 185.941  0.00  0.00    -0.246 OA
ATOM     18  C   UNL     1     154.987 165.512 185.020  0.00  0.00    +0.022 C 
ATOM     19  C   UNL     1     155.077 166.847 185.115  0.00  0.00    -0.055 C 
ATOM     20  C   UNL     1     155.687 167.657 184.085  0.00  0.00    -0.065 C 
ATOM     21  C   UNL     1     155.832 168.988 184.187  0.00  0.00    -0.081 C 
ATOM     22  C   UNL     1     156.565 169.819 183.166  0.00  0.00    +0.003 C 
ATOM     23  C   UNL     1     157.856 170.519 183.660  0.00  0.00    +0.111 C 
ATOM     24  C   UNL     1     158.993 169.664 184.305  0.00  0.00    +0.020 C 
ATOM     25  C   UNL     1     159.699 168.734 183.273  0.00  0.00    +0.064 C 
ATOM     26  H   UNL     1     160.881 167.971 184.956  0.00  0.00    +0.032 HD
ATOM     27  H   UNL     1     160.647 166.129 182.526  0.00  0.00    +0.027 HD
ATOM     28  H   UNL     1     161.630 165.834 183.947  0.00  0.00    +0.027 HD
ATOM     29  H   UNL     1     159.631 165.762 185.404  0.00  0.00    +0.029 HD
ATOM     30  H   UNL     1     158.593 166.165 184.065  0.00  0.00    +0.029 HD
ATOM     31  H   UNL     1     159.579 164.006 182.893  0.00  0.00    +0.064 HD
ATOM     32  H   UNL     1     158.689 162.993 186.245  0.00  0.00    +0.057 HD
ATOM     33  H   UNL     1     159.675 160.918 187.088  0.00  0.00    +0.031 HD
ATOM     34  H   UNL     1     161.274 161.339 186.561  0.00  0.00    +0.031 HD
ATOM     35  H   UNL     1     160.949 161.567 189.006  0.00  0.00    +0.030 HD
ATOM     36  H   UNL     1     159.240 164.041 188.442  0.00  0.00    +0.030 HD
ATOM     37  H   UNL     1     159.772 163.439 190.008  0.00  0.00    +0.030 HD
ATOM     38  H   UNL     1     157.888 161.880 188.150  0.00  0.00    +0.064 HD
ATOM     39  H   UNL     1     156.896 163.088 190.756  0.00  0.00    +0.059 HD
ATOM     40  H   UNL     1     156.487 163.900 187.826  0.00  0.00    +0.057 HD
ATOM     41  H   UNL     1     154.830 164.411 190.383  0.00  0.00    +0.034 HD
ATOM     42  H   UNL     1     155.457 165.756 189.406  0.00  0.00    +0.034 HD
ATOM     43  H   UNL     1     153.702 163.542 188.220  0.00  0.00    +0.074 HD
ATOM     44  H   UNL     1     155.345 164.981 184.146  0.00  0.00    +0.069 HD
ATOM     45  H   UNL     1     154.727 167.365 186.004  0.00  0.00    +0.062 HD
ATOM     46  H   UNL     1     156.105 167.139 183.222  0.00  0.00    +0.061 HD
ATOM     47  H   UNL     1     155.449 169.525 185.052  0.00  0.00    +0.057 HD
ATOM     48  H   UNL     1     156.773 169.232 182.267  0.00  0.00    +0.034 HD
ATOM     49  H   UNL     1     155.860 170.598 182.844  0.00  0.00    +0.034 HD
ATOM     50  H   UNL     1     158.273 171.021 182.776  0.00  0.00    +0.074 HD
ATOM     51  H   UNL     1     159.763 170.377 184.631  0.00  0.00    +0.036 HD
ATOM     52  H   UNL     1     160.144 169.407 182.527  0.00  0.00    +0.060 HD
ENDROOT
BRANCH   1  53
ATOM     53  C   UNL     1     162.189 168.325 183.348  0.00  0.00    -0.060 C 
ATOM     54  H   UNL     1     162.641 169.047 184.036  0.00  0.00    +0.023 HD
ATOM     55  H   UNL     1     162.883 167.487 183.222  0.00  0.00    +0.023 HD
ATOM     56  H   UNL     1     162.078 168.808 182.371  0.00  0.00    +0.023 HD
ENDBRANCH   1  53
BRANCH   5  57
ATOM     57  C   UNL     1     161.577 162.938 184.300  0.00  0.00    -0.041 C 
ATOM     58  H   UNL     1     162.342 163.336 184.975  0.00  0.00    +0.028 HD
ATOM     59  H   UNL     1     161.726 161.860 184.204  0.00  0.00    +0.028 HD
ATOM     60  H   UNL     1     161.764 163.384 183.323  0.00  0.00    +0.028 HD
ENDBRANCH   5  57
BRANCH  24  61
ATOM     61  C   UNL     1     158.562 168.970 185.605  0.00  0.00    -0.057 C 
ATOM     62  H   UNL     1     157.566 168.527 185.499  0.00  0.00    +0.023 HD
ATOM     63  H   UNL     1     158.516 169.661 186.448  0.00  0.00    +0.023 HD
ATOM     64  H   UNL     1     159.229 168.143 185.865  0.00  0.00    +0.023 HD
ENDBRANCH  24  61
BRANCH   8  65
ATOM     65  C   UNL     1     161.845 163.351 188.256  0.00  0.00    -0.062 C 
ATOM     66  H   UNL     1     162.055 163.617 187.214  0.00  0.00    +0.023 HD
ATOM     67  H   UNL     1     161.662 164.275 188.813  0.00  0.00    +0.023 HD
ATOM     68  H   UNL     1     162.746 162.883 188.666  0.00  0.00    +0.023 HD
ENDBRANCH   8  65
BRANCH  14  69
ATOM     69  C   UNL     1     152.612 165.263 189.056  0.00  0.00    +0.020 C 
ATOM     70  H   UNL     1     151.970 165.589 188.227  0.00  0.00    +0.036 HD
BRANCH  69  71
ATOM     71  C   UNL     1     151.836 164.245 189.900  0.00  0.00    -0.057 C 
ATOM     72  H   UNL     1     152.106 164.289 190.956  0.00  0.00    +0.023 HD
ATOM     73  H   UNL     1     152.005 163.220 189.556  0.00  0.00    +0.023 HD
ATOM     74  H   UNL     1     150.758 164.437 189.853  0.00  0.00    +0.023 HD
ENDBRANCH  69  71
BRANCH  69  75
ATOM     75  C   UNL     1     153.035 166.539 189.838  0.00  0.00    +0.064 C 
ATOM     76  H   UNL     1     154.022 166.371 190.284  0.00  0.00    +0.060 HD
BRANCH  75  77
ATOM     77  C   UNL     1     152.092 167.118 190.931  0.00  0.00    -0.017 C 
ATOM     78  H   UNL     1     151.284 166.381 191.063  0.00  0.00    +0.032 HD
BRANCH  77  79
ATOM     79  C   UNL     1     152.741 167.238 192.315  0.00  0.00    -0.060 C 
ATOM     80  H   UNL     1     152.104 167.820 192.990  0.00  0.00    +0.023 HD
ATOM     81  H   UNL     1     152.876 166.256 192.778  0.00  0.00    +0.023 HD
ATOM     82  H   UNL     1     153.710 167.737 192.282  0.00  0.00    +0.023 HD
ENDBRANCH  77  79
BRANCH  77  83
ATOM     83  C   UNL     1     151.389 168.403 190.440  0.00  0.00    -0.045 C 
ATOM     84  H   UNL     1     150.425 168.110 190.004  0.00  0.00    +0.027 HD
ATOM     85  H   UNL     1     151.963 168.868 189.637  0.00  0.00    +0.027 HD
BRANCH  83  86
ATOM     86  C   UNL     1     151.146 169.442 191.537  0.00  0.00    -0.015 C 
ATOM     87  H   UNL     1     151.601 170.399 191.249  0.00  0.00    +0.030 HD
ATOM     88  H   UNL     1     151.671 169.142 192.453  0.00  0.00    +0.030 HD
BRANCH  86  89
ATOM     89  C   UNL     1     149.666 169.660 191.915  0.00  0.00    +0.109 C 
ATOM     90  H   UNL     1     149.594 169.526 193.001  0.00  0.00    +0.074 HD
BRANCH  89  91
ATOM     91  C   UNL     1     148.639 168.697 191.259  0.00  0.00    +0.031 C 
ATOM     92  H   UNL     1     149.152 168.203 190.425  0.00  0.00    +0.037 HD
BRANCH  91  93
ATOM     93  C   UNL     1     147.424 169.451 190.698  0.00  0.00    -0.056 C 
ATOM     94  H   UNL     1     146.546 169.325 191.341  0.00  0.00    +0.023 HD
ATOM     95  H   UNL     1     147.159 169.093 189.698  0.00  0.00    +0.023 HD
ATOM     96  H   UNL     1     147.615 170.524 190.605  0.00  0.00    +0.023 HD
ENDBRANCH  91  93
BRANCH  91  97
ATOM     97  C   UNL     1     148.169 167.597 192.265  0.00  0.00    +0.115 C 
ATOM     98  H   UNL     1     147.303 167.996 192.806  0.00  0.00    +0.074 HD
BRANCH  97  99
ATOM     99  C   UNL     1     147.730 166.266 191.581  0.00  0.00    +0.013 C 
ATOM    100  H   UNL     1     148.026 165.427 192.219  0.00  0.00    +0.038 HD
BRANCH  99 101
ATOM    101  C   UNL     1     148.456 166.066 190.243  0.00  0.00    -0.056 C 
ATOM    102  H   UNL     1     149.000 165.115 190.205  0.00  0.00    +0.024 HD
ATOM    103  H   UNL     1     149.184 166.869 190.072  0.00  0.00    +0.024 HD
ATOM    104  H   UNL     1     147.744 166.084 189.411  0.00  0.00    +0.024 HD
ENDBRANCH  99 101
BRANCH  99 105
ATOM    105  C   UNL     1     146.235 166.213 191.325  0.00  0.00    -0.064 C 
ATOM    106  C   UNL     1     145.309 166.511 192.245  0.00  0.00    -0.005 C 
ATOM    107  H   UNL     1     145.958 165.894 190.325  0.00  0.00    +0.059 HD
ATOM    108  H   UNL     1     145.638 166.825 193.237  0.00  0.00    +0.078 HD
BRANCH 106 109
ATOM    109  N   UNL     1     143.931 166.469 192.090  0.00  0.00    -0.284 N 
ATOM    110  C   UNL     1     143.259 166.080 190.937  0.00  0.00    +0.206 C 
ATOM    111  O   UNL     1     142.042 166.051 190.786  0.00  0.00    -0.279 OA
ATOM    112  H   UNL     1     143.922 165.772 190.116  0.00  0.00    +0.126 HD
BRANCH 109 113
ATOM    113  C   UNL     1     143.122 166.895 193.226  0.00  0.00    +0.007 C 
ATOM    114  H   UNL     1     143.732 167.213 194.074  0.00  0.00    +0.043 HD
ATOM    115  H   UNL     1     142.483 167.729 192.922  0.00  0.00    +0.043 HD
ATOM    116  H   UNL     1     142.503 166.047 193.531  0.00  0.00    +0.043 HD
ENDBRANCH 109 113
ENDBRANCH 106 109
ENDBRANCH  99 105
ENDBRANCH  97  99
BRANCH  97 117
ATOM    117  O   UNL     1     149.246 167.298 193.185  0.00  0.00    -0.461 OA
BRANCH 117 118
ATOM    118  C   UNL     1     148.970 166.475 194.233  0.00  0.00    +0.304 C 
ATOM    119  O   UNL     1     147.986 166.545 194.954  0.00  0.00    -0.251 OA
BRANCH 118 120
ATOM    120  C   UNL     1     150.044 165.441 194.368  0.00  0.00    +0.033 C 
ATOM    121  H   UNL     1     150.539 165.294 193.405  0.00  0.00    +0.034 HD
ATOM    122  H   UNL     1     150.767 165.752 195.127  0.00  0.00    +0.034 HD
ATOM    123  H   UNL     1     149.597 164.494 194.681  0.00  0.00    +0.034 HD
ENDBRANCH 118 120
ENDBRANCH 117 118
ENDBRANCH  97 117
ENDBRANCH  91  97
ENDBRANCH  89  91
BRANCH  89 124
ATOM    124  O   UNL     1     149.350 171.020 191.534  0.00  0.00    -0.460 OA
BRANCH 124 125
ATOM    125  C   UNL     1     149.369 171.966 192.511  0.00  0.00    +0.324 C 
ATOM    126  O   UNL     1     150.205 171.990 193.411  0.00  0.00    -0.249 OA
BRANCH 125 127
ATOM    127  C   UNL     1     148.308 173.068 192.330  0.00  0.00    +0.105 C 
ATOM    128  H   UNL     1     148.828 173.895 191.827  0.00  0.00    +0.058 HD
BRANCH 127 129
ATOM    129  C   UNL     1     147.890 173.601 193.708  0.00  0.00    -0.039 C 
ATOM    130  H   UNL     1     146.801 173.709 193.780  0.00  0.00    +0.025 HD
ATOM    131  H   UNL     1     148.231 172.950 194.519  0.00  0.00    +0.025 HD
ATOM    132  H   UNL     1     148.326 174.591 193.884  0.00  0.00    +0.025 HD
ENDBRANCH 127 129
BRANCH 127 133
ATOM    133  N   UNL     1     147.101 172.749 191.522  0.00  0.00    -0.296 NA
BRANCH 133 134
ATOM    134  C   UNL     1     147.152 173.188 190.134  0.00  0.00    -0.012 C 
ATOM    135  H   UNL     1     146.776 174.209 190.011  0.00  0.00    +0.039 HD
ATOM    136  H   UNL     1     146.593 172.531 189.464  0.00  0.00    +0.039 HD
ATOM    137  H   UNL     1     148.192 173.207 189.783  0.00  0.00    +0.039 HD
ENDBRANCH 133 134
BRANCH 133 138
ATOM    138  C   UNL     1     145.846 173.127 192.162  0.00  0.00    -0.012 C 
ATOM    139  H   UNL     1     145.073 172.372 191.988  0.00  0.00    +0.039 HD
ATOM    140  H   UNL     1     145.469 174.059 191.726  0.00  0.00    +0.039 HD
ATOM    141  H   UNL     1     145.938 173.282 193.240  0.00  0.00    +0.039 HD
ENDBRANCH 133 138
ENDBRANCH 127 133
ENDBRANCH 125 127
ENDBRANCH 124 125
ENDBRANCH  89 124
ENDBRANCH  86  89
ENDBRANCH  83  86
ENDBRANCH  77  83
ENDBRANCH  75  77
BRANCH  75 142
ATOM    142  O   UNL     1     153.226 167.586 188.868  0.00  0.00    -0.391 OA
ATOM    143  H   UNL     1     152.356 167.876 188.548  0.00  0.00    +0.210 HD
ENDBRANCH  75 142
ENDBRANCH  69  75
ENDBRANCH  14  69
BRANCH  25 144
ATOM    144  O   UNL     1     158.750 167.968 182.547  0.00  0.00    -0.391 OA
ATOM    145  H   UNL     1     158.489 168.482 181.763  0.00  0.00    +0.210 HD
ENDBRANCH  25 144
BRANCH  23 146
ATOM    146  O   UNL     1     157.421 171.549 184.589  0.00  0.00    -0.460 OA
BRANCH 146 147
ATOM    147  C   UNL     1     156.834 172.660 184.068  0.00  0.00    +0.327 C 
ATOM    148  O   UNL     1     155.917 173.268 184.617  0.00  0.00    -0.249 OA
BRANCH 147 149
ATOM    149  C   UNL     1     157.441 173.103 182.725  0.00  0.00    +0.131 C 
ATOM    150  H   UNL     1     157.831 172.170 182.294  0.00  0.00    +0.060 HD
BRANCH 149 151
ATOM    151  C   UNL     1     158.640 174.028 183.039  0.00  0.00    +0.073 C 
ATOM    152  H   UNL     1     158.424 175.064 182.749  0.00  0.00    +0.058 HD
ATOM    153  H   UNL     1     158.833 174.030 184.119  0.00  0.00    +0.058 HD
BRANCH 151 154
ATOM    154  O   UNL     1     159.825 173.570 182.378  0.00  0.00    -0.381 OA
BRANCH 154 155
ATOM    155  C   UNL     1     160.704 172.907 183.277  0.00  0.00    +0.037 C 
ATOM    156  H   UNL     1     161.210 173.627 183.925  0.00  0.00    +0.052 HD
ATOM    157  H   UNL     1     161.440 172.318 182.721  0.00  0.00    +0.052 HD
ATOM    158  H   UNL     1     160.114 172.230 183.899  0.00  0.00    +0.052 HD
ENDBRANCH 154 155
ENDBRANCH 151 154
ENDBRANCH 149 151
BRANCH 149 159
ATOM    159  N   UNL     1     156.400 173.618 181.777  0.00  0.00    -0.294 NA
BRANCH 159 160
ATOM    160  C   UNL     1     156.447 172.913 180.496  0.00  0.00    -0.012 C 
ATOM    161  H   UNL     1     155.577 173.111 179.864  0.00  0.00    +0.039 HD
ATOM    162  H   UNL     1     156.509 171.831 180.658  0.00  0.00    +0.039 HD
ATOM    163  H   UNL     1     157.348 173.187 179.940  0.00  0.00    +0.039 HD
ENDBRANCH 159 160
BRANCH 159 164
ATOM    164  C   UNL     1     156.457 175.062 181.566  0.00  0.00    -0.012 C 
ATOM    165  H   UNL     1     155.578 175.395 181.001  0.00  0.00    +0.039 HD
ATOM    166  H   UNL     1     157.345 175.371 181.005  0.00  0.00    +0.039 HD
ATOM    167  H   UNL     1     156.441 175.605 182.515  0.00  0.00    +0.039 HD
ENDBRANCH 159 164
ENDBRANCH 149 159
ENDBRANCH 147 149
ENDBRANCH 146 147
ENDBRANCH  23 146
BRANCH   4 168
ATOM    168  O   UNL     1     157.943 163.869 184.138  0.00  0.00    -0.376 OA
BRANCH 168 169
ATOM    169  C   UNL     1     157.351 163.225 183.014  0.00  0.00    +0.037 C 
ATOM    170  H   UNL     1     156.481 162.642 183.327  0.00  0.00    +0.052 HD
ATOM    171  H   UNL     1     157.064 163.949 182.247  0.00  0.00    +0.052 HD
ATOM    172  H   UNL     1     158.090 162.542 182.586  0.00  0.00    +0.052 HD
ENDBRANCH 168 169
ENDBRANCH   4 168
BRANCH  10 173
ATOM    173  O   UNL     1     158.438 161.189 190.024  0.00  0.00    -0.376 OA
BRANCH 173 174
ATOM    174  C   UNL     1     158.532 161.605 191.381  0.00  0.00    +0.037 C 
ATOM    175  H   UNL     1     157.535 161.540 191.825  0.00  0.00    +0.052 HD
ATOM    176  H   UNL     1     159.204 160.952 191.944  0.00  0.00    +0.052 HD
ATOM    177  H   UNL     1     158.872 162.642 191.444  0.00  0.00    +0.052 HD
ENDBRANCH 173 174
ENDBRANCH  10 173
TORSDOF 45
ENDMDL
MODEL 4
REMARK VINA RESULT:      -5.6      5.007     10.038
REMARK  Name = Aplyronine A_conf2
REMARK  45 active torsions:
REMARK  status: ('A' for Active; 'I' for Inactive)
REMARK    1  A    between atoms: C_1  and  C_2
REMARK    2  A    between atoms: C_5  and  O_75
REMARK    3  A    between atoms: C_6  and  C_74
REMARK    4  A    between atoms: C_9  and  C_73
REMARK    5  A    between atoms: C_11  and  O_71
REMARK    6  A    between atoms: C_15  and  C_39
REMARK    7  A    between atoms: C_24  and  O_29
REMARK    8  A    between atoms: C_25  and  C_28
REMARK    9  A    between atoms: C_26  and  O_27
REMARK   10  A    between atoms: O_29  and  C_30
REMARK   11  A    between atoms: C_30  and  C_32
REMARK   12  A    between atoms: C_32  and  C_33
REMARK   13  A    between atoms: C_32  and  N_36
REMARK   14  A    between atoms: C_33  and  O_34
REMARK   15  A    between atoms: O_34  and  C_35
REMARK   16  A    between atoms: N_36  and  C_37
REMARK   17  A    between atoms: N_36  and  C_38
REMARK   18  A    between atoms: C_39  and  C_40
REMARK   19  A    between atoms: C_39  and  C_41
REMARK   20  A    between atoms: C_41  and  C_42
REMARK   21  A    between atoms: C_41  and  O_70
REMARK   22  A    between atoms: C_42  and  C_43
REMARK   23  A    between atoms: C_42  and  C_44
REMARK   24  A    between atoms: C_44  and  C_45
REMARK   25  A    between atoms: C_45  and  C_46
REMARK   26  A    between atoms: C_46  and  C_47
REMARK   27  A    between atoms: C_46  and  O_62
REMARK   28  A    between atoms: C_47  and  C_48
REMARK   29  A    between atoms: C_47  and  C_49
REMARK   30  A    between atoms: C_49  and  C_50
REMARK   31  A    between atoms: C_49  and  O_58
REMARK   32  A    between atoms: C_50  and  C_51
REMARK   33  A    between atoms: C_50  and  C_52
REMARK   34  A    between atoms: C_53  and  N_54
REMARK   35  A    between atoms: N_54  and  C_55
REMARK   36  A    between atoms: O_58  and  C_59
REMARK   37  A    between atoms: C_59  and  C_61
REMARK   38  A    between atoms: O_62  and  C_63
REMARK   39  A    between atoms: C_63  and  C_65
REMARK   40  A    between atoms: C_65  and  C_66
REMARK   41  A    between atoms: C_65  and  N_67
REMARK   42  A    between atoms: N_67  and  C_68
REMARK   43  A    between atoms: N_67  and  C_69
REMARK   44  A    between atoms: O_71  and  C_72
REMARK   45  A    between atoms: O_75  and  C_76
REMARK                            x       y       z     vdW  Elec       q    Type
REMARK                         _______ _______ _______ _____ _____    ______ ____
ROOT
ATOM      1  C   UNL     1     161.132 168.574 183.805  0.00  0.00    -0.017 C 
ATOM      2  C   UNL     1     161.361 167.079 183.472  0.00  0.00    -0.045 C 
ATOM      3  C   UNL     1     160.354 166.130 184.136  0.00  0.00    -0.022 C 
ATOM      4  C   UNL     1     160.519 164.656 183.708  0.00  0.00    +0.079 C 
ATOM      5  C   UNL     1     161.557 163.913 184.556  0.00  0.00    -0.048 C 
ATOM      6  C   UNL     1     161.192 163.245 185.672  0.00  0.00    -0.082 C 
ATOM      7  C   UNL     1     162.026 162.428 186.623  0.00  0.00    -0.032 C 
ATOM      8  C   UNL     1     162.170 163.036 188.036  0.00  0.00    -0.038 C 
ATOM      9  C   UNL     1     160.839 163.447 188.710  0.00  0.00    -0.020 C 
ATOM     10  C   UNL     1     159.786 162.328 188.780  0.00  0.00    +0.077 C 
ATOM     11  C   UNL     1     158.497 162.870 189.350  0.00  0.00    -0.059 C 
ATOM     12  C   UNL     1     157.566 163.466 188.584  0.00  0.00    -0.082 C 
ATOM     13  C   UNL     1     156.245 164.001 189.076  0.00  0.00    +0.003 C 
ATOM     14  C   UNL     1     155.081 163.658 188.114  0.00  0.00    +0.112 C 
ATOM     15  O   UNL     1     155.232 164.490 186.935  0.00  0.00    -0.458 OA
ATOM     16  C   UNL     1     155.655 163.918 185.787  0.00  0.00    +0.332 C 
ATOM     17  O   UNL     1     155.829 162.726 185.588  0.00  0.00    -0.246 OA
ATOM     18  C   UNL     1     155.963 164.945 184.767  0.00  0.00    +0.022 C 
ATOM     19  C   UNL     1     155.749 166.261 184.921  0.00  0.00    -0.055 C 
ATOM     20  C   UNL     1     156.165 167.233 183.936  0.00  0.00    -0.065 C 
ATOM     21  C   UNL     1     156.004 168.556 184.097  0.00  0.00    -0.081 C 
ATOM     22  C   UNL     1     156.535 169.577 183.123  0.00  0.00    +0.003 C 
ATOM     23  C   UNL     1     157.632 170.527 183.666  0.00  0.00    +0.111 C 
ATOM     24  C   UNL     1     158.931 169.922 184.290  0.00  0.00    +0.020 C 
ATOM     25  C   UNL     1     159.833 169.223 183.229  0.00  0.00    +0.064 C 
ATOM     26  H   UNL     1     161.149 168.671 184.895  0.00  0.00    +0.032 HD
ATOM     27  H   UNL     1     161.348 166.936 182.385  0.00  0.00    +0.027 HD
ATOM     28  H   UNL     1     162.367 166.806 183.805  0.00  0.00    +0.027 HD
ATOM     29  H   UNL     1     160.429 166.219 185.229  0.00  0.00    +0.029 HD
ATOM     30  H   UNL     1     159.333 166.437 183.893  0.00  0.00    +0.029 HD
ATOM     31  H   UNL     1     160.786 164.612 182.644  0.00  0.00    +0.064 HD
ATOM     32  H   UNL     1     160.134 163.274 185.936  0.00  0.00    +0.057 HD
ATOM     33  H   UNL     1     161.559 161.439 186.703  0.00  0.00    +0.031 HD
ATOM     34  H   UNL     1     163.024 162.233 186.218  0.00  0.00    +0.031 HD
ATOM     35  H   UNL     1     162.645 162.271 188.666  0.00  0.00    +0.030 HD
ATOM     36  H   UNL     1     160.424 164.318 188.184  0.00  0.00    +0.030 HD
ATOM     37  H   UNL     1     161.071 163.782 189.730  0.00  0.00    +0.030 HD
ATOM     38  H   UNL     1     159.597 161.924 187.780  0.00  0.00    +0.064 HD
ATOM     39  H   UNL     1     158.345 162.757 190.420  0.00  0.00    +0.059 HD
ATOM     40  H   UNL     1     157.776 163.588 187.522  0.00  0.00    +0.057 HD
ATOM     41  H   UNL     1     156.036 163.595 190.074  0.00  0.00    +0.034 HD
ATOM     42  H   UNL     1     156.347 165.090 189.165  0.00  0.00    +0.034 HD
ATOM     43  H   UNL     1     155.143 162.593 187.860  0.00  0.00    +0.074 HD
ATOM     44  H   UNL     1     156.436 164.549 183.877  0.00  0.00    +0.069 HD
ATOM     45  H   UNL     1     155.287 166.645 185.826  0.00  0.00    +0.062 HD
ATOM     46  H   UNL     1     156.693 166.862 183.057  0.00  0.00    +0.061 HD
ATOM     47  H   UNL     1     155.506 168.954 184.978  0.00  0.00    +0.057 HD
ATOM     48  H   UNL     1     156.875 169.093 182.203  0.00  0.00    +0.034 HD
ATOM     49  H   UNL     1     155.673 170.191 182.825  0.00  0.00    +0.034 HD
ATOM     50  H   UNL     1     157.929 171.149 182.810  0.00  0.00    +0.074 HD
ATOM     51  H   UNL     1     159.518 170.775 184.658  0.00  0.00    +0.036 HD
ATOM     52  H   UNL     1     160.118 170.012 182.519  0.00  0.00    +0.060 HD
ENDROOT
BRANCH   1  53
ATOM     53  C   UNL     1     162.350 169.383 183.323  0.00  0.00    -0.060 C 
ATOM     54  H   UNL     1     162.097 170.441 183.192  0.00  0.00    +0.023 HD
ATOM     55  H   UNL     1     163.175 169.312 184.040  0.00  0.00    +0.023 HD
ATOM     56  H   UNL     1     162.717 169.000 182.364  0.00  0.00    +0.023 HD
ENDBRANCH   1  53
BRANCH   5  57
ATOM     57  C   UNL     1     162.967 163.960 184.032  0.00  0.00    -0.041 C 
ATOM     58  H   UNL     1     163.464 162.994 184.183  0.00  0.00    +0.028 HD
ATOM     59  H   UNL     1     162.971 164.187 182.963  0.00  0.00    +0.028 HD
ATOM     60  H   UNL     1     163.586 164.706 184.530  0.00  0.00    +0.028 HD
ENDBRANCH   5  57
BRANCH  24  61
ATOM     61  C   UNL     1     158.662 169.091 185.552  0.00  0.00    -0.057 C 
ATOM     62  H   UNL     1     159.569 168.569 185.875  0.00  0.00    +0.023 HD
ATOM     63  H   UNL     1     157.897 168.330 185.394  0.00  0.00    +0.023 HD
ATOM     64  H   UNL     1     158.364 169.719 186.397  0.00  0.00    +0.023 HD
ENDBRANCH  24  61
BRANCH   8  65
ATOM     65  C   UNL     1     163.118 164.243 188.006  0.00  0.00    -0.062 C 
ATOM     66  H   UNL     1     163.254 164.606 186.981  0.00  0.00    +0.023 HD
ATOM     67  H   UNL     1     162.736 165.069 188.613  0.00  0.00    +0.023 HD
ATOM     68  H   UNL     1     164.105 163.968 188.394  0.00  0.00    +0.023 HD
ENDBRANCH   8  65
BRANCH  14  69
ATOM     69  C   UNL     1     153.688 163.984 188.754  0.00  0.00    +0.020 C 
ATOM     70  H   UNL     1     152.938 163.905 187.956  0.00  0.00    +0.036 HD
BRANCH  69  71
ATOM     71  C   UNL     1     153.343 162.968 189.849  0.00  0.00    -0.057 C 
ATOM     72  H   UNL     1     152.341 163.117 190.253  0.00  0.00    +0.023 HD
ATOM     73  H   UNL     1     154.049 163.018 190.684  0.00  0.00    +0.023 HD
ATOM     74  H   UNL     1     153.366 161.945 189.457  0.00  0.00    +0.023 HD
ENDBRANCH  69  71
BRANCH  69  75
ATOM     75  C   UNL     1     153.686 165.462 189.240  0.00  0.00    +0.064 C 
ATOM     76  H   UNL     1     154.675 165.703 189.647  0.00  0.00    +0.060 HD
BRANCH  75  77
ATOM     77  C   UNL     1     152.606 165.933 190.255  0.00  0.00    -0.017 C 
ATOM     78  H   UNL     1     152.346 165.052 190.861  0.00  0.00    +0.032 HD
BRANCH  77  79
ATOM     79  C   UNL     1     153.112 166.968 191.268  0.00  0.00    -0.060 C 
ATOM     80  H   UNL     1     153.233 166.512 192.256  0.00  0.00    +0.023 HD
ATOM     81  H   UNL     1     154.093 167.359 190.980  0.00  0.00    +0.023 HD
ATOM     82  H   UNL     1     152.429 167.810 191.385  0.00  0.00    +0.023 HD
ENDBRANCH  77  79
BRANCH  77  83
ATOM     83  C   UNL     1     151.298 166.330 189.535  0.00  0.00    -0.045 C 
ATOM     84  H   UNL     1     151.547 166.548 188.488  0.00  0.00    +0.027 HD
ATOM     85  H   UNL     1     150.896 167.253 189.956  0.00  0.00    +0.027 HD
BRANCH  83  86
ATOM     86  C   UNL     1     150.209 165.255 189.577  0.00  0.00    -0.015 C 
ATOM     87  H   UNL     1     150.672 164.262 189.643  0.00  0.00    +0.030 HD
ATOM     88  H   UNL     1     149.659 165.250 188.627  0.00  0.00    +0.030 HD
BRANCH  86  89
ATOM     89  C   UNL     1     149.167 165.423 190.702  0.00  0.00    +0.109 C 
ATOM     90  H   UNL     1     148.680 164.449 190.830  0.00  0.00    +0.074 HD
BRANCH  89  91
ATOM     91  C   UNL     1     148.049 166.473 190.455  0.00  0.00    +0.031 C 
ATOM     92  H   UNL     1     147.094 165.933 190.482  0.00  0.00    +0.037 HD
BRANCH  91  93
ATOM     93  C   UNL     1     148.186 167.143 189.080  0.00  0.00    -0.056 C 
ATOM     94  H   UNL     1     149.221 167.446 188.887  0.00  0.00    +0.023 HD
ATOM     95  H   UNL     1     147.558 168.036 189.008  0.00  0.00    +0.023 HD
ATOM     96  H   UNL     1     147.878 166.478 188.268  0.00  0.00    +0.023 HD
ENDBRANCH  91  93
BRANCH  91  97
ATOM     97  C   UNL     1     148.029 167.557 191.580  0.00  0.00    +0.115 C 
ATOM     98  H   UNL     1     148.597 167.159 192.430  0.00  0.00    +0.074 HD
BRANCH  97  99
ATOM     99  C   UNL     1     148.684 168.909 191.163  0.00  0.00    +0.013 C 
ATOM    100  H   UNL     1     148.813 168.918 190.075  0.00  0.00    +0.038 HD
BRANCH  99 101
ATOM    101  C   UNL     1     150.089 169.053 191.763  0.00  0.00    -0.056 C 
ATOM    102  H   UNL     1     150.432 168.128 192.243  0.00  0.00    +0.024 HD
ATOM    103  H   UNL     1     150.107 169.844 192.524  0.00  0.00    +0.024 HD
ATOM    104  H   UNL     1     150.815 169.324 190.989  0.00  0.00    +0.024 HD
ENDBRANCH  99 101
BRANCH  99 105
ATOM    105  C   UNL     1     147.858 170.109 191.590  0.00  0.00    -0.064 C 
ATOM    106  C   UNL     1     148.349 171.145 192.282  0.00  0.00    -0.005 C 
ATOM    107  H   UNL     1     146.812 170.064 191.303  0.00  0.00    +0.059 HD
ATOM    108  H   UNL     1     149.407 171.142 192.549  0.00  0.00    +0.078 HD
BRANCH 106 109
ATOM    109  N   UNL     1     147.655 172.262 192.720  0.00  0.00    -0.284 N 
ATOM    110  C   UNL     1     148.000 173.053 193.810  0.00  0.00    +0.206 C 
ATOM    111  O   UNL     1     147.386 174.035 194.212  0.00  0.00    -0.279 OA
ATOM    112  H   UNL     1     148.919 172.732 194.320  0.00  0.00    +0.126 HD
BRANCH 109 113
ATOM    113  C   UNL     1     146.444 172.620 191.989  0.00  0.00    +0.007 C 
ATOM    114  H   UNL     1     146.022 173.569 192.324  0.00  0.00    +0.043 HD
ATOM    115  H   UNL     1     146.676 172.697 190.922  0.00  0.00    +0.043 HD
ATOM    116  H   UNL     1     145.710 171.827 192.151  0.00  0.00    +0.043 HD
ENDBRANCH 109 113
ENDBRANCH 106 109
ENDBRANCH  99 105
ENDBRANCH  97  99
BRANCH  97 117
ATOM    117  O   UNL     1     146.659 167.820 191.968  0.00  0.00    -0.461 OA
BRANCH 117 118
ATOM    118  C   UNL     1     145.881 166.752 192.297  0.00  0.00    +0.304 C 
ATOM    119  O   UNL     1     144.962 166.307 191.626  0.00  0.00    -0.251 OA
BRANCH 118 120
ATOM    120  C   UNL     1     146.331 166.176 193.603  0.00  0.00    +0.033 C 
ATOM    121  H   UNL     1     145.799 165.242 193.798  0.00  0.00    +0.034 HD
ATOM    122  H   UNL     1     147.410 166.006 193.583  0.00  0.00    +0.034 HD
ATOM    123  H   UNL     1     146.105 166.883 194.406  0.00  0.00    +0.034 HD
ENDBRANCH 118 120
ENDBRANCH 117 118
ENDBRANCH  97 117
ENDBRANCH  91  97
ENDBRANCH  89  91
BRANCH  89 124
ATOM    124  O   UNL     1     149.912 165.794 191.887  0.00  0.00    -0.460 OA
BRANCH 124 125
ATOM    125  C   UNL     1     149.696 165.069 193.017  0.00  0.00    +0.324 C 
ATOM    126  O   UNL     1     149.349 163.890 193.006  0.00  0.00    -0.249 OA
BRANCH 125 127
ATOM    127  C   UNL     1     150.026 165.829 194.316  0.00  0.00    +0.105 C 
ATOM    128  H   UNL     1     149.519 166.799 194.224  0.00  0.00    +0.058 HD
BRANCH 127 129
ATOM    129  C   UNL     1     151.530 166.135 194.356  0.00  0.00    -0.039 C 
ATOM    130  H   UNL     1     152.090 165.321 194.833  0.00  0.00    +0.025 HD
ATOM    131  H   UNL     1     151.941 166.302 193.355  0.00  0.00    +0.025 HD
ATOM    132  H   UNL     1     151.720 167.045 194.939  0.00  0.00    +0.025 HD
ENDBRANCH 127 129
BRANCH 127 133
ATOM    133  N   UNL     1     149.597 165.225 195.605  0.00  0.00    -0.296 NA
BRANCH 133 134
ATOM    134  C   UNL     1     148.767 166.081 196.443  0.00  0.00    -0.012 C 
ATOM    135  H   UNL     1     149.344 166.560 197.240  0.00  0.00    +0.039 HD
ATOM    136  H   UNL     1     147.931 165.543 196.896  0.00  0.00    +0.039 HD
ATOM    137  H   UNL     1     148.345 166.899 195.845  0.00  0.00    +0.039 HD
ENDBRANCH 133 134
BRANCH 133 138
ATOM    138  C   UNL     1     150.685 164.618 196.363  0.00  0.00    -0.012 C 
ATOM    139  H   UNL     1     150.426 163.601 196.676  0.00  0.00    +0.039 HD
ATOM    140  H   UNL     1     150.863 165.187 197.283  0.00  0.00    +0.039 HD
ATOM    141  H   UNL     1     151.629 164.579 195.813  0.00  0.00    +0.039 HD
ENDBRANCH 133 138
ENDBRANCH 127 133
ENDBRANCH 125 127
ENDBRANCH 124 125
ENDBRANCH  89 124
ENDBRANCH  86  89
ENDBRANCH  83  86
ENDBRANCH  77  83
ENDBRANCH  75  77
BRANCH  75 142
ATOM    142  O   UNL     1     153.539 166.291 188.073  0.00  0.00    -0.391 OA
ATOM    143  H   UNL     1     154.418 166.450 187.691  0.00  0.00    +0.210 HD
ENDBRANCH  75 142
ENDBRANCH  69  75
ENDBRANCH  14  69
BRANCH  25 144
ATOM    144  O   UNL     1     159.085 168.296 182.457  0.00  0.00    -0.391 OA
ATOM    145  H   UNL     1     158.271 168.088 182.949  0.00  0.00    +0.210 HD
ENDBRANCH  25 144
BRANCH  23 146
ATOM    146  O   UNL     1     156.971 171.389 184.632  0.00  0.00    -0.460 OA
BRANCH 146 147
ATOM    147  C   UNL     1     156.601 172.630 184.219  0.00  0.00    +0.327 C 
ATOM    148  O   UNL     1     155.784 173.331 184.812  0.00  0.00    -0.249 OA
BRANCH 147 149
ATOM    149  C   UNL     1     157.320 173.092 182.937  0.00  0.00    +0.131 C 
ATOM    150  H   UNL     1     157.834 172.186 182.586  0.00  0.00    +0.060 HD
BRANCH 149 151
ATOM    151  C   UNL     1     158.393 174.124 183.352  0.00  0.00    +0.073 C 
ATOM    152  H   UNL     1     158.379 174.995 182.686  0.00  0.00    +0.058 HD
ATOM    153  H   UNL     1     158.182 174.491 184.365  0.00  0.00    +0.058 HD
BRANCH 151 154
ATOM    154  O   UNL     1     159.696 173.531 183.360  0.00  0.00    -0.381 OA
BRANCH 154 155
ATOM    155  C   UNL     1     160.027 172.973 182.096  0.00  0.00    +0.037 C 
ATOM    156  H   UNL     1     160.477 171.983 182.215  0.00  0.00    +0.052 HD
ATOM    157  H   UNL     1     160.710 173.635 181.556  0.00  0.00    +0.052 HD
ATOM    158  H   UNL     1     159.108 172.870 181.513  0.00  0.00    +0.052 HD
ENDBRANCH 154 155
ENDBRANCH 151 154
ENDBRANCH 149 151
BRANCH 149 159
ATOM    159  N   UNL     1     156.356 173.490 181.861  0.00  0.00    -0.294 NA
BRANCH 159 160
ATOM    160  C   UNL     1     156.509 172.655 180.670  0.00  0.00    -0.012 C 
ATOM    161  H   UNL     1     155.557 172.421 180.184  0.00  0.00    +0.039 HD
ATOM    162  H   UNL     1     157.000 171.710 180.927  0.00  0.00    +0.039 HD
ATOM    163  H   UNL     1     157.159 173.145 179.939  0.00  0.00    +0.039 HD
ENDBRANCH 159 160
BRANCH 159 164
ATOM    164  C   UNL     1     156.423 174.905 181.504  0.00  0.00    -0.012 C 
ATOM    165  H   UNL     1     156.631 175.509 182.395  0.00  0.00    +0.039 HD
ATOM    166  H   UNL     1     155.489 175.273 181.066  0.00  0.00    +0.039 HD
ATOM    167  H   UNL     1     157.236 175.100 180.799  0.00  0.00    +0.039 HD
ENDBRANCH 159 164
ENDBRANCH 149 159
ENDBRANCH 147 149
ENDBRANCH 146 147
ENDBRANCH  23 146
BRANCH   4 168
ATOM    168  O   UNL     1     159.218 164.053 183.858  0.00  0.00    -0.376 OA
BRANCH 168 169
ATOM    169  C   UNL     1     158.734 163.460 182.658  0.00  0.00    +0.037 C 
ATOM    170  H   UNL     1     158.911 162.381 182.670  0.00  0.00    +0.052 HD
ATOM    171  H   UNL     1     157.669 163.665 182.515  0.00  0.00    +0.052 HD
ATOM    172  H   UNL     1     159.285 163.893 181.818  0.00  0.00    +0.052 HD
ENDBRANCH 168 169
ENDBRANCH   4 168
BRANCH  10 173
ATOM    173  O   UNL     1     160.280 161.290 189.629  0.00  0.00    -0.376 OA
BRANCH 173 174
ATOM    174  C   UNL     1     160.035 159.990 189.107  0.00  0.00    +0.037 C 
ATOM    175  H   UNL     1     160.109 160.042 188.017  0.00  0.00    +0.052 HD
ATOM    176  H   UNL     1     160.780 159.277 189.470  0.00  0.00    +0.052 HD
ATOM    177  H   UNL     1     159.029 159.652 189.369  0.00  0.00    +0.052 HD
ENDBRANCH 173 174
ENDBRANCH  10 173
TORSDOF 45
ENDMDL
MODEL 5
REMARK VINA RESULT:      -5.6      5.092      9.884
REMARK  Name = Aplyronine A_conf2
REMARK  45 active torsions:
REMARK  status: ('A' for Active; 'I' for Inactive)
REMARK    1  A    between atoms: C_1  and  C_2
REMARK    2  A    between atoms: C_5  and  O_75
REMARK    3  A    between atoms: C_6  and  C_74
REMARK    4  A    between atoms: C_9  and  C_73
REMARK    5  A    between atoms: C_11  and  O_71
REMARK    6  A    between atoms: C_15  and  C_39
REMARK    7  A    between atoms: C_24  and  O_29
REMARK    8  A    between atoms: C_25  and  C_28
REMARK    9  A    between atoms: C_26  and  O_27
REMARK   10  A    between atoms: O_29  and  C_30
REMARK   11  A    between atoms: C_30  and  C_32
REMARK   12  A    between atoms: C_32  and  C_33
REMARK   13  A    between atoms: C_32  and  N_36
REMARK   14  A    between atoms: C_33  and  O_34
REMARK   15  A    between atoms: O_34  and  C_35
REMARK   16  A    between atoms: N_36  and  C_37
REMARK   17  A    between atoms: N_36  and  C_38
REMARK   18  A    between atoms: C_39  and  C_40
REMARK   19  A    between atoms: C_39  and  C_41
REMARK   20  A    between atoms: C_41  and  C_42
REMARK   21  A    between atoms: C_41  and  O_70
REMARK   22  A    between atoms: C_42  and  C_43
REMARK   23  A    between atoms: C_42  and  C_44
REMARK   24  A    between atoms: C_44  and  C_45
REMARK   25  A    between atoms: C_45  and  C_46
REMARK   26  A    between atoms: C_46  and  C_47
REMARK   27  A    between atoms: C_46  and  O_62
REMARK   28  A    between atoms: C_47  and  C_48
REMARK   29  A    between atoms: C_47  and  C_49
REMARK   30  A    between atoms: C_49  and  C_50
REMARK   31  A    between atoms: C_49  and  O_58
REMARK   32  A    between atoms: C_50  and  C_51
REMARK   33  A    between atoms: C_50  and  C_52
REMARK   34  A    between atoms: C_53  and  N_54
REMARK   35  A    between atoms: N_54  and  C_55
REMARK   36  A    between atoms: O_58  and  C_59
REMARK   37  A    between atoms: C_59  and  C_61
REMARK   38  A    between atoms: O_62  and  C_63
REMARK   39  A    between atoms: C_63  and  C_65
REMARK   40  A    between atoms: C_65  and  C_66
REMARK   41  A    between atoms: C_65  and  N_67
REMARK   42  A    between atoms: N_67  and  C_68
REMARK   43  A    between atoms: N_67  and  C_69
REMARK   44  A    between atoms: O_71  and  C_72
REMARK   45  A    between atoms: O_75  and  C_76
REMARK                            x       y       z     vdW  Elec       q    Type
REMARK                         _______ _______ _______ _____ _____    ______ ____
ROOT
ATOM      1  C   UNL     1     160.904 167.635 183.840  0.00  0.00    -0.017 C 
ATOM      2  C   UNL     1     160.649 166.131 183.580  0.00  0.00    -0.045 C 
ATOM      3  C   UNL     1     159.388 165.584 184.264  0.00  0.00    -0.022 C 
ATOM      4  C   UNL     1     159.079 164.115 183.906  0.00  0.00    +0.079 C 
ATOM      5  C   UNL     1     159.822 163.125 184.811  0.00  0.00    -0.048 C 
ATOM      6  C   UNL     1     159.256 162.663 185.947  0.00  0.00    -0.082 C 
ATOM      7  C   UNL     1     159.780 161.673 186.952  0.00  0.00    -0.032 C 
ATOM      8  C   UNL     1     160.100 162.274 188.340  0.00  0.00    -0.038 C 
ATOM      9  C   UNL     1     158.964 163.119 188.964  0.00  0.00    -0.020 C 
ATOM     10  C   UNL     1     157.609 162.396 189.061  0.00  0.00    +0.077 C 
ATOM     11  C   UNL     1     156.555 163.346 189.577  0.00  0.00    -0.059 C 
ATOM     12  C   UNL     1     155.867 164.167 188.764  0.00  0.00    -0.082 C 
ATOM     13  C   UNL     1     154.781 165.117 189.201  0.00  0.00    +0.003 C 
ATOM     14  C   UNL     1     153.575 165.113 188.229  0.00  0.00    +0.112 C 
ATOM     15  O   UNL     1     153.991 165.794 187.017  0.00  0.00    -0.458 OA
ATOM     16  C   UNL     1     154.218 165.060 185.906  0.00  0.00    +0.332 C 
ATOM     17  O   UNL     1     154.007 163.866 185.765  0.00  0.00    -0.246 OA
ATOM     18  C   UNL     1     154.844 165.884 184.848  0.00  0.00    +0.022 C 
ATOM     19  C   UNL     1     155.057 167.206 184.937  0.00  0.00    -0.055 C 
ATOM     20  C   UNL     1     155.768 167.946 183.919  0.00  0.00    -0.065 C 
ATOM     21  C   UNL     1     156.034 169.258 184.016  0.00  0.00    -0.081 C 
ATOM     22  C   UNL     1     156.869 170.008 183.009  0.00  0.00    +0.003 C 
ATOM     23  C   UNL     1     158.207 170.587 183.534  0.00  0.00    +0.111 C 
ATOM     24  C   UNL     1     159.241 169.634 184.213  0.00  0.00    +0.020 C 
ATOM     25  C   UNL     1     159.883 168.634 183.206  0.00  0.00    +0.064 C 
ATOM     26  H   UNL     1     160.944 167.777 184.924  0.00  0.00    +0.032 HD
ATOM     27  H   UNL     1     160.599 165.944 182.500  0.00  0.00    +0.027 HD
ATOM     28  H   UNL     1     161.513 165.570 183.948  0.00  0.00    +0.027 HD
ATOM     29  H   UNL     1     159.479 165.699 185.352  0.00  0.00    +0.029 HD
ATOM     30  H   UNL     1     158.519 166.186 183.984  0.00  0.00    +0.029 HD
ATOM     31  H   UNL     1     159.326 163.934 182.852  0.00  0.00    +0.064 HD
ATOM     32  H   UNL     1     158.260 163.039 186.186  0.00  0.00    +0.057 HD
ATOM     33  H   UNL     1     159.023 160.887 187.067  0.00  0.00    +0.031 HD
ATOM     34  H   UNL     1     160.668 161.151 186.580  0.00  0.00    +0.031 HD
ATOM     35  H   UNL     1     160.303 161.430 189.014  0.00  0.00    +0.030 HD
ATOM     36  H   UNL     1     158.850 164.049 188.390  0.00  0.00    +0.030 HD
ATOM     37  H   UNL     1     159.283 163.413 189.973  0.00  0.00    +0.030 HD
ATOM     38  H   UNL     1     157.309 162.023 188.076  0.00  0.00    +0.064 HD
ATOM     39  H   UNL     1     156.368 163.341 190.647  0.00  0.00    +0.059 HD
ATOM     40  H   UNL     1     156.113 164.162 187.702  0.00  0.00    +0.057 HD
ATOM     41  H   UNL     1     154.447 164.849 190.211  0.00  0.00    +0.034 HD
ATOM     42  H   UNL     1     155.223 166.121 189.243  0.00  0.00    +0.034 HD
ATOM     43  H   UNL     1     153.298 164.072 188.025  0.00  0.00    +0.074 HD
ATOM     44  H   UNL     1     155.173 165.315 183.987  0.00  0.00    +0.069 HD
ATOM     45  H   UNL     1     154.735 167.762 185.814  0.00  0.00    +0.062 HD
ATOM     46  H   UNL     1     156.157 167.383 183.070  0.00  0.00    +0.061 HD
ATOM     47  H   UNL     1     155.682 169.837 184.867  0.00  0.00    +0.057 HD
ATOM     48  H   UNL     1     157.044 169.395 182.120  0.00  0.00    +0.034 HD
ATOM     49  H   UNL     1     156.249 170.847 182.664  0.00  0.00    +0.034 HD
ATOM     50  H   UNL     1     158.692 171.040 182.657  0.00  0.00    +0.074 HD
ATOM     51  H   UNL     1     160.067 170.274 184.555  0.00  0.00    +0.036 HD
ATOM     52  H   UNL     1     160.408 169.255 182.468  0.00  0.00    +0.060 HD
ENDROOT
BRANCH   1  53
ATOM     53  C   UNL     1     162.320 167.992 183.349  0.00  0.00    -0.060 C 
ATOM     54  H   UNL     1     162.420 167.826 182.271  0.00  0.00    +0.023 HD
ATOM     55  H   UNL     1     162.552 169.042 183.559  0.00  0.00    +0.023 HD
ATOM     56  H   UNL     1     163.073 167.382 183.859  0.00  0.00    +0.023 HD
ENDBRANCH   1  53
BRANCH   5  57
ATOM     57  C   UNL     1     161.178 162.695 184.317  0.00  0.00    -0.041 C 
ATOM     58  H   UNL     1     161.127 162.406 183.261  0.00  0.00    +0.028 HD
ATOM     59  H   UNL     1     161.898 163.511 184.419  0.00  0.00    +0.028 HD
ATOM     60  H   UNL     1     161.577 161.835 184.854  0.00  0.00    +0.028 HD
ENDBRANCH   5  57
BRANCH  24  61
ATOM     61  C   UNL     1     158.714 168.995 185.506  0.00  0.00    -0.057 C 
ATOM     62  H   UNL     1     159.125 169.502 186.386  0.00  0.00    +0.023 HD
ATOM     63  H   UNL     1     158.985 167.942 185.589  0.00  0.00    +0.023 HD
ATOM     64  H   UNL     1     157.627 169.087 185.591  0.00  0.00    +0.023 HD
ENDBRANCH  24  61
BRANCH   8  65
ATOM     65  C   UNL     1     161.382 163.115 188.277  0.00  0.00    -0.062 C 
ATOM     66  H   UNL     1     161.287 163.916 187.535  0.00  0.00    +0.023 HD
ATOM     67  H   UNL     1     161.612 163.572 189.244  0.00  0.00    +0.023 HD
ATOM     68  H   UNL     1     162.237 162.495 187.986  0.00  0.00    +0.023 HD
ENDBRANCH   8  65
BRANCH  14  69
ATOM     69  C   UNL     1     152.354 165.895 188.822  0.00  0.00    +0.020 C 
ATOM     70  H   UNL     1     152.539 166.021 189.897  0.00  0.00    +0.036 HD
BRANCH  69  71
ATOM     71  C   UNL     1     152.237 167.284 188.182  0.00  0.00    -0.057 C 
ATOM     72  H   UNL     1     152.698 167.326 187.195  0.00  0.00    +0.023 HD
ATOM     73  H   UNL     1     152.706 168.055 188.801  0.00  0.00    +0.023 HD
ATOM     74  H   UNL     1     151.187 167.564 188.042  0.00  0.00    +0.023 HD
ENDBRANCH  69  71
BRANCH  69  75
ATOM     75  C   UNL     1     151.073 165.024 188.677  0.00  0.00    +0.064 C 
ATOM     76  H   UNL     1     150.235 165.670 188.390  0.00  0.00    +0.060 HD
BRANCH  75  77
ATOM     77  C   UNL     1     150.620 164.123 189.861  0.00  0.00    -0.017 C 
ATOM     78  H   UNL     1     150.989 163.110 189.637  0.00  0.00    +0.032 HD
BRANCH  77  79
ATOM     79  C   UNL     1     151.266 164.486 191.204  0.00  0.00    -0.060 C 
ATOM     80  H   UNL     1     152.300 164.816 191.057  0.00  0.00    +0.023 HD
ATOM     81  H   UNL     1     150.737 165.313 191.688  0.00  0.00    +0.023 HD
ATOM     82  H   UNL     1     151.295 163.645 191.897  0.00  0.00    +0.023 HD
ENDBRANCH  77  79
BRANCH  77  83
ATOM     83  C   UNL     1     149.081 163.991 189.906  0.00  0.00    -0.045 C 
ATOM     84  H   UNL     1     148.842 162.924 190.005  0.00  0.00    +0.027 HD
ATOM     85  H   UNL     1     148.643 164.320 188.963  0.00  0.00    +0.027 HD
BRANCH  83  86
ATOM     86  C   UNL     1     148.420 164.761 191.052  0.00  0.00    -0.015 C 
ATOM     87  H   UNL     1     149.192 165.181 191.710  0.00  0.00    +0.030 HD
ATOM     88  H   UNL     1     147.854 164.066 191.685  0.00  0.00    +0.030 HD
BRANCH  86  89
ATOM     89  C   UNL     1     147.443 165.872 190.614  0.00  0.00    +0.109 C 
ATOM     90  H   UNL     1     147.152 165.648 189.581  0.00  0.00    +0.074 HD
BRANCH  89  91
ATOM     91  C   UNL     1     147.995 167.323 190.637  0.00  0.00    +0.031 C 
ATOM     92  H   UNL     1     147.159 167.978 190.915  0.00  0.00    +0.037 HD
BRANCH  91  93
ATOM     93  C   UNL     1     148.514 167.761 189.259  0.00  0.00    -0.056 C 
ATOM     94  H   UNL     1     148.377 166.971 188.514  0.00  0.00    +0.023 HD
ATOM     95  H   UNL     1     149.580 168.006 189.294  0.00  0.00    +0.023 HD
ATOM     96  H   UNL     1     148.000 168.655 188.893  0.00  0.00    +0.023 HD
ENDBRANCH  91  93
BRANCH  91  97
ATOM     97  C   UNL     1     149.120 167.487 191.710  0.00  0.00    +0.115 C 
ATOM     98  H   UNL     1     149.651 166.529 191.776  0.00  0.00    +0.074 HD
BRANCH  97  99
ATOM     99  C   UNL     1     150.166 168.588 191.361  0.00  0.00    +0.013 C 
ATOM    100  H   UNL     1     150.193 168.719 190.274  0.00  0.00    +0.038 HD
BRANCH  99 101
ATOM    101  C   UNL     1     151.581 168.160 191.777  0.00  0.00    -0.056 C 
ATOM    102  H   UNL     1     151.781 167.108 191.543  0.00  0.00    +0.024 HD
ATOM    103  H   UNL     1     151.723 168.291 192.858  0.00  0.00    +0.024 HD
ATOM    104  H   UNL     1     152.335 168.771 191.269  0.00  0.00    +0.024 HD
ENDBRANCH  99 101
BRANCH  99 105
ATOM    105  C   UNL     1     149.854 169.916 192.028  0.00  0.00    -0.064 C 
ATOM    106  C   UNL     1     149.054 170.848 191.497  0.00  0.00    -0.005 C 
ATOM    107  H   UNL     1     150.348 170.069 192.983  0.00  0.00    +0.059 HD
ATOM    108  H   UNL     1     148.583 170.647 190.534  0.00  0.00    +0.078 HD
BRANCH 106 109
ATOM    109  N   UNL     1     148.737 172.085 192.037  0.00  0.00    -0.284 N 
ATOM    110  C   UNL     1     148.410 172.327 193.366  0.00  0.00    +0.206 C 
ATOM    111  O   UNL     1     148.116 173.414 193.852  0.00  0.00    -0.279 OA
ATOM    112  H   UNL     1     148.438 171.431 194.003  0.00  0.00    +0.126 HD
BRANCH 109 113
ATOM    113  C   UNL     1     148.721 173.223 191.125  0.00  0.00    +0.007 C 
ATOM    114  H   UNL     1     149.506 173.161 190.369  0.00  0.00    +0.043 HD
ATOM    115  H   UNL     1     147.751 173.268 190.621  0.00  0.00    +0.043 HD
ATOM    116  H   UNL     1     148.870 174.129 191.720  0.00  0.00    +0.043 HD
ENDBRANCH 109 113
ENDBRANCH 106 109
ENDBRANCH  99 105
ENDBRANCH  97  99
BRANCH  97 117
ATOM    117  O   UNL     1     148.521 167.821 192.985  0.00  0.00    -0.461 OA
BRANCH 117 118
ATOM    118  C   UNL     1     148.466 166.844 193.931  0.00  0.00    +0.304 C 
ATOM    119  O   UNL     1     147.447 166.411 194.450  0.00  0.00    -0.251 OA
BRANCH 118 120
ATOM    120  C   UNL     1     149.846 166.351 194.236  0.00  0.00    +0.033 C 
ATOM    121  H   UNL     1     149.811 165.650 195.073  0.00  0.00    +0.034 HD
ATOM    122  H   UNL     1     150.273 165.870 193.352  0.00  0.00    +0.034 HD
ATOM    123  H   UNL     1     150.480 167.198 194.512  0.00  0.00    +0.034 HD
ENDBRANCH 118 120
ENDBRANCH 117 118
ENDBRANCH  97 117
ENDBRANCH  91  97
ENDBRANCH  89  91
BRANCH  89 124
ATOM    124  O   UNL     1     146.307 165.782 191.507  0.00  0.00    -0.460 OA
BRANCH 124 125
ATOM    125  C   UNL     1     145.074 166.005 190.979  0.00  0.00    +0.324 C 
ATOM    126  O   UNL     1     144.685 165.491 189.933  0.00  0.00    -0.249 OA
BRANCH 125 127
ATOM    127  C   UNL     1     144.168 166.882 191.865  0.00  0.00    +0.105 C 
ATOM    128  H   UNL     1     144.618 166.849 192.867  0.00  0.00    +0.058 HD
BRANCH 127 129
ATOM    129  C   UNL     1     142.790 166.218 191.993  0.00  0.00    -0.039 C 
ATOM    130  H   UNL     1     142.492 165.731 191.056  0.00  0.00    +0.025 HD
ATOM    131  H   UNL     1     142.767 165.474 192.796  0.00  0.00    +0.025 HD
ATOM    132  H   UNL     1     142.023 166.967 192.226  0.00  0.00    +0.025 HD
ENDBRANCH 127 129
BRANCH 127 133
ATOM    133  N   UNL     1     144.009 168.313 191.498  0.00  0.00    -0.296 NA
BRANCH 133 134
ATOM    134  C   UNL     1     142.635 168.798 191.475  0.00  0.00    -0.012 C 
ATOM    135  H   UNL     1     142.268 169.040 192.478  0.00  0.00    +0.039 HD
ATOM    136  H   UNL     1     141.945 168.087 191.017  0.00  0.00    +0.039 HD
ATOM    137  H   UNL     1     142.574 169.732 190.901  0.00  0.00    +0.039 HD
ENDBRANCH 133 134
BRANCH 133 138
ATOM    138  C   UNL     1     144.736 168.697 190.293  0.00  0.00    -0.012 C 
ATOM    139  H   UNL     1     145.268 167.841 189.865  0.00  0.00    +0.039 HD
ATOM    140  H   UNL     1     145.502 169.443 190.539  0.00  0.00    +0.039 HD
ATOM    141  H   UNL     1     144.096 169.127 189.518  0.00  0.00    +0.039 HD
ENDBRANCH 133 138
ENDBRANCH 127 133
ENDBRANCH 125 127
ENDBRANCH 124 125
ENDBRANCH  89 124
ENDBRANCH  86  89
ENDBRANCH  83  86
ENDBRANCH  77  83
ENDBRANCH  75  77
BRANCH  75 142
ATOM    142  O   UNL     1     151.282 164.147 187.554  0.00  0.00    -0.391 OA
ATOM    143  H   UNL     1     151.892 164.578 186.932  0.00  0.00    +0.210 HD
ENDBRANCH  75 142
ENDBRANCH  69  75
ENDBRANCH  14  69
BRANCH  25 144
ATOM    144  O   UNL     1     158.884 167.954 182.460  0.00  0.00    -0.391 OA
ATOM    145  H   UNL     1     158.628 167.160 182.961  0.00  0.00    +0.210 HD
ENDBRANCH  25 144
BRANCH  23 146
ATOM    146  O   UNL     1     157.847 171.662 184.445  0.00  0.00    -0.460 OA
BRANCH 146 147
ATOM    147  C   UNL     1     157.385 172.819 183.901  0.00  0.00    +0.327 C 
ATOM    148  O   UNL     1     156.403 173.426 184.323  0.00  0.00    -0.249 OA
BRANCH 147 149
ATOM    149  C   UNL     1     158.224 173.318 182.710  0.00  0.00    +0.131 C 
ATOM    150  H   UNL     1     158.584 172.392 182.240  0.00  0.00    +0.060 HD
BRANCH 149 151
ATOM    151  C   UNL     1     159.444 174.074 183.284  0.00  0.00    +0.073 C 
ATOM    152  H   UNL     1     159.630 175.001 182.728  0.00  0.00    +0.058 HD
ATOM    153  H   UNL     1     159.247 174.358 184.326  0.00  0.00    +0.058 HD
BRANCH 151 154
ATOM    154  O   UNL     1     160.612 173.246 183.266  0.00  0.00    -0.381 OA
BRANCH 154 155
ATOM    155  C   UNL     1     160.862 172.718 181.970  0.00  0.00    +0.037 C 
ATOM    156  H   UNL     1     160.101 171.980 181.700  0.00  0.00    +0.052 HD
ATOM    157  H   UNL     1     161.857 172.266 181.931  0.00  0.00    +0.052 HD
ATOM    158  H   UNL     1     160.823 173.539 181.250  0.00  0.00    +0.052 HD
ENDBRANCH 154 155
ENDBRANCH 151 154
ENDBRANCH 149 151
BRANCH 149 159
ATOM    159  N   UNL     1     157.388 174.028 181.689  0.00  0.00    -0.294 NA
BRANCH 159 160
ATOM    160  C   UNL     1     156.882 173.104 180.674  0.00  0.00    -0.012 C 
ATOM    161  H   UNL     1     155.862 173.335 180.352  0.00  0.00    +0.039 HD
ATOM    162  H   UNL     1     156.892 172.076 181.055  0.00  0.00    +0.039 HD
ATOM    163  H   UNL     1     157.532 173.107 179.794  0.00  0.00    +0.039 HD
ENDBRANCH 159 160
BRANCH 159 164
ATOM    164  C   UNL     1     158.063 175.158 181.056  0.00  0.00    -0.012 C 
ATOM    165  H   UNL     1     157.974 175.088 179.965  0.00  0.00    +0.039 HD
ATOM    166  H   UNL     1     159.130 175.200 181.298  0.00  0.00    +0.039 HD
ATOM    167  H   UNL     1     157.605 176.109 181.344  0.00  0.00    +0.039 HD
ENDBRANCH 159 164
ENDBRANCH 149 159
ENDBRANCH 147 149
ENDBRANCH 146 147
ENDBRANCH  23 146
BRANCH   4 168
ATOM    168  O   UNL     1     157.653 163.962 184.054  0.00  0.00    -0.376 OA
BRANCH 168 169
ATOM    169  C   UNL     1     157.014 163.496 182.871  0.00  0.00    +0.037 C 
ATOM    170  H   UNL     1     156.588 162.503 183.038  0.00  0.00    +0.052 HD
ATOM    171  H   UNL     1     156.236 164.189 182.540  0.00  0.00    +0.052 HD
ATOM    172  H   UNL     1     157.769 163.421 182.084  0.00  0.00    +0.052 HD
ENDBRANCH 168 169
ENDBRANCH   4 168
BRANCH  10 173
ATOM    173  O   UNL     1     157.743 161.299 189.967  0.00  0.00    -0.376 OA
BRANCH 173 174
ATOM    174  C   UNL     1     158.003 161.717 191.302  0.00  0.00    +0.037 C 
ATOM    175  H   UNL     1     159.087 161.775 191.434  0.00  0.00    +0.052 HD
ATOM    176  H   UNL     1     157.580 162.707 191.491  0.00  0.00    +0.052 HD
ATOM    177  H   UNL     1     157.606 160.993 192.018  0.00  0.00    +0.052 HD
ENDBRANCH 173 174
ENDBRANCH  10 173
TORSDOF 45
ENDMDL
MODEL 6
REMARK VINA RESULT:      -5.5      4.916      9.355
REMARK  Name = Aplyronine A_conf2
REMARK  45 active torsions:
REMARK  status: ('A' for Active; 'I' for Inactive)
REMARK    1  A    between atoms: C_1  and  C_2
REMARK    2  A    between atoms: C_5  and  O_75
REMARK    3  A    between atoms: C_6  and  C_74
REMARK    4  A    between atoms: C_9  and  C_73
REMARK    5  A    between atoms: C_11  and  O_71
REMARK    6  A    between atoms: C_15  and  C_39
REMARK    7  A    between atoms: C_24  and  O_29
REMARK    8  A    between atoms: C_25  and  C_28
REMARK    9  A    between atoms: C_26  and  O_27
REMARK   10  A    between atoms: O_29  and  C_30
REMARK   11  A    between atoms: C_30  and  C_32
REMARK   12  A    between atoms: C_32  and  C_33
REMARK   13  A    between atoms: C_32  and  N_36
REMARK   14  A    between atoms: C_33  and  O_34
REMARK   15  A    between atoms: O_34  and  C_35
REMARK   16  A    between atoms: N_36  and  C_37
REMARK   17  A    between atoms: N_36  and  C_38
REMARK   18  A    between atoms: C_39  and  C_40
REMARK   19  A    between atoms: C_39  and  C_41
REMARK   20  A    between atoms: C_41  and  C_42
REMARK   21  A    between atoms: C_41  and  O_70
REMARK   22  A    between atoms: C_42  and  C_43
REMARK   23  A    between atoms: C_42  and  C_44
REMARK   24  A    between atoms: C_44  and  C_45
REMARK   25  A    between atoms: C_45  and  C_46
REMARK   26  A    between atoms: C_46  and  C_47
REMARK   27  A    between atoms: C_46  and  O_62
REMARK   28  A    between atoms: C_47  and  C_48
REMARK   29  A    between atoms: C_47  and  C_49
REMARK   30  A    between atoms: C_49  and  C_50
REMARK   31  A    between atoms: C_49  and  O_58
REMARK   32  A    between atoms: C_50  and  C_51
REMARK   33  A    between atoms: C_50  and  C_52
REMARK   34  A    between atoms: C_53  and  N_54
REMARK   35  A    between atoms: N_54  and  C_55
REMARK   36  A    between atoms: O_58  and  C_59
REMARK   37  A    between atoms: C_59  and  C_61
REMARK   38  A    between atoms: O_62  and  C_63
REMARK   39  A    between atoms: C_63  and  C_65
REMARK   40  A    between atoms: C_65  and  C_66
REMARK   41  A    between atoms: C_65  and  N_67
REMARK   42  A    between atoms: N_67  and  C_68
REMARK   43  A    between atoms: N_67  and  C_69
REMARK   44  A    between atoms: O_71  and  C_72
REMARK   45  A    between atoms: O_75  and  C_76
REMARK                            x       y       z     vdW  Elec       q    Type
REMARK                         _______ _______ _______ _____ _____    ______ ____
ROOT
ATOM      1  C   UNL     1     162.487 167.335 184.290  0.00  0.00    -0.017 C 
ATOM      2  C   UNL     1     162.459 165.791 184.183  0.00  0.00    -0.045 C 
ATOM      3  C   UNL     1     161.211 165.145 184.799  0.00  0.00    -0.022 C 
ATOM      4  C   UNL     1     161.136 163.618 184.586  0.00  0.00    +0.079 C 
ATOM      5  C   UNL     1     161.893 162.839 185.667  0.00  0.00    -0.048 C 
ATOM      6  C   UNL     1     161.267 162.421 186.789  0.00  0.00    -0.082 C 
ATOM      7  C   UNL     1     161.798 161.622 187.948  0.00  0.00    -0.032 C 
ATOM      8  C   UNL     1     161.880 162.399 189.281  0.00  0.00    -0.038 C 
ATOM      9  C   UNL     1     160.581 163.135 189.689  0.00  0.00    -0.020 C 
ATOM     10  C   UNL     1     159.329 162.243 189.737  0.00  0.00    +0.077 C 
ATOM     11  C   UNL     1     158.110 163.083 190.033  0.00  0.00    -0.059 C 
ATOM     12  C   UNL     1     157.417 163.713 189.067  0.00  0.00    -0.082 C 
ATOM     13  C   UNL     1     156.175 164.540 189.283  0.00  0.00    +0.003 C 
ATOM     14  C   UNL     1     155.097 164.268 188.205  0.00  0.00    +0.112 C 
ATOM     15  O   UNL     1     155.556 164.873 186.969  0.00  0.00    -0.458 OA
ATOM     16  C   UNL     1     155.999 164.070 185.978  0.00  0.00    +0.332 C 
ATOM     17  O   UNL     1     155.960 162.850 185.956  0.00  0.00    -0.246 OA
ATOM     18  C   UNL     1     156.629 164.862 184.898  0.00  0.00    +0.022 C 
ATOM     19  C   UNL     1     156.658 166.203 184.853  0.00  0.00    -0.055 C 
ATOM     20  C   UNL     1     157.377 166.928 183.830  0.00  0.00    -0.065 C 
ATOM     21  C   UNL     1     157.460 168.267 183.800  0.00  0.00    -0.081 C 
ATOM     22  C   UNL     1     158.299 169.021 182.800  0.00  0.00    +0.003 C 
ATOM     23  C   UNL     1     159.484 169.833 183.382  0.00  0.00    +0.111 C 
ATOM     24  C   UNL     1     160.549 169.108 184.265  0.00  0.00    +0.020 C 
ATOM     25  C   UNL     1     161.424 168.111 183.449  0.00  0.00    +0.064 C 
ATOM     26  H   UNL     1     162.386 167.590 185.350  0.00  0.00    +0.032 HD
ATOM     27  H   UNL     1     162.556 165.491 183.133  0.00  0.00    +0.027 HD
ATOM     28  H   UNL     1     163.342 165.398 184.697  0.00  0.00    +0.027 HD
ATOM     29  H   UNL     1     161.163 165.382 185.871  0.00  0.00    +0.029 HD
ATOM     30  H   UNL     1     160.308 165.588 184.368  0.00  0.00    +0.029 HD
ATOM     31  H   UNL     1     161.521 163.369 183.589  0.00  0.00    +0.064 HD
ATOM     32  H   UNL     1     160.210 162.676 186.884  0.00  0.00    +0.057 HD
ATOM     33  H   UNL     1     161.140 160.753 188.079  0.00  0.00    +0.031 HD
ATOM     34  H   UNL     1     162.781 161.195 187.727  0.00  0.00    +0.031 HD
ATOM     35  H   UNL     1     162.112 161.665 190.066  0.00  0.00    +0.030 HD
ATOM     36  H   UNL     1     160.414 163.977 189.003  0.00  0.00    +0.030 HD
ATOM     37  H   UNL     1     160.743 163.573 190.683  0.00  0.00    +0.030 HD
ATOM     38  H   UNL     1     159.191 161.733 188.777  0.00  0.00    +0.064 HD
ATOM     39  H   UNL     1     157.805 163.161 191.074  0.00  0.00    +0.059 HD
ATOM     40  H   UNL     1     157.779 163.635 188.042  0.00  0.00    +0.057 HD
ATOM     41  H   UNL     1     155.767 164.332 190.280  0.00  0.00    +0.034 HD
ATOM     42  H   UNL     1     156.477 165.595 189.251  0.00  0.00    +0.034 HD
ATOM     43  H   UNL     1     154.981 163.183 188.097  0.00  0.00    +0.074 HD
ATOM     44  H   UNL     1     157.123 164.260 184.145  0.00  0.00    +0.069 HD
ATOM     45  H   UNL     1     156.170 166.795 185.624  0.00  0.00    +0.062 HD
ATOM     46  H   UNL     1     157.929 166.342 183.095  0.00  0.00    +0.061 HD
ATOM     47  H   UNL     1     156.942 168.874 184.540  0.00  0.00    +0.057 HD
ATOM     48  H   UNL     1     158.650 168.352 182.009  0.00  0.00    +0.034 HD
ATOM     49  H   UNL     1     157.619 169.725 182.301  0.00  0.00    +0.034 HD
ATOM     50  H   UNL     1     160.002 170.258 182.511  0.00  0.00    +0.074 HD
ATOM     51  H   UNL     1     161.241 169.890 184.610  0.00  0.00    +0.036 HD
ATOM     52  H   UNL     1     161.944 168.721 182.698  0.00  0.00    +0.060 HD
ENDROOT
BRANCH   1  53
ATOM     53  C   UNL     1     163.891 167.836 183.902  0.00  0.00    -0.060 C 
ATOM     54  H   UNL     1     163.883 168.319 182.920  0.00  0.00    +0.023 HD
ATOM     55  H   UNL     1     164.265 168.556 184.638  0.00  0.00    +0.023 HD
ATOM     56  H   UNL     1     164.604 167.004 183.866  0.00  0.00    +0.023 HD
ENDBRANCH   1  53
BRANCH   5  57
ATOM     57  C   UNL     1     163.340 162.557 185.362  0.00  0.00    -0.041 C 
ATOM     58  H   UNL     1     163.987 163.011 186.120  0.00  0.00    +0.028 HD
ATOM     59  H   UNL     1     163.525 161.480 185.349  0.00  0.00    +0.028 HD
ATOM     60  H   UNL     1     163.662 162.958 184.401  0.00  0.00    +0.028 HD
ENDBRANCH   5  57
BRANCH  24  61
ATOM     61  C   UNL     1     159.967 168.537 185.565  0.00  0.00    -0.057 C 
ATOM     62  H   UNL     1     160.617 168.765 186.417  0.00  0.00    +0.023 HD
ATOM     63  H   UNL     1     159.858 167.452 185.530  0.00  0.00    +0.023 HD
ATOM     64  H   UNL     1     158.996 168.979 185.805  0.00  0.00    +0.023 HD
ENDBRANCH  24  61
BRANCH   8  65
ATOM     65  C   UNL     1     163.041 163.401 189.247  0.00  0.00    -0.062 C 
ATOM     66  H   UNL     1     163.700 163.264 190.112  0.00  0.00    +0.023 HD
ATOM     67  H   UNL     1     163.643 163.289 188.340  0.00  0.00    +0.023 HD
ATOM     68  H   UNL     1     162.665 164.429 189.277  0.00  0.00    +0.023 HD
ENDBRANCH   8  65
BRANCH  14  69
ATOM     69  C   UNL     1     153.726 164.927 188.581  0.00  0.00    +0.020 C 
ATOM     70  H   UNL     1     153.173 165.082 187.645  0.00  0.00    +0.036 HD
BRANCH  69  71
ATOM     71  C   UNL     1     152.906 163.996 189.482  0.00  0.00    -0.057 C 
ATOM     72  H   UNL     1     153.314 162.985 189.515  0.00  0.00    +0.023 HD
ATOM     73  H   UNL     1     151.866 163.925 189.151  0.00  0.00    +0.023 HD
ATOM     74  H   UNL     1     152.901 164.357 190.517  0.00  0.00    +0.023 HD
ENDBRANCH  69  71
BRANCH  69  75
ATOM     75  C   UNL     1     153.989 166.331 189.195  0.00  0.00    +0.064 C 
ATOM     76  H   UNL     1     154.700 166.228 190.024  0.00  0.00    +0.060 HD
BRANCH  75  77
ATOM     77  C   UNL     1     152.789 167.194 189.678  0.00  0.00    -0.017 C 
ATOM     78  H   UNL     1     153.155 168.230 189.733  0.00  0.00    +0.032 HD
BRANCH  77  79
ATOM     79  C   UNL     1     151.619 167.245 188.688  0.00  0.00    -0.060 C 
ATOM     80  H   UNL     1     151.980 167.452 187.675  0.00  0.00    +0.023 HD
ATOM     81  H   UNL     1     151.093 166.286 188.644  0.00  0.00    +0.023 HD
ATOM     82  H   UNL     1     150.894 168.022 188.933  0.00  0.00    +0.023 HD
ENDBRANCH  77  79
BRANCH  77  83
ATOM     83  C   UNL     1     152.386 166.831 191.125  0.00  0.00    -0.045 C 
ATOM     84  H   UNL     1     153.303 166.569 191.670  0.00  0.00    +0.027 HD
ATOM     85  H   UNL     1     151.756 165.941 191.134  0.00  0.00    +0.027 HD
BRANCH  83  86
ATOM     86  C   UNL     1     151.663 167.953 191.874  0.00  0.00    -0.015 C 
ATOM     87  H   UNL     1     151.840 168.911 191.368  0.00  0.00    +0.030 HD
ATOM     88  H   UNL     1     152.103 168.074 192.873  0.00  0.00    +0.030 HD
BRANCH  86  89
ATOM     89  C   UNL     1     150.148 167.737 192.070  0.00  0.00    +0.109 C 
ATOM     90  H   UNL     1     149.959 167.786 193.150  0.00  0.00    +0.074 HD
BRANCH  89  91
ATOM     91  C   UNL     1     149.572 166.389 191.559  0.00  0.00    +0.031 C 
ATOM     92  H   UNL     1     150.406 165.835 191.110  0.00  0.00    +0.037 HD
BRANCH  91  93
ATOM     93  C   UNL     1     148.498 166.597 190.481  0.00  0.00    -0.056 C 
ATOM     94  H   UNL     1     148.465 165.753 189.784  0.00  0.00    +0.023 HD
ATOM     95  H   UNL     1     148.688 167.504 189.898  0.00  0.00    +0.023 HD
ATOM     96  H   UNL     1     147.499 166.709 190.913  0.00  0.00    +0.023 HD
ENDBRANCH  91  93
BRANCH  91  97
ATOM     97  C   UNL     1     148.994 165.535 192.733  0.00  0.00    +0.115 C 
ATOM     98  H   UNL     1     147.986 165.216 192.440  0.00  0.00    +0.074 HD
BRANCH  97  99
ATOM     99  C   UNL     1     149.826 164.256 193.049  0.00  0.00    +0.013 C 
ATOM    100  H   UNL     1     149.221 163.585 193.669  0.00  0.00    +0.038 HD
BRANCH  99 101
ATOM    101  C   UNL     1     151.074 164.597 193.876  0.00  0.00    -0.056 C 
ATOM    102  H   UNL     1     151.766 163.750 193.949  0.00  0.00    +0.024 HD
ATOM    103  H   UNL     1     150.795 164.884 194.898  0.00  0.00    +0.024 HD
ATOM    104  H   UNL     1     151.613 165.440 193.432  0.00  0.00    +0.024 HD
ENDBRANCH  99 101
BRANCH  99 105
ATOM    105  C   UNL     1     150.270 163.529 191.792  0.00  0.00    -0.064 C 
ATOM    106  C   UNL     1     149.490 162.691 191.099  0.00  0.00    -0.005 C 
ATOM    107  H   UNL     1     151.295 163.727 191.494  0.00  0.00    +0.059 HD
ATOM    108  H   UNL     1     148.467 162.524 191.441  0.00  0.00    +0.078 HD
BRANCH 106 109
ATOM    109  N   UNL     1     149.830 161.982 189.957  0.00  0.00    -0.284 N 
ATOM    110  C   UNL     1     150.721 160.916 189.903  0.00  0.00    +0.206 C 
ATOM    111  O   UNL     1     151.038 160.291 188.897  0.00  0.00    -0.279 OA
ATOM    112  H   UNL     1     151.147 160.641 190.878  0.00  0.00    +0.126 HD
BRANCH 109 113
ATOM    113  C   UNL     1     149.222 162.412 188.703  0.00  0.00    +0.007 C 
ATOM    114  H   UNL     1     149.057 163.490 188.670  0.00  0.00    +0.043 HD
ATOM    115  H   UNL     1     149.873 162.131 187.870  0.00  0.00    +0.043 HD
ATOM    116  H   UNL     1     148.260 161.901 188.608  0.00  0.00    +0.043 HD
ENDBRANCH 109 113
ENDBRANCH 106 109
ENDBRANCH  99 105
ENDBRANCH  97  99
BRANCH  97 117
ATOM    117  O   UNL     1     148.938 166.346 193.932  0.00  0.00    -0.461 OA
BRANCH 117 118
ATOM    118  C   UNL     1     148.020 166.009 194.878  0.00  0.00    +0.304 C 
ATOM    119  O   UNL     1     146.971 165.415 194.674  0.00  0.00    -0.251 OA
BRANCH 118 120
ATOM    120  C   UNL     1     148.491 166.454 196.228  0.00  0.00    +0.033 C 
ATOM    121  H   UNL     1     148.544 167.544 196.260  0.00  0.00    +0.034 HD
ATOM    122  H   UNL     1     147.813 166.080 197.000  0.00  0.00    +0.034 HD
ATOM    123  H   UNL     1     149.488 166.047 196.415  0.00  0.00    +0.034 HD
ENDBRANCH 118 120
ENDBRANCH 117 118
ENDBRANCH  97 117
ENDBRANCH  91  97
ENDBRANCH  89  91
BRANCH  89 124
ATOM    124  O   UNL     1     149.494 168.826 191.376  0.00  0.00    -0.460 OA
BRANCH 124 125
ATOM    125  C   UNL     1     148.612 169.582 192.083  0.00  0.00    +0.324 C 
ATOM    126  O   UNL     1     147.725 169.103 192.786  0.00  0.00    -0.249 OA
BRANCH 125 127
ATOM    127  C   UNL     1     148.890 171.096 192.008  0.00  0.00    +0.105 C 
ATOM    128  H   UNL     1     148.764 171.363 190.949  0.00  0.00    +0.058 HD
BRANCH 127 129
ATOM    129  C   UNL     1     150.364 171.359 192.343  0.00  0.00    -0.039 C 
ATOM    130  H   UNL     1     150.601 171.053 193.370  0.00  0.00    +0.025 HD
ATOM    131  H   UNL     1     151.039 170.835 191.659  0.00  0.00    +0.025 HD
ATOM    132  H   UNL     1     150.591 172.429 192.263  0.00  0.00    +0.025 HD
ENDBRANCH 127 129
BRANCH 127 133
ATOM    133  N   UNL     1     148.019 172.004 192.799  0.00  0.00    -0.296 NA
BRANCH 133 134
ATOM    134  C   UNL     1     146.931 172.624 192.054  0.00  0.00    -0.012 C 
ATOM    135  H   UNL     1     147.059 172.515 190.972  0.00  0.00    +0.039 HD
ATOM    136  H   UNL     1     146.815 173.685 192.283  0.00  0.00    +0.039 HD
ATOM    137  H   UNL     1     145.981 172.130 192.295  0.00  0.00    +0.039 HD
ENDBRANCH 133 134
BRANCH 133 138
ATOM    138  C   UNL     1     148.755 172.981 193.593  0.00  0.00    -0.012 C 
ATOM    139  H   UNL     1     149.657 172.537 194.027  0.00  0.00    +0.039 HD
ATOM    140  H   UNL     1     148.142 173.317 194.438  0.00  0.00    +0.039 HD
ATOM    141  H   UNL     1     149.048 173.869 193.027  0.00  0.00    +0.039 HD
ENDBRANCH 133 138
ENDBRANCH 127 133
ENDBRANCH 125 127
ENDBRANCH 124 125
ENDBRANCH  89 124
ENDBRANCH  86  89
ENDBRANCH  83  86
ENDBRANCH  77  83
ENDBRANCH  75  77
BRANCH  75 142
ATOM    142  O   UNL     1     154.675 167.109 188.197  0.00  0.00    -0.391 OA
ATOM    143  H   UNL     1     155.289 167.716 188.643  0.00  0.00    +0.210 HD
ENDBRANCH  75 142
ENDBRANCH  69  75
ENDBRANCH  14  69
BRANCH  25 144
ATOM    144  O   UNL     1     160.611 167.225 182.693  0.00  0.00    -0.391 OA
ATOM    145  H   UNL     1     160.742 166.327 183.045  0.00  0.00    +0.210 HD
ENDBRANCH  25 144
BRANCH  23 146
ATOM    146  O   UNL     1     158.888 170.933 184.123  0.00  0.00    -0.460 OA
BRANCH 146 147
ATOM    147  C   UNL     1     159.044 172.187 183.621  0.00  0.00    +0.327 C 
ATOM    148  O   UNL     1     160.110 172.799 183.634  0.00  0.00    -0.249 OA
BRANCH 147 149
ATOM    149  C   UNL     1     157.757 172.769 183.009  0.00  0.00    +0.131 C 
ATOM    150  H   UNL     1     157.775 172.408 181.971  0.00  0.00    +0.060 HD
BRANCH 149 151
ATOM    151  C   UNL     1     157.907 174.308 182.987  0.00  0.00    +0.073 C 
ATOM    152  H   UNL     1     157.545 174.752 183.923  0.00  0.00    +0.058 HD
ATOM    153  H   UNL     1     158.967 174.576 182.893  0.00  0.00    +0.058 HD
BRANCH 151 154
ATOM    154  O   UNL     1     157.207 174.873 181.873  0.00  0.00    -0.381 OA
BRANCH 154 155
ATOM    155  C   UNL     1     158.015 174.898 180.703  0.00  0.00    +0.037 C 
ATOM    156  H   UNL     1     157.552 174.316 179.901  0.00  0.00    +0.052 HD
ATOM    157  H   UNL     1     159.013 174.510 180.924  0.00  0.00    +0.052 HD
ATOM    158  H   UNL     1     158.109 175.936 180.372  0.00  0.00    +0.052 HD
ENDBRANCH 154 155
ENDBRANCH 151 154
ENDBRANCH 149 151
BRANCH 149 159
ATOM    159  N   UNL     1     156.523 172.203 183.645  0.00  0.00    -0.294 NA
BRANCH 159 160
ATOM    160  C   UNL     1     155.603 171.665 182.643  0.00  0.00    -0.012 C 
ATOM    161  H   UNL     1     154.915 170.918 183.049  0.00  0.00    +0.039 HD
ATOM    162  H   UNL     1     156.161 171.202 181.822  0.00  0.00    +0.039 HD
ATOM    163  H   UNL     1     155.014 172.470 182.192  0.00  0.00    +0.039 HD
ENDBRANCH 159 160
BRANCH 159 164
ATOM    164  C   UNL     1     155.828 173.142 184.523  0.00  0.00    -0.012 C 
ATOM    165  H   UNL     1     155.991 174.170 184.178  0.00  0.00    +0.039 HD
ATOM    166  H   UNL     1     156.173 173.082 185.560  0.00  0.00    +0.039 HD
ATOM    167  H   UNL     1     154.747 172.977 184.507  0.00  0.00    +0.039 HD
ENDBRANCH 159 164
ENDBRANCH 149 159
ENDBRANCH 147 149
ENDBRANCH 146 147
ENDBRANCH  23 146
BRANCH   4 168
ATOM    168  O   UNL     1     159.733 163.283 184.610  0.00  0.00    -0.376 OA
BRANCH 168 169
ATOM    169  C   UNL     1     159.322 162.514 183.486  0.00  0.00    +0.037 C 
ATOM    170  H   UNL     1     160.156 161.912 183.113  0.00  0.00    +0.052 HD
ATOM    171  H   UNL     1     158.474 161.869 183.734  0.00  0.00    +0.052 HD
ATOM    172  H   UNL     1     159.013 163.204 182.696  0.00  0.00    +0.052 HD
ENDBRANCH 168 169
ENDBRANCH   4 168
BRANCH  10 173
ATOM    173  O   UNL     1     159.499 161.273 190.773  0.00  0.00    -0.376 OA
BRANCH 173 174
ATOM    174  C   UNL     1     158.648 160.144 190.614  0.00  0.00    +0.037 C 
ATOM    175  H   UNL     1     159.242 159.328 190.193  0.00  0.00    +0.052 HD
ATOM    176  H   UNL     1     158.248 159.819 191.578  0.00  0.00    +0.052 HD
ATOM    177  H   UNL     1     157.832 160.371 189.922  0.00  0.00    +0.052 HD
ENDBRANCH 173 174
ENDBRANCH  10 173
TORSDOF 45
ENDMDL
MODEL 7
REMARK VINA RESULT:      -5.5      5.193     10.266
REMARK  Name = Aplyronine A_conf2
REMARK  45 active torsions:
REMARK  status: ('A' for Active; 'I' for Inactive)
REMARK    1  A    between atoms: C_1  and  C_2
REMARK    2  A    between atoms: C_5  and  O_75
REMARK    3  A    between atoms: C_6  and  C_74
REMARK    4  A    between atoms: C_9  and  C_73
REMARK    5  A    between atoms: C_11  and  O_71
REMARK    6  A    between atoms: C_15  and  C_39
REMARK    7  A    between atoms: C_24  and  O_29
REMARK    8  A    between atoms: C_25  and  C_28
REMARK    9  A    between atoms: C_26  and  O_27
REMARK   10  A    between atoms: O_29  and  C_30
REMARK   11  A    between atoms: C_30  and  C_32
REMARK   12  A    between atoms: C_32  and  C_33
REMARK   13  A    between atoms: C_32  and  N_36
REMARK   14  A    between atoms: C_33  and  O_34
REMARK   15  A    between atoms: O_34  and  C_35
REMARK   16  A    between atoms: N_36  and  C_37
REMARK   17  A    between atoms: N_36  and  C_38
REMARK   18  A    between atoms: C_39  and  C_40
REMARK   19  A    between atoms: C_39  and  C_41
REMARK   20  A    between atoms: C_41  and  C_42
REMARK   21  A    between atoms: C_41  and  O_70
REMARK   22  A    between atoms: C_42  and  C_43
REMARK   23  A    between atoms: C_42  and  C_44
REMARK   24  A    between atoms: C_44  and  C_45
REMARK   25  A    between atoms: C_45  and  C_46
REMARK   26  A    between atoms: C_46  and  C_47
REMARK   27  A    between atoms: C_46  and  O_62
REMARK   28  A    between atoms: C_47  and  C_48
REMARK   29  A    between atoms: C_47  and  C_49
REMARK   30  A    between atoms: C_49  and  C_50
REMARK   31  A    between atoms: C_49  and  O_58
REMARK   32  A    between atoms: C_50  and  C_51
REMARK   33  A    between atoms: C_50  and  C_52
REMARK   34  A    between atoms: C_53  and  N_54
REMARK   35  A    between atoms: N_54  and  C_55
REMARK   36  A    between atoms: O_58  and  C_59
REMARK   37  A    between atoms: C_59  and  C_61
REMARK   38  A    between atoms: O_62  and  C_63
REMARK   39  A    between atoms: C_63  and  C_65
REMARK   40  A    between atoms: C_65  and  C_66
REMARK   41  A    between atoms: C_65  and  N_67
REMARK   42  A    between atoms: N_67  and  C_68
REMARK   43  A    between atoms: N_67  and  C_69
REMARK   44  A    between atoms: O_71  and  C_72
REMARK   45  A    between atoms: O_75  and  C_76
REMARK                            x       y       z     vdW  Elec       q    Type
REMARK                         _______ _______ _______ _____ _____    ______ ____
ROOT
ATOM      1  C   UNL     1     160.935 168.045 183.349  0.00  0.00    -0.017 C 
ATOM      2  C   UNL     1     160.784 166.525 183.094  0.00  0.00    -0.045 C 
ATOM      3  C   UNL     1     159.671 165.861 183.915  0.00  0.00    -0.022 C 
ATOM      4  C   UNL     1     159.452 164.373 183.570  0.00  0.00    +0.079 C 
ATOM      5  C   UNL     1     160.384 163.447 184.359  0.00  0.00    -0.048 C 
ATOM      6  C   UNL     1     160.005 162.927 185.547  0.00  0.00    -0.082 C 
ATOM      7  C   UNL     1     160.734 161.982 186.463  0.00  0.00    -0.032 C 
ATOM      8  C   UNL     1     161.167 162.598 187.812  0.00  0.00    -0.038 C 
ATOM      9  C   UNL     1     160.045 163.332 188.585  0.00  0.00    -0.020 C 
ATOM     10  C   UNL     1     158.782 162.489 188.832  0.00  0.00    +0.077 C 
ATOM     11  C   UNL     1     157.719 163.335 189.489  0.00  0.00    -0.059 C 
ATOM     12  C   UNL     1     156.866 164.098 188.781  0.00  0.00    -0.082 C 
ATOM     13  C   UNL     1     155.762 164.942 189.365  0.00  0.00    +0.003 C 
ATOM     14  C   UNL     1     154.451 164.836 188.547  0.00  0.00    +0.112 C 
ATOM     15  O   UNL     1     154.654 165.561 187.306  0.00  0.00    -0.458 OA
ATOM     16  C   UNL     1     154.808 164.859 186.162  0.00  0.00    +0.332 C 
ATOM     17  O   UNL     1     154.687 163.653 186.025  0.00  0.00    -0.246 OA
ATOM     18  C   UNL     1     155.224 165.745 185.052  0.00  0.00    +0.022 C 
ATOM     19  C   UNL     1     155.327 167.080 185.139  0.00  0.00    -0.055 C 
ATOM     20  C   UNL     1     155.839 167.889 184.056  0.00  0.00    -0.065 C 
ATOM     21  C   UNL     1     155.998 169.219 184.144  0.00  0.00    -0.081 C 
ATOM     22  C   UNL     1     156.633 170.049 183.058  0.00  0.00    +0.003 C 
ATOM     23  C   UNL     1     157.969 170.743 183.427  0.00  0.00    +0.111 C 
ATOM     24  C   UNL     1     159.159 169.882 183.958  0.00  0.00    +0.020 C 
ATOM     25  C   UNL     1     159.759 168.951 182.862  0.00  0.00    +0.064 C 
ATOM     26  H   UNL     1     161.094 168.181 184.423  0.00  0.00    +0.032 HD
ATOM     27  H   UNL     1     160.620 166.343 182.025  0.00  0.00    +0.027 HD
ATOM     28  H   UNL     1     161.734 166.042 183.344  0.00  0.00    +0.027 HD
ATOM     29  H   UNL     1     159.884 165.976 184.987  0.00  0.00    +0.029 HD
ATOM     30  H   UNL     1     158.723 166.385 183.754  0.00  0.00    +0.029 HD
ATOM     31  H   UNL     1     159.583 164.224 182.491  0.00  0.00    +0.064 HD
ATOM     32  H   UNL     1     159.016 163.210 185.912  0.00  0.00    +0.057 HD
ATOM     33  H   UNL     1     160.070 161.130 186.654  0.00  0.00    +0.031 HD
ATOM     34  H   UNL     1     161.612 161.545 185.975  0.00  0.00    +0.031 HD
ATOM     35  H   UNL     1     161.525 161.771 188.441  0.00  0.00    +0.030 HD
ATOM     36  H   UNL     1     159.780 164.252 188.047  0.00  0.00    +0.030 HD
ATOM     37  H   UNL     1     160.457 163.646 189.553  0.00  0.00    +0.030 HD
ATOM     38  H   UNL     1     158.398 162.098 187.884  0.00  0.00    +0.064 HD
ATOM     39  H   UNL     1     157.665 163.305 190.574  0.00  0.00    +0.059 HD
ATOM     40  H   UNL     1     156.980 164.123 187.698  0.00  0.00    +0.057 HD
ATOM     41  H   UNL     1     155.579 164.637 190.403  0.00  0.00    +0.034 HD
ATOM     42  H   UNL     1     156.115 165.981 189.371  0.00  0.00    +0.034 HD
ATOM     43  H   UNL     1     154.244 163.776 188.358  0.00  0.00    +0.074 HD
ATOM     44  H   UNL     1     155.493 165.214 184.147  0.00  0.00    +0.069 HD
ATOM     45  H   UNL     1     155.067 167.598 186.058  0.00  0.00    +0.062 HD
ATOM     46  H   UNL     1     156.170 167.370 183.155  0.00  0.00    +0.061 HD
ATOM     47  H   UNL     1     155.703 169.757 185.043  0.00  0.00    +0.057 HD
ATOM     48  H   UNL     1     156.752 169.462 182.143  0.00  0.00    +0.034 HD
ATOM     49  H   UNL     1     155.904 170.831 182.806  0.00  0.00    +0.034 HD
ATOM     50  H   UNL     1     158.301 171.244 182.507  0.00  0.00    +0.074 HD
ATOM     51  H   UNL     1     159.960 170.592 184.210  0.00  0.00    +0.036 HD
ATOM     52  H   UNL     1     160.133 169.623 182.078  0.00  0.00    +0.060 HD
ENDROOT
BRANCH   1  53
ATOM     53  C   UNL     1     162.243 168.532 182.697  0.00  0.00    -0.060 C 
ATOM     54  H   UNL     1     162.063 168.920 181.689  0.00  0.00    +0.023 HD
ATOM     55  H   UNL     1     162.704 169.325 183.295  0.00  0.00    +0.023 HD
ATOM     56  H   UNL     1     162.968 167.714 182.622  0.00  0.00    +0.023 HD
ENDBRANCH   1  53
BRANCH   5  57
ATOM     57  C   UNL     1     161.702 163.146 183.697  0.00  0.00    -0.041 C 
ATOM     58  H   UNL     1     161.613 163.233 182.608  0.00  0.00    +0.028 HD
ATOM     59  H   UNL     1     162.470 163.844 184.038  0.00  0.00    +0.028 HD
ATOM     60  H   UNL     1     162.063 162.137 183.898  0.00  0.00    +0.028 HD
ENDBRANCH   5  57
BRANCH  24  61
ATOM     61  C   UNL     1     158.853 169.188 185.293  0.00  0.00    -0.057 C 
ATOM     62  H   UNL     1     157.853 169.457 185.651  0.00  0.00    +0.023 HD
ATOM     63  H   UNL     1     159.558 169.467 186.077  0.00  0.00    +0.023 HD
ATOM     64  H   UNL     1     158.850 168.099 185.194  0.00  0.00    +0.023 HD
ENDBRANCH  24  61
BRANCH   8  65
ATOM     65  C   UNL     1     162.352 163.552 187.610  0.00  0.00    -0.062 C 
ATOM     66  H   UNL     1     162.002 164.562 187.369  0.00  0.00    +0.023 HD
ATOM     67  H   UNL     1     162.977 163.613 188.506  0.00  0.00    +0.023 HD
ATOM     68  H   UNL     1     162.983 163.214 186.781  0.00  0.00    +0.023 HD
ENDBRANCH   8  65
BRANCH  14  69
ATOM     69  C   UNL     1     153.247 165.500 189.297  0.00  0.00    +0.020 C 
ATOM     70  H   UNL     1     153.508 165.535 190.363  0.00  0.00    +0.036 HD
BRANCH  69  71
ATOM     71  C   UNL     1     153.024 166.934 188.803  0.00  0.00    -0.057 C 
ATOM     72  H   UNL     1     152.139 167.023 188.172  0.00  0.00    +0.023 HD
ATOM     73  H   UNL     1     153.880 167.302 188.228  0.00  0.00    +0.023 HD
ATOM     74  H   UNL     1     152.870 167.619 189.644  0.00  0.00    +0.023 HD
ENDBRANCH  69  71
BRANCH  69  75
ATOM     75  C   UNL     1     151.997 164.584 189.162  0.00  0.00    +0.064 C 
ATOM     76  H   UNL     1     151.171 165.172 188.744  0.00  0.00    +0.060 HD
BRANCH  75  77
ATOM     77  C   UNL     1     151.473 163.812 190.406  0.00  0.00    -0.017 C 
ATOM     78  H   UNL     1     150.450 163.488 190.162  0.00  0.00    +0.032 HD
BRANCH  77  79
ATOM     79  C   UNL     1     152.235 162.514 190.701  0.00  0.00    -0.060 C 
ATOM     80  H   UNL     1     151.543 161.666 190.758  0.00  0.00    +0.023 HD
ATOM     81  H   UNL     1     152.950 162.283 189.905  0.00  0.00    +0.023 HD
ATOM     82  H   UNL     1     152.774 162.548 191.648  0.00  0.00    +0.023 HD
ENDBRANCH  77  79
BRANCH  77  83
ATOM     83  C   UNL     1     151.319 164.752 191.623  0.00  0.00    -0.045 C 
ATOM     84  H   UNL     1     151.796 165.708 191.368  0.00  0.00    +0.027 HD
ATOM     85  H   UNL     1     151.861 164.356 192.482  0.00  0.00    +0.027 HD
BRANCH  83  86
ATOM     86  C   UNL     1     149.867 165.012 192.033  0.00  0.00    -0.015 C 
ATOM     87  H   UNL     1     149.832 165.820 192.776  0.00  0.00    +0.030 HD
ATOM     88  H   UNL     1     149.467 164.132 192.552  0.00  0.00    +0.030 HD
BRANCH  86  89
ATOM     89  C   UNL     1     148.906 165.328 190.869  0.00  0.00    +0.109 C 
ATOM     90  H   UNL     1     149.418 165.029 189.946  0.00  0.00    +0.074 HD
BRANCH  89  91
ATOM     91  C   UNL     1     148.485 166.814 190.706  0.00  0.00    +0.031 C 
ATOM     92  H   UNL     1     147.390 166.830 190.638  0.00  0.00    +0.037 HD
BRANCH  91  93
ATOM     93  C   UNL     1     149.057 167.435 189.423  0.00  0.00    -0.056 C 
ATOM     94  H   UNL     1     149.972 168.000 189.629  0.00  0.00    +0.023 HD
ATOM     95  H   UNL     1     148.340 168.118 188.957  0.00  0.00    +0.023 HD
ATOM     96  H   UNL     1     149.297 166.676 188.673  0.00  0.00    +0.023 HD
ENDBRANCH  91  93
BRANCH  91  97
ATOM     97  C   UNL     1     148.909 167.664 191.947  0.00  0.00    +0.115 C 
ATOM     98  H   UNL     1     149.587 167.048 192.550  0.00  0.00    +0.074 HD
BRANCH  97  99
ATOM     99  C   UNL     1     149.659 168.980 191.581  0.00  0.00    +0.013 C 
ATOM    100  H   UNL     1     149.846 168.993 190.503  0.00  0.00    +0.038 HD
BRANCH  99 101
ATOM    101  C   UNL     1     151.037 169.039 192.257  0.00  0.00    -0.056 C 
ATOM    102  H   UNL     1     151.339 170.066 192.493  0.00  0.00    +0.024 HD
ATOM    103  H   UNL     1     151.808 168.610 191.603  0.00  0.00    +0.024 HD
ATOM    104  H   UNL     1     151.036 168.461 193.187  0.00  0.00    +0.024 HD
ENDBRANCH  99 101
BRANCH  99 105
ATOM    105  C   UNL     1     148.880 170.221 191.980  0.00  0.00    -0.064 C 
ATOM    106  C   UNL     1     149.443 171.415 192.205  0.00  0.00    -0.005 C 
ATOM    107  H   UNL     1     147.811 170.069 192.088  0.00  0.00    +0.059 HD
ATOM    108  H   UNL     1     150.522 171.517 192.084  0.00  0.00    +0.078 HD
BRANCH 106 109
ATOM    109  N   UNL     1     148.801 172.584 192.586  0.00  0.00    -0.284 N 
ATOM    110  C   UNL     1     148.284 172.847 193.849  0.00  0.00    +0.206 C 
ATOM    111  O   UNL     1     147.704 173.872 194.193  0.00  0.00    -0.279 OA
ATOM    112  H   UNL     1     148.441 172.036 194.574  0.00  0.00    +0.126 HD
BRANCH 109 113
ATOM    113  C   UNL     1     148.631 173.611 191.564  0.00  0.00    +0.007 C 
ATOM    114  H   UNL     1     148.015 173.270 190.731  0.00  0.00    +0.043 HD
ATOM    115  H   UNL     1     148.159 174.491 192.012  0.00  0.00    +0.043 HD
ATOM    116  H   UNL     1     149.623 173.875 191.189  0.00  0.00    +0.043 HD
ENDBRANCH 109 113
ENDBRANCH 106 109
ENDBRANCH  99 105
ENDBRANCH  97  99
BRANCH  97 117
ATOM    117  O   UNL     1     147.730 168.014 192.713  0.00  0.00    -0.461 OA
BRANCH 117 118
ATOM    118  C   UNL     1     147.219 167.070 193.549  0.00  0.00    +0.304 C 
ATOM    119  O   UNL     1     146.127 166.532 193.433  0.00  0.00    -0.251 OA
BRANCH 118 120
ATOM    120  C   UNL     1     148.203 166.760 194.634  0.00  0.00    +0.033 C 
ATOM    121  H   UNL     1     148.833 167.632 194.821  0.00  0.00    +0.034 HD
ATOM    122  H   UNL     1     147.673 166.467 195.544  0.00  0.00    +0.034 HD
ATOM    123  H   UNL     1     148.838 165.928 194.318  0.00  0.00    +0.034 HD
ENDBRANCH 118 120
ENDBRANCH 117 118
ENDBRANCH  97 117
ENDBRANCH  91  97
ENDBRANCH  89  91
BRANCH  89 124
ATOM    124  O   UNL     1     147.724 164.523 191.094  0.00  0.00    -0.460 OA
BRANCH 124 125
ATOM    125  C   UNL     1     147.214 163.846 190.031  0.00  0.00    +0.324 C 
ATOM    126  O   UNL     1     146.099 164.067 189.563  0.00  0.00    -0.249 OA
BRANCH 125 127
ATOM    127  C   UNL     1     148.199 162.845 189.399  0.00  0.00    +0.105 C 
ATOM    128  H   UNL     1     149.201 163.227 189.644  0.00  0.00    +0.058 HD
BRANCH 127 129
ATOM    129  C   UNL     1     148.079 162.911 187.870  0.00  0.00    -0.039 C 
ATOM    130  H   UNL     1     148.725 163.693 187.452  0.00  0.00    +0.025 HD
ATOM    131  H   UNL     1     148.334 161.957 187.398  0.00  0.00    +0.025 HD
ATOM    132  H   UNL     1     147.049 163.151 187.577  0.00  0.00    +0.025 HD
ENDBRANCH 127 129
BRANCH 127 133
ATOM    133  N   UNL     1     148.143 161.430 189.851  0.00  0.00    -0.296 NA
BRANCH 133 134
ATOM    134  C   UNL     1     146.841 160.789 189.716  0.00  0.00    -0.012 C 
ATOM    135  H   UNL     1     146.050 161.353 190.220  0.00  0.00    +0.039 HD
ATOM    136  H   UNL     1     146.834 159.766 190.099  0.00  0.00    +0.039 HD
ATOM    137  H   UNL     1     146.551 160.746 188.659  0.00  0.00    +0.039 HD
ENDBRANCH 133 134
BRANCH 133 138
ATOM    138  C   UNL     1     148.718 161.211 191.174  0.00  0.00    -0.012 C 
ATOM    139  H   UNL     1     149.175 160.219 191.244  0.00  0.00    +0.039 HD
ATOM    140  H   UNL     1     147.930 161.240 191.935  0.00  0.00    +0.039 HD
ATOM    141  H   UNL     1     149.469 161.956 191.449  0.00  0.00    +0.039 HD
ENDBRANCH 133 138
ENDBRANCH 127 133
ENDBRANCH 125 127
ENDBRANCH 124 125
ENDBRANCH  89 124
ENDBRANCH  86  89
ENDBRANCH  83  86
ENDBRANCH  77  83
ENDBRANCH  75  77
BRANCH  75 142
ATOM    142  O   UNL     1     152.304 163.592 188.166  0.00  0.00    -0.391 OA
ATOM    143  H   UNL     1     152.171 162.710 188.553  0.00  0.00    +0.210 HD
ENDBRANCH  75 142
ENDBRANCH  69  75
ENDBRANCH  14  69
BRANCH  25 144
ATOM    144  O   UNL     1     158.741 168.190 182.230  0.00  0.00    -0.391 OA
ATOM    145  H   UNL     1     158.401 168.710 181.482  0.00  0.00    +0.210 HD
ENDBRANCH  25 144
BRANCH  23 146
ATOM    146  O   UNL     1     157.629 171.773 184.395  0.00  0.00    -0.460 OA
BRANCH 146 147
ATOM    147  C   UNL     1     157.229 172.981 183.914  0.00  0.00    +0.327 C 
ATOM    148  O   UNL     1     156.336 173.655 184.423  0.00  0.00    -0.249 OA
BRANCH 147 149
ATOM    149  C   UNL     1     158.017 173.441 182.674  0.00  0.00    +0.131 C 
ATOM    150  H   UNL     1     158.181 172.512 182.110  0.00  0.00    +0.060 HD
BRANCH 149 151
ATOM    151  C   UNL     1     159.389 173.959 183.161  0.00  0.00    +0.073 C 
ATOM    152  H   UNL     1     159.518 175.021 182.918  0.00  0.00    +0.058 HD
ATOM    153  H   UNL     1     159.454 173.870 184.253  0.00  0.00    +0.058 HD
BRANCH 151 154
ATOM    154  O   UNL     1     160.456 173.192 182.592  0.00  0.00    -0.381 OA
BRANCH 154 155
ATOM    155  C   UNL     1     161.368 172.741 183.584  0.00  0.00    +0.037 C 
ATOM    156  H   UNL     1     162.392 173.027 183.327  0.00  0.00    +0.052 HD
ATOM    157  H   UNL     1     161.296 171.656 183.699  0.00  0.00    +0.052 HD
ATOM    158  H   UNL     1     161.102 173.211 184.535  0.00  0.00    +0.052 HD
ENDBRANCH 154 155
ENDBRANCH 151 154
ENDBRANCH 149 151
BRANCH 149 159
ATOM    159  N   UNL     1     157.208 174.347 181.795  0.00  0.00    -0.294 NA
BRANCH 159 160
ATOM    160  C   UNL     1     156.316 173.587 180.919  0.00  0.00    -0.012 C 
ATOM    161  H   UNL     1     155.261 173.840 181.056  0.00  0.00    +0.039 HD
ATOM    162  H   UNL     1     156.433 172.512 181.097  0.00  0.00    +0.039 HD
ATOM    163  H   UNL     1     156.579 173.750 179.870  0.00  0.00    +0.039 HD
ENDBRANCH 159 160
BRANCH 159 164
ATOM    164  C   UNL     1     158.012 175.284 181.015  0.00  0.00    -0.012 C 
ATOM    165  H   UNL     1     158.250 176.169 181.617  0.00  0.00    +0.039 HD
ATOM    166  H   UNL     1     157.498 175.628 180.111  0.00  0.00    +0.039 HD
ATOM    167  H   UNL     1     158.968 174.841 180.722  0.00  0.00    +0.039 HD
ENDBRANCH 159 164
ENDBRANCH 149 159
ENDBRANCH 147 149
ENDBRANCH 146 147
ENDBRANCH  23 146
BRANCH   4 168
ATOM    168  O   UNL     1     158.074 164.091 183.887  0.00  0.00    -0.376 OA
BRANCH 168 169
ATOM    169  C   UNL     1     157.344 163.559 182.787  0.00  0.00    +0.037 C 
ATOM    170  H   UNL     1     157.527 164.154 181.888  0.00  0.00    +0.052 HD
ATOM    171  H   UNL     1     157.604 162.513 182.605  0.00  0.00    +0.052 HD
ATOM    172  H   UNL     1     156.279 163.614 183.027  0.00  0.00    +0.052 HD
ENDBRANCH 168 169
ENDBRANCH   4 168
BRANCH  10 173
ATOM    173  O   UNL     1     159.123 161.401 189.695  0.00  0.00    -0.376 OA
BRANCH 173 174
ATOM    174  C   UNL     1     158.599 160.157 189.243  0.00  0.00    +0.037 C 
ATOM    175  H   UNL     1     157.782 160.366 188.548  0.00  0.00    +0.052 HD
ATOM    176  H   UNL     1     159.364 159.581 188.715  0.00  0.00    +0.052 HD
ATOM    177  H   UNL     1     158.201 159.580 190.082  0.00  0.00    +0.052 HD
ENDBRANCH 173 174
ENDBRANCH  10 173
TORSDOF 45
ENDMDL
MODEL 8
REMARK VINA RESULT:      -5.4      5.151     10.323
REMARK  Name = Aplyronine A_conf2
REMARK  45 active torsions:
REMARK  status: ('A' for Active; 'I' for Inactive)
REMARK    1  A    between atoms: C_1  and  C_2
REMARK    2  A    between atoms: C_5  and  O_75
REMARK    3  A    between atoms: C_6  and  C_74
REMARK    4  A    between atoms: C_9  and  C_73
REMARK    5  A    between atoms: C_11  and  O_71
REMARK    6  A    between atoms: C_15  and  C_39
REMARK    7  A    between atoms: C_24  and  O_29
REMARK    8  A    between atoms: C_25  and  C_28
REMARK    9  A    between atoms: C_26  and  O_27
REMARK   10  A    between atoms: O_29  and  C_30
REMARK   11  A    between atoms: C_30  and  C_32
REMARK   12  A    between atoms: C_32  and  C_33
REMARK   13  A    between atoms: C_32  and  N_36
REMARK   14  A    between atoms: C_33  and  O_34
REMARK   15  A    between atoms: O_34  and  C_35
REMARK   16  A    between atoms: N_36  and  C_37
REMARK   17  A    between atoms: N_36  and  C_38
REMARK   18  A    between atoms: C_39  and  C_40
REMARK   19  A    between atoms: C_39  and  C_41
REMARK   20  A    between atoms: C_41  and  C_42
REMARK   21  A    between atoms: C_41  and  O_70
REMARK   22  A    between atoms: C_42  and  C_43
REMARK   23  A    between atoms: C_42  and  C_44
REMARK   24  A    between atoms: C_44  and  C_45
REMARK   25  A    between atoms: C_45  and  C_46
REMARK   26  A    between atoms: C_46  and  C_47
REMARK   27  A    between atoms: C_46  and  O_62
REMARK   28  A    between atoms: C_47  and  C_48
REMARK   29  A    between atoms: C_47  and  C_49
REMARK   30  A    between atoms: C_49  and  C_50
REMARK   31  A    between atoms: C_49  and  O_58
REMARK   32  A    between atoms: C_50  and  C_51
REMARK   33  A    between atoms: C_50  and  C_52
REMARK   34  A    between atoms: C_53  and  N_54
REMARK   35  A    between atoms: N_54  and  C_55
REMARK   36  A    between atoms: O_58  and  C_59
REMARK   37  A    between atoms: C_59  and  C_61
REMARK   38  A    between atoms: O_62  and  C_63
REMARK   39  A    between atoms: C_63  and  C_65
REMARK   40  A    between atoms: C_65  and  C_66
REMARK   41  A    between atoms: C_65  and  N_67
REMARK   42  A    between atoms: N_67  and  C_68
REMARK   43  A    between atoms: N_67  and  C_69
REMARK   44  A    between atoms: O_71  and  C_72
REMARK   45  A    between atoms: O_75  and  C_76
REMARK                            x       y       z     vdW  Elec       q    Type
REMARK                         _______ _______ _______ _____ _____    ______ ____
ROOT
ATOM      1  C   UNL     1     160.944 168.400 183.375  0.00  0.00    -0.017 C 
ATOM      2  C   UNL     1     160.956 166.883 183.066  0.00  0.00    -0.045 C 
ATOM      3  C   UNL     1     159.930 166.073 183.869  0.00  0.00    -0.022 C 
ATOM      4  C   UNL     1     159.870 164.583 183.471  0.00  0.00    +0.079 C 
ATOM      5  C   UNL     1     160.906 163.736 184.218  0.00  0.00    -0.048 C 
ATOM      6  C   UNL     1     160.598 163.135 185.389  0.00  0.00    -0.082 C 
ATOM      7  C   UNL     1     161.435 162.242 186.264  0.00  0.00    -0.032 C 
ATOM      8  C   UNL     1     161.814 162.853 187.632  0.00  0.00    -0.038 C 
ATOM      9  C   UNL     1     160.627 163.432 188.439  0.00  0.00    -0.020 C 
ATOM     10  C   UNL     1     159.466 162.449 188.664  0.00  0.00    +0.077 C 
ATOM     11  C   UNL     1     158.324 163.150 189.359  0.00  0.00    -0.059 C 
ATOM     12  C   UNL     1     157.386 163.840 188.686  0.00  0.00    -0.082 C 
ATOM     13  C   UNL     1     156.203 164.538 189.308  0.00  0.00    +0.003 C 
ATOM     14  C   UNL     1     154.903 164.320 188.496  0.00  0.00    +0.112 C 
ATOM     15  O   UNL     1     155.012 165.107 187.281  0.00  0.00    -0.458 OA
ATOM     16  C   UNL     1     155.229 164.468 186.111  0.00  0.00    +0.332 C 
ATOM     17  O   UNL     1     155.238 163.261 185.930  0.00  0.00    -0.246 OA
ATOM     18  C   UNL     1     155.534 165.433 185.032  0.00  0.00    +0.022 C 
ATOM     19  C   UNL     1     155.494 166.768 185.167  0.00  0.00    -0.055 C 
ATOM     20  C   UNL     1     155.903 167.666 184.111  0.00  0.00    -0.065 C 
ATOM     21  C   UNL     1     155.918 169.001 184.248  0.00  0.00    -0.081 C 
ATOM     22  C   UNL     1     156.448 169.934 183.189  0.00  0.00    +0.003 C 
ATOM     23  C   UNL     1     157.704 170.755 183.574  0.00  0.00    +0.111 C 
ATOM     24  C   UNL     1     158.986 170.010 184.065  0.00  0.00    +0.020 C 
ATOM     25  C   UNL     1     159.672 169.190 182.931  0.00  0.00    +0.064 C 
ATOM     26  H   UNL     1     161.099 168.513 184.453  0.00  0.00    +0.032 HD
ATOM     27  H   UNL     1     160.800 166.723 181.992  0.00  0.00    +0.027 HD
ATOM     28  H   UNL     1     161.955 166.497 183.291  0.00  0.00    +0.027 HD
ATOM     29  H   UNL     1     160.141 166.171 184.943  0.00  0.00    +0.029 HD
ATOM     30  H   UNL     1     158.930 166.496 183.734  0.00  0.00    +0.029 HD
ATOM     31  H   UNL     1     160.005 164.488 182.386  0.00  0.00    +0.064 HD
ATOM     32  H   UNL     1     159.588 163.296 185.771  0.00  0.00    +0.057 HD
ATOM     33  H   UNL     1     160.869 161.317 186.428  0.00  0.00    +0.031 HD
ATOM     34  H   UNL     1     162.350 161.922 185.755  0.00  0.00    +0.031 HD
ATOM     35  H   UNL     1     162.266 162.047 188.227  0.00  0.00    +0.030 HD
ATOM     36  H   UNL     1     160.258 164.337 187.938  0.00  0.00    +0.030 HD
ATOM     37  H   UNL     1     161.014 163.754 189.415  0.00  0.00    +0.030 HD
ATOM     38  H   UNL     1     159.115 162.052 187.704  0.00  0.00    +0.064 HD
ATOM     39  H   UNL     1     158.286 163.075 190.443  0.00  0.00    +0.059 HD
ATOM     40  H   UNL     1     157.484 163.917 187.604  0.00  0.00    +0.057 HD
ATOM     41  H   UNL     1     156.066 164.178 190.335  0.00  0.00    +0.034 HD
ATOM     42  H   UNL     1     156.442 165.608 189.351  0.00  0.00    +0.034 HD
ATOM     43  H   UNL     1     154.810 163.251 188.269  0.00  0.00    +0.074 HD
ATOM     44  H   UNL     1     155.850 164.968 184.106  0.00  0.00    +0.069 HD
ATOM     45  H   UNL     1     155.189 167.221 186.107  0.00  0.00    +0.062 HD
ATOM     46  H   UNL     1     156.279 167.219 183.190  0.00  0.00    +0.061 HD
ATOM     47  H   UNL     1     155.576 169.471 185.168  0.00  0.00    +0.057 HD
ATOM     48  H   UNL     1     156.619 169.396 182.252  0.00  0.00    +0.034 HD
ATOM     49  H   UNL     1     155.635 170.641 182.972  0.00  0.00    +0.034 HD
ATOM     50  H   UNL     1     157.970 171.323 182.671  0.00  0.00    +0.074 HD
ATOM     51  H   UNL     1     159.708 170.793 184.337  0.00  0.00    +0.036 HD
ATOM     52  H   UNL     1     159.962 169.927 182.169  0.00  0.00    +0.060 HD
ENDROOT
BRANCH   1  53
ATOM     53  C   UNL     1     162.184 169.049 182.733  0.00  0.00    -0.060 C 
ATOM     54  H   UNL     1     161.997 169.313 181.687  0.00  0.00    +0.023 HD
ATOM     55  H   UNL     1     162.470 169.959 183.272  0.00  0.00    +0.023 HD
ATOM     56  H   UNL     1     163.040 168.367 182.764  0.00  0.00    +0.023 HD
ENDBRANCH   1  53
BRANCH   5  57
ATOM     57  C   UNL     1     162.241 163.604 183.537  0.00  0.00    -0.041 C 
ATOM     58  H   UNL     1     163.023 163.370 184.268  0.00  0.00    +0.028 HD
ATOM     59  H   UNL     1     162.213 162.805 182.792  0.00  0.00    +0.028 HD
ATOM     60  H   UNL     1     162.556 164.516 183.029  0.00  0.00    +0.028 HD
ENDBRANCH   5  57
BRANCH  24  61
ATOM     61  C   UNL     1     158.772 169.239 185.375  0.00  0.00    -0.057 C 
ATOM     62  H   UNL     1     159.217 169.776 186.220  0.00  0.00    +0.023 HD
ATOM     63  H   UNL     1     159.225 168.248 185.353  0.00  0.00    +0.023 HD
ATOM     64  H   UNL     1     157.710 169.134 185.616  0.00  0.00    +0.023 HD
ENDBRANCH  24  61
BRANCH   8  65
ATOM     65  C   UNL     1     162.886 163.936 187.457  0.00  0.00    -0.062 C 
ATOM     66  H   UNL     1     163.590 163.664 186.663  0.00  0.00    +0.023 HD
ATOM     67  H   UNL     1     162.442 164.904 187.202  0.00  0.00    +0.023 HD
ATOM     68  H   UNL     1     163.461 164.063 188.380  0.00  0.00    +0.023 HD
ENDBRANCH   8  65
BRANCH  14  69
ATOM     69  C   UNL     1     153.642 164.821 189.279  0.00  0.00    +0.020 C 
ATOM     70  H   UNL     1     153.865 164.725 190.350  0.00  0.00    +0.036 HD
BRANCH  69  71
ATOM     71  C   UNL     1     153.364 166.297 188.970  0.00  0.00    -0.057 C 
ATOM     72  H   UNL     1     154.273 166.901 188.979  0.00  0.00    +0.023 HD
ATOM     73  H   UNL     1     152.666 166.736 189.690  0.00  0.00    +0.023 HD
ATOM     74  H   UNL     1     152.929 166.414 187.972  0.00  0.00    +0.023 HD
ENDBRANCH  69  71
BRANCH  69  75
ATOM     75  C   UNL     1     152.445 163.876 188.973  0.00  0.00    +0.064 C 
ATOM     76  H   UNL     1     151.551 164.484 188.793  0.00  0.00    +0.060 HD
BRANCH  75  77
ATOM     77  C   UNL     1     152.081 162.749 189.981  0.00  0.00    -0.017 C 
ATOM     78  H   UNL     1     151.260 162.177 189.522  0.00  0.00    +0.032 HD
BRANCH  77  79
ATOM     79  C   UNL     1     153.199 161.722 190.199  0.00  0.00    -0.060 C 
ATOM     80  H   UNL     1     153.984 161.842 189.444  0.00  0.00    +0.023 HD
ATOM     81  H   UNL     1     153.678 161.856 191.174  0.00  0.00    +0.023 HD
ATOM     82  H   UNL     1     152.844 160.693 190.129  0.00  0.00    +0.023 HD
ENDBRANCH  77  79
BRANCH  77  83
ATOM     83  C   UNL     1     151.488 163.333 191.282  0.00  0.00    -0.045 C 
ATOM     84  H   UNL     1     151.814 164.379 191.357  0.00  0.00    +0.027 HD
ATOM     85  H   UNL     1     151.897 162.819 192.153  0.00  0.00    +0.027 HD
BRANCH  83  86
ATOM     86  C   UNL     1     149.960 163.281 191.353  0.00  0.00    -0.015 C 
ATOM     87  H   UNL     1     149.649 162.583 192.142  0.00  0.00    +0.030 HD
ATOM     88  H   UNL     1     149.561 162.855 190.423  0.00  0.00    +0.030 HD
BRANCH  86  89
ATOM     89  C   UNL     1     149.268 164.645 191.559  0.00  0.00    +0.109 C 
ATOM     90  H   UNL     1     149.939 165.405 191.142  0.00  0.00    +0.074 HD
BRANCH  89  91
ATOM     91  C   UNL     1     148.962 165.049 193.026  0.00  0.00    +0.031 C 
ATOM     92  H   UNL     1     148.877 164.118 193.602  0.00  0.00    +0.037 HD
BRANCH  91  93
ATOM     93  C   UNL     1     147.635 165.813 193.146  0.00  0.00    -0.056 C 
ATOM     94  H   UNL     1     147.386 166.325 192.211  0.00  0.00    +0.023 HD
ATOM     95  H   UNL     1     147.679 166.566 193.938  0.00  0.00    +0.023 HD
ATOM     96  H   UNL     1     146.801 165.149 193.393  0.00  0.00    +0.023 HD
ENDBRANCH  91  93
BRANCH  91  97
ATOM     97  C   UNL     1     150.125 165.896 193.637  0.00  0.00    +0.115 C 
ATOM     98  H   UNL     1     150.861 165.194 194.047  0.00  0.00    +0.074 HD
BRANCH  97  99
ATOM     99  C   UNL     1     150.856 166.800 192.599  0.00  0.00    +0.013 C 
ATOM    100  H   UNL     1     150.799 166.324 191.614  0.00  0.00    +0.038 HD
BRANCH  99 101
ATOM    101  C   UNL     1     152.350 166.926 192.930  0.00  0.00    -0.056 C 
ATOM    102  H   UNL     1     152.830 167.740 192.374  0.00  0.00    +0.024 HD
ATOM    103  H   UNL     1     152.882 165.999 192.680  0.00  0.00    +0.024 HD
ATOM    104  H   UNL     1     152.496 167.111 193.999  0.00  0.00    +0.024 HD
ENDBRANCH  99 101
BRANCH  99 105
ATOM    105  C   UNL     1     150.264 168.196 192.528  0.00  0.00    -0.064 C 
ATOM    106  C   UNL     1     149.581 168.665 191.477  0.00  0.00    -0.005 C 
ATOM    107  H   UNL     1     150.450 168.811 193.404  0.00  0.00    +0.059 HD
ATOM    108  H   UNL     1     149.423 168.008 190.620  0.00  0.00    +0.078 HD
BRANCH 106 109
ATOM    109  N   UNL     1     149.028 169.928 191.334  0.00  0.00    -0.284 N 
ATOM    110  C   UNL     1     149.639 171.123 191.692  0.00  0.00    +0.206 C 
ATOM    111  O   UNL     1     149.154 172.244 191.582  0.00  0.00    -0.279 OA
ATOM    112  H   UNL     1     150.653 171.002 192.100  0.00  0.00    +0.126 HD
BRANCH 109 113
ATOM    113  C   UNL     1     147.678 170.003 190.787  0.00  0.00    +0.007 C 
ATOM    114  H   UNL     1     147.123 170.863 191.166  0.00  0.00    +0.043 HD
ATOM    115  H   UNL     1     147.734 170.076 189.697  0.00  0.00    +0.043 HD
ATOM    116  H   UNL     1     147.152 169.087 191.070  0.00  0.00    +0.043 HD
ENDBRANCH 109 113
ENDBRANCH 106 109
ENDBRANCH  99 105
ENDBRANCH  97  99
BRANCH  97 117
ATOM    117  O   UNL     1     149.599 166.745 194.685  0.00  0.00    -0.461 OA
BRANCH 117 118
ATOM    118  C   UNL     1     149.800 166.355 195.973  0.00  0.00    +0.304 C 
ATOM    119  O   UNL     1     150.874 166.031 196.460  0.00  0.00    -0.251 OA
BRANCH 118 120
ATOM    120  C   UNL     1     148.509 166.400 196.728  0.00  0.00    +0.033 C 
ATOM    121  H   UNL     1     148.319 167.417 197.077  0.00  0.00    +0.034 HD
ATOM    122  H   UNL     1     147.692 166.055 196.089  0.00  0.00    +0.034 HD
ATOM    123  H   UNL     1     148.574 165.737 197.596  0.00  0.00    +0.034 HD
ENDBRANCH 118 120
ENDBRANCH 117 118
ENDBRANCH  97 117
ENDBRANCH  91  97
ENDBRANCH  89  91
BRANCH  89 124
ATOM    124  O   UNL     1     148.027 164.581 190.816  0.00  0.00    -0.460 OA
BRANCH 124 125
ATOM    125  C   UNL     1     148.043 165.013 189.527  0.00  0.00    +0.324 C 
ATOM    126  O   UNL     1     148.291 166.173 189.207  0.00  0.00    -0.249 OA
BRANCH 125 127
ATOM    127  C   UNL     1     147.823 163.892 188.493  0.00  0.00    +0.105 C 
ATOM    128  H   UNL     1     147.201 164.340 187.705  0.00  0.00    +0.058 HD
BRANCH 127 129
ATOM    129  C   UNL     1     146.978 162.777 189.124  0.00  0.00    -0.039 C 
ATOM    130  H   UNL     1     147.611 162.002 189.573  0.00  0.00    +0.025 HD
ATOM    131  H   UNL     1     146.300 163.163 189.892  0.00  0.00    +0.025 HD
ATOM    132  H   UNL     1     146.358 162.289 188.362  0.00  0.00    +0.025 HD
ENDBRANCH 127 129
BRANCH 127 133
ATOM    133  N   UNL     1     149.021 163.309 187.832  0.00  0.00    -0.296 NA
BRANCH 133 134
ATOM    134  C   UNL     1     149.287 163.802 186.487  0.00  0.00    -0.012 C 
ATOM    135  H   UNL     1     149.554 164.864 186.482  0.00  0.00    +0.039 HD
ATOM    136  H   UNL     1     148.443 163.654 185.810  0.00  0.00    +0.039 HD
ATOM    137  H   UNL     1     150.149 163.275 186.057  0.00  0.00    +0.039 HD
ENDBRANCH 133 134
BRANCH 133 138
ATOM    138  C   UNL     1     149.078 161.854 187.896  0.00  0.00    -0.012 C 
ATOM    139  H   UNL     1     149.080 161.505 188.934  0.00  0.00    +0.039 HD
ATOM    140  H   UNL     1     150.014 161.495 187.451  0.00  0.00    +0.039 HD
ATOM    141  H   UNL     1     148.255 161.363 187.369  0.00  0.00    +0.039 HD
ENDBRANCH 133 138
ENDBRANCH 127 133
ENDBRANCH 125 127
ENDBRANCH 124 125
ENDBRANCH  89 124
ENDBRANCH  86  89
ENDBRANCH  83  86
ENDBRANCH  77  83
ENDBRANCH  75  77
BRANCH  75 142
ATOM    142  O   UNL     1     152.727 163.227 187.720  0.00  0.00    -0.391 OA
ATOM    143  H   UNL     1     151.980 163.376 187.117  0.00  0.00    +0.210 HD
ENDBRANCH  75 142
ENDBRANCH  69  75
ENDBRANCH  14  69
BRANCH  25 144
ATOM    144  O   UNL     1     158.735 168.346 182.279  0.00  0.00    -0.391 OA
ATOM    145  H   UNL     1     158.021 168.907 181.929  0.00  0.00    +0.210 HD
ENDBRANCH  25 144
BRANCH  23 146
ATOM    146  O   UNL     1     157.265 171.707 184.582  0.00  0.00    -0.460 OA
BRANCH 146 147
ATOM    147  C   UNL     1     156.638 172.834 184.152  0.00  0.00    +0.327 C 
ATOM    148  O   UNL     1     155.689 173.352 184.738  0.00  0.00    -0.249 OA
BRANCH 147 149
ATOM    149  C   UNL     1     157.241 173.421 182.863  0.00  0.00    +0.131 C 
ATOM    150  H   UNL     1     157.664 172.545 182.351  0.00  0.00    +0.060 HD
BRANCH 149 151
ATOM    151  C   UNL     1     158.407 174.349 183.276  0.00  0.00    +0.073 C 
ATOM    152  H   UNL     1     158.395 175.278 182.693  0.00  0.00    +0.058 HD
ATOM    153  H   UNL     1     158.301 174.629 184.331  0.00  0.00    +0.058 HD
BRANCH 151 154
ATOM    154  O   UNL     1     159.666 173.686 183.119  0.00  0.00    -0.381 OA
BRANCH 154 155
ATOM    155  C   UNL     1     159.838 173.189 181.798  0.00  0.00    +0.037 C 
ATOM    156  H   UNL     1     160.897 173.015 181.585  0.00  0.00    +0.052 HD
ATOM    157  H   UNL     1     159.417 173.890 181.072  0.00  0.00    +0.052 HD
ATOM    158  H   UNL     1     159.305 172.239 181.716  0.00  0.00    +0.052 HD
ENDBRANCH 154 155
ENDBRANCH 151 154
ENDBRANCH 149 151
BRANCH 149 159
ATOM    159  N   UNL     1     156.192 173.990 181.956  0.00  0.00    -0.294 NA
BRANCH 159 160
ATOM    160  C   UNL     1     155.724 172.997 180.990  0.00  0.00    -0.012 C 
ATOM    161  H   UNL     1     156.050 171.980 181.226  0.00  0.00    +0.039 HD
ATOM    162  H   UNL     1     156.084 173.243 179.984  0.00  0.00    +0.039 HD
ATOM    163  H   UNL     1     154.631 173.005 180.930  0.00  0.00    +0.039 HD
ENDBRANCH 159 160
BRANCH 159 164
ATOM    164  C   UNL     1     156.604 175.212 181.272  0.00  0.00    -0.012 C 
ATOM    165  H   UNL     1     157.130 174.964 180.342  0.00  0.00    +0.039 HD
ATOM    166  H   UNL     1     157.276 175.828 181.877  0.00  0.00    +0.039 HD
ATOM    167  H   UNL     1     155.740 175.820 180.987  0.00  0.00    +0.039 HD
ENDBRANCH 159 164
ENDBRANCH 149 159
ENDBRANCH 147 149
ENDBRANCH 146 147
ENDBRANCH  23 146
BRANCH   4 168
ATOM    168  O   UNL     1     158.534 164.142 183.787  0.00  0.00    -0.376 OA
BRANCH 168 169
ATOM    169  C   UNL     1     157.897 163.469 182.707  0.00  0.00    +0.037 C 
ATOM    170  H   UNL     1     158.284 163.833 181.751  0.00  0.00    +0.052 HD
ATOM    171  H   UNL     1     158.031 162.386 182.778  0.00  0.00    +0.052 HD
ATOM    172  H   UNL     1     156.827 163.688 182.753  0.00  0.00    +0.052 HD
ENDBRANCH 168 169
ENDBRANCH   4 168
BRANCH  10 173
ATOM    173  O   UNL     1     159.931 161.374 189.483  0.00  0.00    -0.376 OA
BRANCH 173 174
ATOM    174  C   UNL     1     159.967 161.712 190.865  0.00  0.00    +0.037 C 
ATOM    175  H   UNL     1     159.042 161.354 191.326  0.00  0.00    +0.052 HD
ATOM    176  H   UNL     1     160.811 161.228 191.363  0.00  0.00    +0.052 HD
ATOM    177  H   UNL     1     160.021 162.796 190.995  0.00  0.00    +0.052 HD
ENDBRANCH 173 174
ENDBRANCH  10 173
TORSDOF 45
ENDMDL
MODEL 9
REMARK VINA RESULT:      -5.3      5.038      9.118
REMARK  Name = Aplyronine A_conf2
REMARK  45 active torsions:
REMARK  status: ('A' for Active; 'I' for Inactive)
REMARK    1  A    between atoms: C_1  and  C_2
REMARK    2  A    between atoms: C_5  and  O_75
REMARK    3  A    between atoms: C_6  and  C_74
REMARK    4  A    between atoms: C_9  and  C_73
REMARK    5  A    between atoms: C_11  and  O_71
REMARK    6  A    between atoms: C_15  and  C_39
REMARK    7  A    between atoms: C_24  and  O_29
REMARK    8  A    between atoms: C_25  and  C_28
REMARK    9  A    between atoms: C_26  and  O_27
REMARK   10  A    between atoms: O_29  and  C_30
REMARK   11  A    between atoms: C_30  and  C_32
REMARK   12  A    between atoms: C_32  and  C_33
REMARK   13  A    between atoms: C_32  and  N_36
REMARK   14  A    between atoms: C_33  and  O_34
REMARK   15  A    between atoms: O_34  and  C_35
REMARK   16  A    between atoms: N_36  and  C_37
REMARK   17  A    between atoms: N_36  and  C_38
REMARK   18  A    between atoms: C_39  and  C_40
REMARK   19  A    between atoms: C_39  and  C_41
REMARK   20  A    between atoms: C_41  and  C_42
REMARK   21  A    between atoms: C_41  and  O_70
REMARK   22  A    between atoms: C_42  and  C_43
REMARK   23  A    between atoms: C_42  and  C_44
REMARK   24  A    between atoms: C_44  and  C_45
REMARK   25  A    between atoms: C_45  and  C_46
REMARK   26  A    between atoms: C_46  and  C_47
REMARK   27  A    between atoms: C_46  and  O_62
REMARK   28  A    between atoms: C_47  and  C_48
REMARK   29  A    between atoms: C_47  and  C_49
REMARK   30  A    between atoms: C_49  and  C_50
REMARK   31  A    between atoms: C_49  and  O_58
REMARK   32  A    between atoms: C_50  and  C_51
REMARK   33  A    between atoms: C_50  and  C_52
REMARK   34  A    between atoms: C_53  and  N_54
REMARK   35  A    between atoms: N_54  and  C_55
REMARK   36  A    between atoms: O_58  and  C_59
REMARK   37  A    between atoms: C_59  and  C_61
REMARK   38  A    between atoms: O_62  and  C_63
REMARK   39  A    between atoms: C_63  and  C_65
REMARK   40  A    between atoms: C_65  and  C_66
REMARK   41  A    between atoms: C_65  and  N_67
REMARK   42  A    between atoms: N_67  and  C_68
REMARK   43  A    between atoms: N_67  and  C_69
REMARK   44  A    between atoms: O_71  and  C_72
REMARK   45  A    between atoms: O_75  and  C_76
REMARK                            x       y       z     vdW  Elec       q    Type
REMARK                         _______ _______ _______ _____ _____    ______ ____
ROOT
ATOM      1  C   UNL     1     151.617 159.201 190.047  0.00  0.00    -0.017 C 
ATOM      2  C   UNL     1     152.484 160.445 190.361  0.00  0.00    -0.045 C 
ATOM      3  C   UNL     1     152.036 161.719 189.633  0.00  0.00    -0.022 C 
ATOM      4  C   UNL     1     152.833 162.976 190.040  0.00  0.00    +0.079 C 
ATOM      5  C   UNL     1     154.122 163.140 189.226  0.00  0.00    -0.048 C 
ATOM      6  C   UNL     1     154.134 163.858 188.082  0.00  0.00    -0.082 C 
ATOM      7  C   UNL     1     155.277 164.175 187.155  0.00  0.00    -0.032 C 
ATOM      8  C   UNL     1     155.178 163.514 185.762  0.00  0.00    -0.038 C 
ATOM      9  C   UNL     1     153.827 163.720 185.036  0.00  0.00    -0.020 C 
ATOM     10  C   UNL     1     153.394 165.190 184.895  0.00  0.00    +0.077 C 
ATOM     11  C   UNL     1     152.019 165.265 184.277  0.00  0.00    -0.059 C 
ATOM     12  C   UNL     1     150.895 165.181 185.010  0.00  0.00    -0.082 C 
ATOM     13  C   UNL     1     149.492 165.279 184.468  0.00  0.00    +0.003 C 
ATOM     14  C   UNL     1     148.576 166.145 185.368  0.00  0.00    +0.112 C 
ATOM     15  O   UNL     1     148.298 165.379 186.570  0.00  0.00    -0.458 OA
ATOM     16  C   UNL     1     148.896 165.744 187.725  0.00  0.00    +0.332 C 
ATOM     17  O   UNL     1     149.582 166.736 187.909  0.00  0.00    -0.246 OA
ATOM     18  C   UNL     1     148.675 164.727 188.777  0.00  0.00    +0.022 C 
ATOM     19  C   UNL     1     147.895 163.644 188.639  0.00  0.00    -0.055 C 
ATOM     20  C   UNL     1     147.795 162.626 189.661  0.00  0.00    -0.065 C 
ATOM     21  C   UNL     1     147.061 161.512 189.519  0.00  0.00    -0.081 C 
ATOM     22  C   UNL     1     147.042 160.400 190.535  0.00  0.00    +0.003 C 
ATOM     23  C   UNL     1     147.610 159.038 190.062  0.00  0.00    +0.111 C 
ATOM     24  C   UNL     1     149.061 158.970 189.488  0.00  0.00    +0.020 C 
ATOM     25  C   UNL     1     150.147 159.227 190.575  0.00  0.00    +0.064 C 
ATOM     26  H   UNL     1     151.624 159.065 188.961  0.00  0.00    +0.032 HD
ATOM     27  H   UNL     1     152.503 160.620 191.444  0.00  0.00    +0.027 HD
ATOM     28  H   UNL     1     153.516 160.223 190.069  0.00  0.00    +0.027 HD
ATOM     29  H   UNL     1     152.098 161.565 188.547  0.00  0.00    +0.029 HD
ATOM     30  H   UNL     1     150.979 161.913 189.834  0.00  0.00    +0.029 HD
ATOM     31  H   UNL     1     153.058 162.936 191.114  0.00  0.00    +0.064 HD
ATOM     32  H   UNL     1     153.186 164.298 187.770  0.00  0.00    +0.057 HD
ATOM     33  H   UNL     1     155.310 165.265 187.034  0.00  0.00    +0.031 HD
ATOM     34  H   UNL     1     156.242 163.916 187.602  0.00  0.00    +0.031 HD
ATOM     35  H   UNL     1     155.967 163.960 185.140  0.00  0.00    +0.030 HD
ATOM     36  H   UNL     1     153.047 163.150 185.558  0.00  0.00    +0.030 HD
ATOM     37  H   UNL     1     153.916 163.279 184.034  0.00  0.00    +0.030 HD
ATOM     38  H   UNL     1     153.376 165.674 185.878  0.00  0.00    +0.064 HD
ATOM     39  H   UNL     1     151.969 165.393 183.199  0.00  0.00    +0.059 HD
ATOM     40  H   UNL     1     150.993 165.018 186.083  0.00  0.00    +0.057 HD
ATOM     41  H   UNL     1     149.520 165.697 183.454  0.00  0.00    +0.034 HD
ATOM     42  H   UNL     1     149.095 164.258 184.405  0.00  0.00    +0.034 HD
ATOM     43  H   UNL     1     149.104 167.077 185.604  0.00  0.00    +0.074 HD
ATOM     44  H   UNL     1     149.246 164.902 189.681  0.00  0.00    +0.069 HD
ATOM     45  H   UNL     1     147.339 163.474 187.721  0.00  0.00    +0.062 HD
ATOM     46  H   UNL     1     148.405 162.754 190.556  0.00  0.00    +0.061 HD
ATOM     47  H   UNL     1     146.465 161.348 188.623  0.00  0.00    +0.057 HD
ATOM     48  H   UNL     1     147.534 160.714 191.461  0.00  0.00    +0.034 HD
ATOM     49  H   UNL     1     145.987 160.251 190.805  0.00  0.00    +0.034 HD
ATOM     50  H   UNL     1     147.566 158.381 190.943  0.00  0.00    +0.074 HD
ATOM     51  H   UNL     1     149.212 157.931 189.164  0.00  0.00    +0.036 HD
ATOM     52  H   UNL     1     150.022 158.423 191.312  0.00  0.00    +0.060 HD
ENDROOT
BRANCH   1  53
ATOM     53  C   UNL     1     152.323 157.949 190.601  0.00  0.00    -0.060 C 
ATOM     54  H   UNL     1     152.655 157.290 189.792  0.00  0.00    +0.023 HD
ATOM     55  H   UNL     1     153.197 158.227 191.200  0.00  0.00    +0.023 HD
ATOM     56  H   UNL     1     151.649 157.379 191.250  0.00  0.00    +0.023 HD
ENDBRANCH   1  53
BRANCH   5  57
ATOM     57  C   UNL     1     155.342 162.484 189.816  0.00  0.00    -0.041 C 
ATOM     58  H   UNL     1     156.008 162.129 189.021  0.00  0.00    +0.028 HD
ATOM     59  H   UNL     1     155.894 163.192 190.439  0.00  0.00    +0.028 HD
ATOM     60  H   UNL     1     155.108 161.617 190.432  0.00  0.00    +0.028 HD
ENDBRANCH   5  57
BRANCH  24  61
ATOM     61  C   UNL     1     149.237 159.784 188.198  0.00  0.00    -0.057 C 
ATOM     62  H   UNL     1     148.669 160.719 188.247  0.00  0.00    +0.023 HD
ATOM     63  H   UNL     1     148.889 159.245 187.316  0.00  0.00    +0.023 HD
ATOM     64  H   UNL     1     150.279 160.078 188.041  0.00  0.00    +0.023 HD
ENDBRANCH  24  61
BRANCH   8  65
ATOM     65  C   UNL     1     155.478 162.012 185.859  0.00  0.00    -0.062 C 
ATOM     66  H   UNL     1     155.007 161.467 185.033  0.00  0.00    +0.023 HD
ATOM     67  H   UNL     1     156.554 161.814 185.829  0.00  0.00    +0.023 HD
ATOM     68  H   UNL     1     155.086 161.600 186.794  0.00  0.00    +0.023 HD
ENDBRANCH   8  65
BRANCH  14  69
ATOM     69  C   UNL     1     147.208 166.456 184.672  0.00  0.00    +0.020 C 
ATOM     70  H   UNL     1     147.435 166.906 183.696  0.00  0.00    +0.036 HD
BRANCH  69  71
ATOM     71  C   UNL     1     146.412 165.166 184.440  0.00  0.00    -0.057 C 
ATOM     72  H   UNL     1     145.419 165.205 184.889  0.00  0.00    +0.023 HD
ATOM     73  H   UNL     1     146.929 164.293 184.850  0.00  0.00    +0.023 HD
ATOM     74  H   UNL     1     146.257 164.988 183.370  0.00  0.00    +0.023 HD
ENDBRANCH  69  71
BRANCH  69  75
ATOM     75  C   UNL     1     146.447 167.527 185.503  0.00  0.00    +0.064 C 
ATOM     76  H   UNL     1     145.652 167.958 184.883  0.00  0.00    +0.060 HD
BRANCH  75  77
ATOM     77  C   UNL     1     147.239 168.689 186.168  0.00  0.00    -0.017 C 
ATOM     78  H   UNL     1     148.167 168.245 186.560  0.00  0.00    +0.032 HD
BRANCH  77  79
ATOM     79  C   UNL     1     147.707 169.768 185.183  0.00  0.00    -0.060 C 
ATOM     80  H   UNL     1     147.745 170.746 185.673  0.00  0.00    +0.023 HD
ATOM     81  H   UNL     1     148.717 169.560 184.817  0.00  0.00    +0.023 HD
ATOM     82  H   UNL     1     147.044 169.867 184.322  0.00  0.00    +0.023 HD
ENDBRANCH  77  79
BRANCH  77  83
ATOM     83  C   UNL     1     146.497 169.234 187.408  0.00  0.00    -0.045 C 
ATOM     84  H   UNL     1     145.546 168.691 187.493  0.00  0.00    +0.027 HD
ATOM     85  H   UNL     1     146.240 170.285 187.267  0.00  0.00    +0.027 HD
BRANCH  83  86
ATOM     86  C   UNL     1     147.275 169.089 188.718  0.00  0.00    -0.015 C 
ATOM     87  H   UNL     1     148.340 168.933 188.501  0.00  0.00    +0.030 HD
ATOM     88  H   UNL     1     146.954 168.177 189.238  0.00  0.00    +0.030 HD
BRANCH  86  89
ATOM     89  C   UNL     1     147.107 170.258 189.711  0.00  0.00    +0.109 C 
ATOM     90  H   UNL     1     147.889 170.989 189.472  0.00  0.00    +0.074 HD
BRANCH  89  91
ATOM     91  C   UNL     1     147.242 169.908 191.218  0.00  0.00    +0.031 C 
ATOM     92  H   UNL     1     146.236 169.968 191.650  0.00  0.00    +0.037 HD
BRANCH  91  93
ATOM     93  C   UNL     1     148.146 170.904 191.959  0.00  0.00    -0.056 C 
ATOM     94  H   UNL     1     149.112 171.014 191.455  0.00  0.00    +0.023 HD
ATOM     95  H   UNL     1     148.340 170.579 192.986  0.00  0.00    +0.023 HD
ATOM     96  H   UNL     1     147.693 171.897 192.027  0.00  0.00    +0.023 HD
ENDBRANCH  91  93
BRANCH  91  97
ATOM     97  C   UNL     1     147.773 168.451 191.418  0.00  0.00    +0.115 C 
ATOM     98  H   UNL     1     147.831 167.985 190.426  0.00  0.00    +0.074 HD
BRANCH  97  99
ATOM     99  C   UNL     1     149.191 168.382 192.060  0.00  0.00    +0.013 C 
ATOM    100  H   UNL     1     149.401 169.334 192.558  0.00  0.00    +0.038 HD
BRANCH  99 101
ATOM    101  C   UNL     1     150.277 168.209 190.988  0.00  0.00    -0.056 C 
ATOM    102  H   UNL     1     150.069 167.364 190.321  0.00  0.00    +0.024 HD
ATOM    103  H   UNL     1     151.255 168.028 191.453  0.00  0.00    +0.024 HD
ATOM    104  H   UNL     1     150.365 169.113 190.377  0.00  0.00    +0.024 HD
ENDBRANCH  99 101
BRANCH  99 105
ATOM    105  C   UNL     1     149.320 167.244 193.057  0.00  0.00    -0.064 C 
ATOM    106  C   UNL     1     150.460 166.927 193.684  0.00  0.00    -0.005 C 
ATOM    107  H   UNL     1     148.407 166.680 193.220  0.00  0.00    +0.059 HD
ATOM    108  H   UNL     1     151.351 167.523 193.485  0.00  0.00    +0.078 HD
BRANCH 106 109
ATOM    109  N   UNL     1     150.657 165.896 194.590  0.00  0.00    -0.284 N 
ATOM    110  C   UNL     1     150.857 166.048 195.957  0.00  0.00    +0.206 C 
ATOM    111  O   UNL     1     151.045 165.144 196.765  0.00  0.00    -0.279 OA
ATOM    112  H   UNL     1     150.829 167.092 196.299  0.00  0.00    +0.126 HD
BRANCH 109 113
ATOM    113  C   UNL     1     150.682 164.539 194.056  0.00  0.00    +0.007 C 
ATOM    114  H   UNL     1     151.303 164.456 193.162  0.00  0.00    +0.043 HD
ATOM    115  H   UNL     1     151.073 163.858 194.818  0.00  0.00    +0.043 HD
ATOM    116  H   UNL     1     149.655 164.261 193.804  0.00  0.00    +0.043 HD
ENDBRANCH 109 113
ENDBRANCH 106 109
ENDBRANCH  99 105
ENDBRANCH  97  99
BRANCH  97 117
ATOM    117  O   UNL     1     146.856 167.720 192.267  0.00  0.00    -0.461 OA
BRANCH 117 118
ATOM    118  C   UNL     1     145.768 167.152 191.678  0.00  0.00    +0.304 C 
ATOM    119  O   UNL     1     144.657 167.655 191.598  0.00  0.00    -0.251 OA
BRANCH 118 120
ATOM    120  C   UNL     1     146.133 165.815 191.113  0.00  0.00    +0.033 C 
ATOM    121  H   UNL     1     145.426 165.060 191.462  0.00  0.00    +0.034 HD
ATOM    122  H   UNL     1     146.136 165.861 190.020  0.00  0.00    +0.034 HD
ATOM    123  H   UNL     1     147.136 165.541 191.451  0.00  0.00    +0.034 HD
ENDBRANCH 118 120
ENDBRANCH 117 118
ENDBRANCH  97 117
ENDBRANCH  91  97
ENDBRANCH  89  91
BRANCH  89 124
ATOM    124  O   UNL     1     145.790 170.806 189.468  0.00  0.00    -0.460 OA
BRANCH 124 125
ATOM    125  C   UNL     1     145.617 172.139 189.668  0.00  0.00    +0.324 C 
ATOM    126  O   UNL     1     146.504 172.970 189.484  0.00  0.00    -0.249 OA
BRANCH 125 127
ATOM    127  C   UNL     1     144.176 172.530 190.047  0.00  0.00    +0.105 C 
ATOM    128  H   UNL     1     143.897 173.331 189.348  0.00  0.00    +0.058 HD
BRANCH 127 129
ATOM    129  C   UNL     1     144.174 173.164 191.446  0.00  0.00    -0.039 C 
ATOM    130  H   UNL     1     144.826 172.613 192.135  0.00  0.00    +0.025 HD
ATOM    131  H   UNL     1     144.496 174.210 191.421  0.00  0.00    +0.025 HD
ATOM    132  H   UNL     1     143.163 173.148 191.872  0.00  0.00    +0.025 HD
ENDBRANCH 127 129
BRANCH 127 133
ATOM    133  N   UNL     1     143.124 171.483 189.963  0.00  0.00    -0.296 NA
BRANCH 133 134
ATOM    134  C   UNL     1     141.972 171.828 189.141  0.00  0.00    -0.012 C 
ATOM    135  H   UNL     1     141.310 172.544 189.640  0.00  0.00    +0.039 HD
ATOM    136  H   UNL     1     141.382 170.955 188.854  0.00  0.00    +0.039 HD
ATOM    137  H   UNL     1     142.301 172.320 188.217  0.00  0.00    +0.039 HD
ENDBRANCH 133 134
BRANCH 133 138
ATOM    138  C   UNL     1     142.723 170.946 191.258  0.00  0.00    -0.012 C 
ATOM    139  H   UNL     1     142.491 171.751 191.963  0.00  0.00    +0.039 HD
ATOM    140  H   UNL     1     143.549 170.379 191.702  0.00  0.00    +0.039 HD
ATOM    141  H   UNL     1     141.859 170.278 191.202  0.00  0.00    +0.039 HD
ENDBRANCH 133 138
ENDBRANCH 127 133
ENDBRANCH 125 127
ENDBRANCH 124 125
ENDBRANCH  89 124
ENDBRANCH  86  89
ENDBRANCH  83  86
ENDBRANCH  77  83
ENDBRANCH  75  77
BRANCH  75 142
ATOM    142  O   UNL     1     145.769 166.834 186.568  0.00  0.00    -0.391 OA
ATOM    143  H   UNL     1     146.430 166.527 187.210  0.00  0.00    +0.210 HD
ENDBRANCH  75 142
ENDBRANCH  69  75
ENDBRANCH  14  69
BRANCH  25 144
ATOM    144  O   UNL     1     149.872 160.421 191.293  0.00  0.00    -0.391 OA
ATOM    145  H   UNL     1     150.651 160.625 191.840  0.00  0.00    +0.210 HD
ENDBRANCH  25 144
BRANCH  23 146
ATOM    146  O   UNL     1     146.663 158.529 189.083  0.00  0.00    -0.460 OA
BRANCH 146 147
ATOM    147  C   UNL     1     145.970 157.404 189.404  0.00  0.00    +0.327 C 
ATOM    148  O   UNL     1     145.092 157.365 190.262  0.00  0.00    -0.249 OA
BRANCH 147 149
ATOM    149  C   UNL     1     146.375 156.174 188.570  0.00  0.00    +0.131 C 
ATOM    150  H   UNL     1     145.413 155.737 188.266  0.00  0.00    +0.060 HD
BRANCH 149 151
ATOM    151  C   UNL     1     147.077 155.178 189.522  0.00  0.00    +0.073 C 
ATOM    152  H   UNL     1     148.007 154.800 189.079  0.00  0.00    +0.058 HD
ATOM    153  H   UNL     1     147.348 155.686 190.456  0.00  0.00    +0.058 HD
BRANCH 151 154
ATOM    154  O   UNL     1     146.210 154.087 189.849  0.00  0.00    -0.381 OA
BRANCH 154 155
ATOM    155  C   UNL     1     146.937 152.888 190.081  0.00  0.00    +0.037 C 
ATOM    156  H   UNL     1     147.873 153.098 190.607  0.00  0.00    +0.052 HD
ATOM    157  H   UNL     1     147.142 152.380 189.134  0.00  0.00    +0.052 HD
ATOM    158  H   UNL     1     146.326 152.230 190.704  0.00  0.00    +0.052 HD
ENDBRANCH 154 155
ENDBRANCH 151 154
ENDBRANCH 149 151
BRANCH 149 159
ATOM    159  N   UNL     1     147.097 156.555 187.313  0.00  0.00    -0.294 NA
BRANCH 159 160
ATOM    160  C   UNL     1     146.341 156.166 186.123  0.00  0.00    -0.012 C 
ATOM    161  H   UNL     1     145.666 155.323 186.299  0.00  0.00    +0.039 HD
ATOM    162  H   UNL     1     147.023 155.889 185.311  0.00  0.00    +0.039 HD
ATOM    163  H   UNL     1     145.752 157.009 185.749  0.00  0.00    +0.039 HD
ENDBRANCH 159 160
BRANCH 159 164
ATOM    164  C   UNL     1     148.463 156.044 187.239  0.00  0.00    -0.012 C 
ATOM    165  H   UNL     1     149.173 156.877 187.165  0.00  0.00    +0.039 HD
ATOM    166  H   UNL     1     148.623 155.395 186.373  0.00  0.00    +0.039 HD
ATOM    167  H   UNL     1     148.730 155.488 188.143  0.00  0.00    +0.039 HD
ENDBRANCH 159 164
ENDBRANCH 149 159
ENDBRANCH 147 149
ENDBRANCH 146 147
ENDBRANCH  23 146
BRANCH   4 168
ATOM    168  O   UNL     1     151.950 164.094 189.818  0.00  0.00    -0.376 OA
BRANCH 168 169
ATOM    169  C   UNL     1     152.088 165.119 190.796  0.00  0.00    +0.037 C 
ATOM    170  H   UNL     1     151.105 165.497 191.090  0.00  0.00    +0.052 HD
ATOM    171  H   UNL     1     152.632 164.760 191.674  0.00  0.00    +0.052 HD
ATOM    172  H   UNL     1     152.656 165.940 190.351  0.00  0.00    +0.052 HD
ENDBRANCH 168 169
ENDBRANCH   4 168
BRANCH  10 173
ATOM    173  O   UNL     1     154.331 165.861 184.050  0.00  0.00    -0.376 OA
BRANCH 173 174
ATOM    174  C   UNL     1     153.969 165.806 182.675  0.00  0.00    +0.037 C 
ATOM    175  H   UNL     1     154.404 166.675 182.174  0.00  0.00    +0.052 HD
ATOM    176  H   UNL     1     154.363 164.902 182.203  0.00  0.00    +0.052 HD
ATOM    177  H   UNL     1     152.882 165.850 182.561  0.00  0.00    +0.052 HD
ENDBRANCH 173 174
ENDBRANCH  10 173
TORSDOF 45
ENDMDL
MODEL 10
REMARK VINA RESULT:      -5.3      2.631     11.343
REMARK  Name = Aplyronine A_conf2
REMARK  45 active torsions:
REMARK  status: ('A' for Active; 'I' for Inactive)
REMARK    1  A    between atoms: C_1  and  C_2
REMARK    2  A    between atoms: C_5  and  O_75
REMARK    3  A    between atoms: C_6  and  C_74
REMARK    4  A    between atoms: C_9  and  C_73
REMARK    5  A    between atoms: C_11  and  O_71
REMARK    6  A    between atoms: C_15  and  C_39
REMARK    7  A    between atoms: C_24  and  O_29
REMARK    8  A    between atoms: C_25  and  C_28
REMARK    9  A    between atoms: C_26  and  O_27
REMARK   10  A    between atoms: O_29  and  C_30
REMARK   11  A    between atoms: C_30  and  C_32
REMARK   12  A    between atoms: C_32  and  C_33
REMARK   13  A    between atoms: C_32  and  N_36
REMARK   14  A    between atoms: C_33  and  O_34
REMARK   15  A    between atoms: O_34  and  C_35
REMARK   16  A    between atoms: N_36  and  C_37
REMARK   17  A    between atoms: N_36  and  C_38
REMARK   18  A    between atoms: C_39  and  C_40
REMARK   19  A    between atoms: C_39  and  C_41
REMARK   20  A    between atoms: C_41  and  C_42
REMARK   21  A    between atoms: C_41  and  O_70
REMARK   22  A    between atoms: C_42  and  C_43
REMARK   23  A    between atoms: C_42  and  C_44
REMARK   24  A    between atoms: C_44  and  C_45
REMARK   25  A    between atoms: C_45  and  C_46
REMARK   26  A    between atoms: C_46  and  C_47
REMARK   27  A    between atoms: C_46  and  O_62
REMARK   28  A    between atoms: C_47  and  C_48
REMARK   29  A    between atoms: C_47  and  C_49
REMARK   30  A    between atoms: C_49  and  C_50
REMARK   31  A    between atoms: C_49  and  O_58
REMARK   32  A    between atoms: C_50  and  C_51
REMARK   33  A    between atoms: C_50  and  C_52
REMARK   34  A    between atoms: C_53  and  N_54
REMARK   35  A    between atoms: N_54  and  C_55
REMARK   36  A    between atoms: O_58  and  C_59
REMARK   37  A    between atoms: C_59  and  C_61
REMARK   38  A    between atoms: O_62  and  C_63
REMARK   39  A    between atoms: C_63  and  C_65
REMARK   40  A    between atoms: C_65  and  C_66
REMARK   41  A    between atoms: C_65  and  N_67
REMARK   42  A    between atoms: N_67  and  C_68
REMARK   43  A    between atoms: N_67  and  C_69
REMARK   44  A    between atoms: O_71  and  C_72
REMARK   45  A    between atoms: O_75  and  C_76
REMARK                            x       y       z     vdW  Elec       q    Type
REMARK                         _______ _______ _______ _____ _____    ______ ____
ROOT
ATOM      1  C   UNL     1     151.653 165.829 187.876  0.00  0.00    -0.017 C 
ATOM      2  C   UNL     1     152.016 165.212 186.502  0.00  0.00    -0.045 C 
ATOM      3  C   UNL     1     152.734 163.859 186.595  0.00  0.00    -0.022 C 
ATOM      4  C   UNL     1     152.989 163.200 185.223  0.00  0.00    +0.079 C 
ATOM      5  C   UNL     1     154.291 163.682 184.575  0.00  0.00    -0.048 C 
ATOM      6  C   UNL     1     155.454 163.025 184.781  0.00  0.00    -0.082 C 
ATOM      7  C   UNL     1     156.826 163.296 184.225  0.00  0.00    -0.032 C 
ATOM      8  C   UNL     1     157.864 163.759 185.272  0.00  0.00    -0.038 C 
ATOM      9  C   UNL     1     157.965 162.866 186.532  0.00  0.00    -0.020 C 
ATOM     10  C   UNL     1     158.216 161.376 186.241  0.00  0.00    +0.077 C 
ATOM     11  C   UNL     1     158.183 160.588 187.528  0.00  0.00    -0.059 C 
ATOM     12  C   UNL     1     157.038 160.117 188.055  0.00  0.00    -0.082 C 
ATOM     13  C   UNL     1     156.931 159.298 189.315  0.00  0.00    +0.003 C 
ATOM     14  C   UNL     1     155.933 158.123 189.166  0.00  0.00    +0.112 C 
ATOM     15  O   UNL     1     154.596 158.688 189.153  0.00  0.00    -0.458 OA
ATOM     16  C   UNL     1     153.918 158.725 187.986  0.00  0.00    +0.332 C 
ATOM     17  O   UNL     1     154.264 158.228 186.926  0.00  0.00    -0.246 OA
ATOM     18  C   UNL     1     152.683 159.529 188.119  0.00  0.00    +0.022 C 
ATOM     19  C   UNL     1     152.236 160.058 189.268  0.00  0.00    -0.055 C 
ATOM     20  C   UNL     1     151.080 160.923 189.325  0.00  0.00    -0.065 C 
ATOM     21  C   UNL     1     150.651 161.502 190.457  0.00  0.00    -0.081 C 
ATOM     22  C   UNL     1     149.514 162.490 190.500  0.00  0.00    +0.003 C 
ATOM     23  C   UNL     1     149.882 163.932 190.933  0.00  0.00    +0.111 C 
ATOM     24  C   UNL     1     150.995 164.705 190.157  0.00  0.00    +0.020 C 
ATOM     25  C   UNL     1     150.564 165.079 188.708  0.00  0.00    +0.064 C 
ATOM     26  H   UNL     1     152.579 165.906 188.453  0.00  0.00    +0.032 HD
ATOM     27  H   UNL     1     151.111 165.114 185.890  0.00  0.00    +0.027 HD
ATOM     28  H   UNL     1     152.668 165.916 185.975  0.00  0.00    +0.027 HD
ATOM     29  H   UNL     1     153.681 163.980 187.140  0.00  0.00    +0.029 HD
ATOM     30  H   UNL     1     152.144 163.162 187.197  0.00  0.00    +0.029 HD
ATOM     31  H   UNL     1     152.135 163.391 184.561  0.00  0.00    +0.064 HD
ATOM     32  H   UNL     1     155.414 162.152 185.434  0.00  0.00    +0.057 HD
ATOM     33  H   UNL     1     157.180 162.371 183.754  0.00  0.00    +0.031 HD
ATOM     34  H   UNL     1     156.794 164.028 183.411  0.00  0.00    +0.031 HD
ATOM     35  H   UNL     1     158.844 163.752 184.775  0.00  0.00    +0.030 HD
ATOM     36  H   UNL     1     157.049 162.980 187.128  0.00  0.00    +0.030 HD
ATOM     37  H   UNL     1     158.787 163.251 187.149  0.00  0.00    +0.030 HD
ATOM     38  H   UNL     1     157.449 160.989 185.560  0.00  0.00    +0.064 HD
ATOM     39  H   UNL     1     159.135 160.409 188.022  0.00  0.00    +0.059 HD
ATOM     40  H   UNL     1     156.105 160.350 187.543  0.00  0.00    +0.057 HD
ATOM     41  H   UNL     1     157.923 158.913 189.585  0.00  0.00    +0.034 HD
ATOM     42  H   UNL     1     156.598 159.972 190.115  0.00  0.00    +0.034 HD
ATOM     43  H   UNL     1     156.152 157.600 188.228  0.00  0.00    +0.074 HD
ATOM     44  H   UNL     1     152.173 159.704 187.179  0.00  0.00    +0.069 HD
ATOM     45  H   UNL     1     152.767 159.885 190.201  0.00  0.00    +0.062 HD
ATOM     46  H   UNL     1     150.584 161.160 188.382  0.00  0.00    +0.061 HD
ATOM     47  H   UNL     1     151.146 161.305 191.406  0.00  0.00    +0.057 HD
ATOM     48  H   UNL     1     148.980 162.507 189.544  0.00  0.00    +0.034 HD
ATOM     49  H   UNL     1     148.791 162.093 191.226  0.00  0.00    +0.034 HD
ATOM     50  H   UNL     1     148.950 164.509 190.849  0.00  0.00    +0.074 HD
ATOM     51  H   UNL     1     151.122 165.663 190.681  0.00  0.00    +0.036 HD
ATOM     52  H   UNL     1     149.691 165.737 188.821  0.00  0.00    +0.060 HD
ENDROOT
BRANCH   1  53
ATOM     53  C   UNL     1     151.203 167.286 187.664  0.00  0.00    -0.060 C 
ATOM     54  H   UNL     1     150.788 167.432 186.662  0.00  0.00    +0.023 HD
ATOM     55  H   UNL     1     150.441 167.569 188.398  0.00  0.00    +0.023 HD
ATOM     56  H   UNL     1     152.047 167.975 187.787  0.00  0.00    +0.023 HD
ENDBRANCH   1  53
BRANCH   5  57
ATOM     57  C   UNL     1     154.159 164.890 183.687  0.00  0.00    -0.041 C 
ATOM     58  H   UNL     1     153.147 164.951 183.271  0.00  0.00    +0.028 HD
ATOM     59  H   UNL     1     154.357 165.804 184.252  0.00  0.00    +0.028 HD
ATOM     60  H   UNL     1     154.842 164.874 182.837  0.00  0.00    +0.028 HD
ENDBRANCH   5  57
BRANCH  24  61
ATOM     61  C   UNL     1     152.376 164.043 190.266  0.00  0.00    -0.057 C 
ATOM     62  H   UNL     1     152.427 163.390 191.143  0.00  0.00    +0.023 HD
ATOM     63  H   UNL     1     153.180 164.774 190.366  0.00  0.00    +0.023 HD
ATOM     64  H   UNL     1     152.589 163.403 189.405  0.00  0.00    +0.023 HD
ENDBRANCH  24  61
BRANCH   8  65
ATOM     65  C   UNL     1     157.588 165.207 185.697  0.00  0.00    -0.062 C 
ATOM     66  H   UNL     1     158.504 165.690 186.056  0.00  0.00    +0.023 HD
ATOM     67  H   UNL     1     157.191 165.801 184.869  0.00  0.00    +0.023 HD
ATOM     68  H   UNL     1     156.857 165.237 186.513  0.00  0.00    +0.023 HD
ENDBRANCH   8  65
BRANCH  14  69
ATOM     69  C   UNL     1     156.022 157.132 190.376  0.00  0.00    +0.020 C 
ATOM     70  H   UNL     1     155.154 157.326 191.020  0.00  0.00    +0.036 HD
BRANCH  69  71
ATOM     71  C   UNL     1     155.954 155.679 189.892  0.00  0.00    -0.057 C 
ATOM     72  H   UNL     1     155.164 155.523 189.157  0.00  0.00    +0.023 HD
ATOM     73  H   UNL     1     155.780 154.985 190.720  0.00  0.00    +0.023 HD
ATOM     74  H   UNL     1     156.890 155.384 189.403  0.00  0.00    +0.023 HD
ENDBRANCH  69  71
BRANCH  69  75
ATOM     75  C   UNL     1     157.293 157.462 191.210  0.00  0.00    +0.064 C 
ATOM     76  H   UNL     1     157.595 158.496 191.002  0.00  0.00    +0.060 HD
BRANCH  75  77
ATOM     77  C   UNL     1     158.546 156.549 191.091  0.00  0.00    -0.017 C 
ATOM     78  H   UNL     1     158.198 155.520 191.272  0.00  0.00    +0.032 HD
BRANCH  77  79
ATOM     79  C   UNL     1     159.160 156.511 189.686  0.00  0.00    -0.060 C 
ATOM     80  H   UNL     1     159.922 157.291 189.578  0.00  0.00    +0.023 HD
ATOM     81  H   UNL     1     159.658 155.556 189.495  0.00  0.00    +0.023 HD
ATOM     82  H   UNL     1     158.422 156.676 188.900  0.00  0.00    +0.023 HD
ENDBRANCH  77  79
BRANCH  77  83
ATOM     83  C   UNL     1     159.558 156.837 192.223  0.00  0.00    -0.045 C 
ATOM     84  H   UNL     1     159.938 155.872 192.583  0.00  0.00    +0.027 HD
ATOM     85  H   UNL     1     159.057 157.307 193.071  0.00  0.00    +0.027 HD
BRANCH  83  86
ATOM     86  C   UNL     1     160.738 157.714 191.800  0.00  0.00    -0.015 C 
ATOM     87  H   UNL     1     160.980 157.526 190.745  0.00  0.00    +0.030 HD
ATOM     88  H   UNL     1     161.637 157.417 192.355  0.00  0.00    +0.030 HD
BRANCH  86  89
ATOM     89  C   UNL     1     160.544 159.227 192.031  0.00  0.00    +0.109 C 
ATOM     90  H   UNL     1     161.527 159.635 192.299  0.00  0.00    +0.074 HD
BRANCH  89  91
ATOM     91  C   UNL     1     159.552 159.631 193.155  0.00  0.00    +0.031 C 
ATOM     92  H   UNL     1     159.011 158.722 193.445  0.00  0.00    +0.037 HD
BRANCH  91  93
ATOM     93  C   UNL     1     158.527 160.667 192.669  0.00  0.00    -0.056 C 
ATOM     94  H   UNL     1     157.719 160.799 193.397  0.00  0.00    +0.023 HD
ATOM     95  H   UNL     1     158.074 160.364 191.719  0.00  0.00    +0.023 HD
ATOM     96  H   UNL     1     158.982 161.646 192.499  0.00  0.00    +0.023 HD
ENDBRANCH  91  93
BRANCH  91  97
ATOM     97  C   UNL     1     160.306 160.173 194.412  0.00  0.00    +0.115 C 
ATOM     98  H   UNL     1     161.202 160.696 194.056  0.00  0.00    +0.074 HD
BRANCH  97  99
ATOM     99  C   UNL     1     159.472 161.180 195.260  0.00  0.00    +0.013 C 
ATOM    100  H   UNL     1     158.649 161.563 194.646  0.00  0.00    +0.038 HD
BRANCH  99 101
ATOM    101  C   UNL     1     160.314 162.401 195.658  0.00  0.00    -0.056 C 
ATOM    102  H   UNL     1     159.749 163.337 195.585  0.00  0.00    +0.024 HD
ATOM    103  H   UNL     1     161.193 162.494 195.006  0.00  0.00    +0.024 HD
ATOM    104  H   UNL     1     160.677 162.301 196.687  0.00  0.00    +0.024 HD
ENDBRANCH  99 101
BRANCH  99 105
ATOM    105  C   UNL     1     158.916 160.551 196.525  0.00  0.00    -0.064 C 
ATOM    106  C   UNL     1     159.176 161.002 197.759  0.00  0.00    -0.005 C 
ATOM    107  H   UNL     1     158.290 159.680 196.360  0.00  0.00    +0.059 HD
ATOM    108  H   UNL     1     159.813 161.881 197.872  0.00  0.00    +0.078 HD
BRANCH 106 109
ATOM    109  N   UNL     1     158.721 160.472 198.956  0.00  0.00    -0.284 N 
ATOM    110  C   UNL     1     158.341 159.151 199.163  0.00  0.00    +0.206 C 
ATOM    111  O   UNL     1     157.925 158.675 200.214  0.00  0.00    -0.279 OA
ATOM    112  H   UNL     1     158.449 158.511 198.276  0.00  0.00    +0.126 HD
BRANCH 109 113
ATOM    113  C   UNL     1     158.605 161.387 200.086  0.00  0.00    +0.007 C 
ATOM    114  H   UNL     1     159.272 161.120 200.907  0.00  0.00    +0.043 HD
ATOM    115  H   UNL     1     158.846 162.402 199.755  0.00  0.00    +0.043 HD
ATOM    116  H   UNL     1     157.571 161.350 200.440  0.00  0.00    +0.043 HD
ENDBRANCH 109 113
ENDBRANCH 106 109
ENDBRANCH  99 105
ENDBRANCH  97  99
BRANCH  97 117
ATOM    117  O   UNL     1     160.675 159.062 195.264  0.00  0.00    -0.461 OA
BRANCH 117 118
ATOM    118  C   UNL     1     161.969 158.990 195.680  0.00  0.00    +0.304 C 
ATOM    119  O   UNL     1     162.479 159.685 196.547  0.00  0.00    -0.251 OA
BRANCH 118 120
ATOM    120  C   UNL     1     162.687 157.910 194.933  0.00  0.00    +0.033 C 
ATOM    121  H   UNL     1     163.750 157.934 195.179  0.00  0.00    +0.034 HD
ATOM    122  H   UNL     1     162.257 156.936 195.183  0.00  0.00    +0.034 HD
ATOM    123  H   UNL     1     162.571 158.075 193.858  0.00  0.00    +0.034 HD
ENDBRANCH 118 120
ENDBRANCH 117 118
ENDBRANCH  97 117
ENDBRANCH  91  97
ENDBRANCH  89  91
BRANCH  89 124
ATOM    124  O   UNL     1     160.081 159.770 190.771  0.00  0.00    -0.460 OA
BRANCH 124 125
ATOM    125  C   UNL     1     160.990 160.412 189.991  0.00  0.00    +0.324 C 
ATOM    126  O   UNL     1     161.730 159.831 189.199  0.00  0.00    -0.249 OA
BRANCH 125 127
ATOM    127  C   UNL     1     160.941 161.947 190.112  0.00  0.00    +0.105 C 
ATOM    128  H   UNL     1     159.927 162.179 190.467  0.00  0.00    +0.058 HD
BRANCH 127 129
ATOM    129  C   UNL     1     161.058 162.569 188.714  0.00  0.00    -0.039 C 
ATOM    130  H   UNL     1     162.092 162.546 188.351  0.00  0.00    +0.025 HD
ATOM    131  H   UNL     1     160.420 162.060 187.984  0.00  0.00    +0.025 HD
ATOM    132  H   UNL     1     160.746 163.621 188.735  0.00  0.00    +0.025 HD
ENDBRANCH 127 129
BRANCH 127 133
ATOM    133  N   UNL     1     161.897 162.604 191.041  0.00  0.00    -0.296 NA
BRANCH 133 134
ATOM    134  C   UNL     1     161.303 163.156 192.252  0.00  0.00    -0.012 C 
ATOM    135  H   UNL     1     160.329 162.707 192.474  0.00  0.00    +0.039 HD
ATOM    136  H   UNL     1     161.181 164.240 192.205  0.00  0.00    +0.039 HD
ATOM    137  H   UNL     1     161.939 162.935 193.118  0.00  0.00    +0.039 HD
ENDBRANCH 133 134
BRANCH 133 138
ATOM    138  C   UNL     1     162.787 163.560 190.392  0.00  0.00    -0.012 C 
ATOM    139  H   UNL     1     163.701 163.070 190.040  0.00  0.00    +0.039 HD
ATOM    140  H   UNL     1     163.106 164.323 191.112  0.00  0.00    +0.039 HD
ATOM    141  H   UNL     1     162.326 164.077 189.547  0.00  0.00    +0.039 HD
ENDBRANCH 133 138
ENDBRANCH 127 133
ENDBRANCH 125 127
ENDBRANCH 124 125
ENDBRANCH  89 124
ENDBRANCH  86  89
ENDBRANCH  83  86
ENDBRANCH  77  83
ENDBRANCH  75  77
BRANCH  75 142
ATOM    142  O   UNL     1     156.906 157.446 192.596  0.00  0.00    -0.391 OA
ATOM    143  H   UNL     1     157.698 157.295 193.138  0.00  0.00    +0.210 HD
ENDBRANCH  75 142
ENDBRANCH  69  75
ENDBRANCH  14  69
BRANCH  25 144
ATOM    144  O   UNL     1     150.070 163.942 188.016  0.00  0.00    -0.391 OA
ATOM    145  H   UNL     1     150.313 163.152 188.530  0.00  0.00    +0.210 HD
ENDBRANCH  25 144
BRANCH  23 146
ATOM    146  O   UNL     1     150.225 163.849 192.344  0.00  0.00    -0.460 OA
BRANCH 146 147
ATOM    147  C   UNL     1     149.729 164.809 193.169  0.00  0.00    +0.327 C 
ATOM    148  O   UNL     1     148.531 164.954 193.405  0.00  0.00    -0.249 OA
BRANCH 147 149
ATOM    149  C   UNL     1     150.816 165.694 193.807  0.00  0.00    +0.131 C 
ATOM    150  H   UNL     1     151.637 164.992 194.010  0.00  0.00    +0.060 HD
BRANCH 149 151
ATOM    151  C   UNL     1     150.268 166.200 195.161  0.00  0.00    +0.073 C 
ATOM    152  H   UNL     1     150.162 167.292 195.158  0.00  0.00    +0.058 HD
ATOM    153  H   UNL     1     149.270 165.780 195.338  0.00  0.00    +0.058 HD
BRANCH 151 154
ATOM    154  O   UNL     1     151.117 165.792 196.240  0.00  0.00    -0.381 OA
BRANCH 154 155
ATOM    155  C   UNL     1     151.173 164.377 196.358  0.00  0.00    +0.037 C 
ATOM    156  H   UNL     1     150.481 164.025 197.128  0.00  0.00    +0.052 HD
ATOM    157  H   UNL     1     152.193 164.056 196.592  0.00  0.00    +0.052 HD
ATOM    158  H   UNL     1     150.881 163.939 195.399  0.00  0.00    +0.052 HD
ENDBRANCH 154 155
ENDBRANCH 151 154
ENDBRANCH 149 151
BRANCH 149 159
ATOM    159  N   UNL     1     151.345 166.717 192.848  0.00  0.00    -0.294 NA
BRANCH 159 160
ATOM    160  C   UNL     1     152.655 167.216 193.267  0.00  0.00    -0.012 C 
ATOM    161  H   UNL     1     153.472 166.527 193.035  0.00  0.00    +0.039 HD
ATOM    162  H   UNL     1     152.665 167.402 194.347  0.00  0.00    +0.039 HD
ATOM    163  H   UNL     1     152.868 168.178 192.792  0.00  0.00    +0.039 HD
ENDBRANCH 159 160
BRANCH 159 164
ATOM    164  C   UNL     1     150.430 167.829 192.608  0.00  0.00    -0.012 C 
ATOM    165  H   UNL     1     150.976 168.684 192.192  0.00  0.00    +0.039 HD
ATOM    166  H   UNL     1     149.931 168.169 193.522  0.00  0.00    +0.039 HD
ATOM    167  H   UNL     1     149.663 167.564 191.874  0.00  0.00    +0.039 HD
ENDBRANCH 159 164
ENDBRANCH 149 159
ENDBRANCH 147 149
ENDBRANCH 146 147
ENDBRANCH  23 146
BRANCH   4 168
ATOM    168  O   UNL     1     153.042 161.780 185.470  0.00  0.00    -0.376 OA
BRANCH 168 169
ATOM    169  C   UNL     1     152.174 161.032 184.626  0.00  0.00    +0.037 C 
ATOM    170  H   UNL     1     151.366 160.587 185.213  0.00  0.00    +0.052 HD
ATOM    171  H   UNL     1     151.760 161.655 183.829  0.00  0.00    +0.052 HD
ATOM    172  H   UNL     1     152.755 160.226 184.169  0.00  0.00    +0.052 HD
ENDBRANCH 168 169
ENDBRANCH   4 168
BRANCH  10 173
ATOM    173  O   UNL     1     159.504 161.242 185.636  0.00  0.00    -0.376 OA
BRANCH 173 174
ATOM    174  C   UNL     1     160.152 160.025 185.988  0.00  0.00    +0.037 C 
ATOM    175  H   UNL     1     159.415 159.219 185.929  0.00  0.00    +0.052 HD
ATOM    176  H   UNL     1     160.966 159.801 185.293  0.00  0.00    +0.052 HD
ATOM    177  H   UNL     1     160.531 160.073 187.012  0.00  0.00    +0.052 HD
ENDBRANCH 173 174
ENDBRANCH  10 173
TORSDOF 45
ENDMDL
