MODEL 1
REMARK VINA RESULT:      -4.8      0.000      0.000
REMARK  Name = Aplyronine A_conf3
REMARK  45 active torsions:
REMARK  status: ('A' for Active; 'I' for Inactive)
REMARK    1  A    between atoms: C_1  and  C_2
REMARK    2  A    between atoms: C_5  and  O_75
REMARK    3  A    between atoms: C_6  and  C_74
REMARK    4  A    between atoms: C_9  and  C_73
REMARK    5  A    between atoms: C_11  and  O_71
REMARK    6  A    between atoms: C_15  and  C_39
REMARK    7  A    between atoms: C_24  and  O_29
REMARK    8  A    between atoms: C_25  and  C_28
REMARK    9  A    between atoms: C_26  and  O_27
REMARK   10  A    between atoms: O_29  and  C_30
REMARK   11  A    between atoms: C_30  and  C_32
REMARK   12  A    between atoms: C_32  and  C_33
REMARK   13  A    between atoms: C_32  and  N_36
REMARK   14  A    between atoms: C_33  and  O_34
REMARK   15  A    between atoms: O_34  and  C_35
REMARK   16  A    between atoms: N_36  and  C_37
REMARK   17  A    between atoms: N_36  and  C_38
REMARK   18  A    between atoms: C_39  and  C_40
REMARK   19  A    between atoms: C_39  and  C_41
REMARK   20  A    between atoms: C_41  and  C_42
REMARK   21  A    between atoms: C_41  and  O_70
REMARK   22  A    between atoms: C_42  and  C_43
REMARK   23  A    between atoms: C_42  and  C_44
REMARK   24  A    between atoms: C_44  and  C_45
REMARK   25  A    between atoms: C_45  and  C_46
REMARK   26  A    between atoms: C_46  and  C_47
REMARK   27  A    between atoms: C_46  and  O_62
REMARK   28  A    between atoms: C_47  and  C_48
REMARK   29  A    between atoms: C_47  and  C_49
REMARK   30  A    between atoms: C_49  and  C_50
REMARK   31  A    between atoms: C_49  and  O_58
REMARK   32  A    between atoms: C_50  and  C_51
REMARK   33  A    between atoms: C_50  and  C_52
REMARK   34  A    between atoms: C_53  and  N_54
REMARK   35  A    between atoms: N_54  and  C_55
REMARK   36  A    between atoms: O_58  and  C_59
REMARK   37  A    between atoms: C_59  and  C_61
REMARK   38  A    between atoms: O_62  and  C_63
REMARK   39  A    between atoms: C_63  and  C_65
REMARK   40  A    between atoms: C_65  and  C_66
REMARK   41  A    between atoms: C_65  and  N_67
REMARK   42  A    between atoms: N_67  and  C_68
REMARK   43  A    between atoms: N_67  and  C_69
REMARK   44  A    between atoms: O_71  and  C_72
REMARK   45  A    between atoms: O_75  and  C_76
REMARK                            x       y       z     vdW  Elec       q    Type
REMARK                         _______ _______ _______ _____ _____    ______ ____
ROOT
ATOM      1  C   UNL     1     148.149 168.179 186.428  0.00  0.00    -0.017 C 
ATOM      2  C   UNL     1     148.189 167.000 185.430  0.00  0.00    -0.045 C 
ATOM      3  C   UNL     1     148.500 165.633 186.067  0.00  0.00    -0.022 C 
ATOM      4  C   UNL     1     149.717 164.882 185.467  0.00  0.00    +0.079 C 
ATOM      5  C   UNL     1     149.484 164.192 184.120  0.00  0.00    -0.048 C 
ATOM      6  C   UNL     1     149.807 162.887 183.979  0.00  0.00    -0.082 C 
ATOM      7  C   UNL     1     149.732 162.031 182.745  0.00  0.00    -0.032 C 
ATOM      8  C   UNL     1     148.408 161.261 182.553  0.00  0.00    -0.038 C 
ATOM      9  C   UNL     1     148.068 160.320 183.737  0.00  0.00    -0.020 C 
ATOM     10  C   UNL     1     147.296 161.016 184.871  0.00  0.00    +0.077 C 
ATOM     11  C   UNL     1     147.048 160.063 186.010  0.00  0.00    -0.059 C 
ATOM     12  C   UNL     1     147.778 160.003 187.136  0.00  0.00    -0.082 C 
ATOM     13  C   UNL     1     147.393 159.129 188.305  0.00  0.00    +0.003 C 
ATOM     14  C   UNL     1     147.405 159.842 189.679  0.00  0.00    +0.112 C 
ATOM     15  O   UNL     1     146.899 161.194 189.539  0.00  0.00    -0.458 OA
ATOM     16  C   UNL     1     145.586 161.389 189.283  0.00  0.00    +0.332 C 
ATOM     17  O   UNL     1     144.713 160.546 189.195  0.00  0.00    -0.246 OA
ATOM     18  C   UNL     1     145.433 162.843 189.110  0.00  0.00    +0.022 C 
ATOM     19  C   UNL     1     144.360 163.407 188.541  0.00  0.00    -0.055 C 
ATOM     20  C   UNL     1     144.321 164.839 188.378  0.00  0.00    -0.065 C 
ATOM     21  C   UNL     1     143.282 165.557 187.929  0.00  0.00    -0.081 C 
ATOM     22  C   UNL     1     143.204 167.071 187.866  0.00  0.00    +0.003 C 
ATOM     23  C   UNL     1     144.483 167.921 188.128  0.00  0.00    +0.111 C 
ATOM     24  C   UNL     1     145.531 167.833 186.964  0.00  0.00    +0.020 C 
ATOM     25  C   UNL     1     146.976 168.153 187.453  0.00  0.00    +0.064 C 
ATOM     26  H   UNL     1     149.068 168.117 187.031  0.00  0.00    +0.032 HD
ATOM     27  H   UNL     1     148.938 167.233 184.667  0.00  0.00    +0.027 HD
ATOM     28  H   UNL     1     147.240 166.932 184.890  0.00  0.00    +0.027 HD
ATOM     29  H   UNL     1     148.712 165.781 187.133  0.00  0.00    +0.029 HD
ATOM     30  H   UNL     1     147.611 164.993 186.019  0.00  0.00    +0.029 HD
ATOM     31  H   UNL     1     149.981 164.121 186.215  0.00  0.00    +0.064 HD
ATOM     32  H   UNL     1     150.214 162.358 184.844  0.00  0.00    +0.057 HD
ATOM     33  H   UNL     1     150.565 161.318 182.790  0.00  0.00    +0.031 HD
ATOM     34  H   UNL     1     149.936 162.637 181.853  0.00  0.00    +0.031 HD
ATOM     35  H   UNL     1     147.596 161.986 182.416  0.00  0.00    +0.030 HD
ATOM     36  H   UNL     1     148.989 159.863 184.122  0.00  0.00    +0.030 HD
ATOM     37  H   UNL     1     147.441 159.499 183.361  0.00  0.00    +0.030 HD
ATOM     38  H   UNL     1     147.838 161.892 185.235  0.00  0.00    +0.064 HD
ATOM     39  H   UNL     1     146.171 159.427 185.902  0.00  0.00    +0.059 HD
ATOM     40  H   UNL     1     148.662 160.626 187.254  0.00  0.00    +0.057 HD
ATOM     41  H   UNL     1     148.006 158.225 188.313  0.00  0.00    +0.034 HD
ATOM     42  H   UNL     1     146.367 158.771 188.138  0.00  0.00    +0.034 HD
ATOM     43  H   UNL     1     146.734 159.291 190.352  0.00  0.00    +0.074 HD
ATOM     44  H   UNL     1     146.266 163.447 189.459  0.00  0.00    +0.069 HD
ATOM     45  H   UNL     1     143.522 162.806 188.204  0.00  0.00    +0.062 HD
ATOM     46  H   UNL     1     145.227 165.344 188.703  0.00  0.00    +0.061 HD
ATOM     47  H   UNL     1     142.373 165.038 187.630  0.00  0.00    +0.057 HD
ATOM     48  H   UNL     1     142.779 167.343 186.894  0.00  0.00    +0.034 HD
ATOM     49  H   UNL     1     142.452 167.359 188.612  0.00  0.00    +0.034 HD
ATOM     50  H   UNL     1     144.185 168.974 188.225  0.00  0.00    +0.074 HD
ATOM     51  H   UNL     1     145.546 166.803 186.588  0.00  0.00    +0.036 HD
ATOM     52  H   UNL     1     147.236 167.362 188.167  0.00  0.00    +0.060 HD
ENDROOT
BRANCH   1  53
ATOM     53  C   UNL     1     148.300 169.509 185.670  0.00  0.00    -0.060 C 
ATOM     54  H   UNL     1     149.104 169.430 184.928  0.00  0.00    +0.023 HD
ATOM     55  H   UNL     1     148.579 170.325 186.341  0.00  0.00    +0.023 HD
ATOM     56  H   UNL     1     147.394 169.796 185.135  0.00  0.00    +0.023 HD
ENDBRANCH   1  53
BRANCH   5  57
ATOM     57  C   UNL     1     148.941 165.028 182.994  0.00  0.00    -0.041 C 
ATOM     58  H   UNL     1     147.848 165.044 183.021  0.00  0.00    +0.028 HD
ATOM     59  H   UNL     1     149.317 166.055 183.063  0.00  0.00    +0.028 HD
ATOM     60  H   UNL     1     149.217 164.656 182.004  0.00  0.00    +0.028 HD
ENDBRANCH   5  57
BRANCH  24  61
ATOM     61  C   UNL     1     145.061 168.731 185.810  0.00  0.00    -0.057 C 
ATOM     62  H   UNL     1     145.510 169.727 185.862  0.00  0.00    +0.023 HD
ATOM     63  H   UNL     1     145.324 168.302 184.840  0.00  0.00    +0.023 HD
ATOM     64  H   UNL     1     143.981 168.886 185.842  0.00  0.00    +0.023 HD
ENDBRANCH  24  61
BRANCH   8  65
ATOM     65  C   UNL     1     148.503 160.438 181.262  0.00  0.00    -0.062 C 
ATOM     66  H   UNL     1     147.677 159.724 181.184  0.00  0.00    +0.023 HD
ATOM     67  H   UNL     1     149.443 159.877 181.223  0.00  0.00    +0.023 HD
ATOM     68  H   UNL     1     148.472 161.091 180.382  0.00  0.00    +0.023 HD
ENDBRANCH   8  65
BRANCH  14  69
ATOM     69  C   UNL     1     148.785 159.989 190.408  0.00  0.00    +0.020 C 
ATOM     70  H   UNL     1     148.614 159.842 191.484  0.00  0.00    +0.036 HD
BRANCH  69  71
ATOM     71  C   UNL     1     149.685 158.829 189.927  0.00  0.00    -0.057 C 
ATOM     72  H   UNL     1     150.182 159.060 188.981  0.00  0.00    +0.023 HD
ATOM     73  H   UNL     1     149.103 157.910 189.797  0.00  0.00    +0.023 HD
ATOM     74  H   UNL     1     150.490 158.613 190.639  0.00  0.00    +0.023 HD
ENDBRANCH  69  71
BRANCH  69  75
ATOM     75  C   UNL     1     149.434 161.382 190.187  0.00  0.00    +0.064 C 
ATOM     76  H   UNL     1     148.821 161.924 189.454  0.00  0.00    +0.060 HD
BRANCH  75  77
ATOM     77  C   UNL     1     150.902 161.395 189.686  0.00  0.00    -0.017 C 
ATOM     78  H   UNL     1     151.234 160.352 189.619  0.00  0.00    +0.032 HD
BRANCH  77  79
ATOM     79  C   UNL     1     150.989 161.911 188.237  0.00  0.00    -0.060 C 
ATOM     80  H   UNL     1     150.904 162.998 188.165  0.00  0.00    +0.023 HD
ATOM     81  H   UNL     1     150.180 161.483 187.633  0.00  0.00    +0.023 HD
ATOM     82  H   UNL     1     151.937 161.612 187.776  0.00  0.00    +0.023 HD
ENDBRANCH  77  79
BRANCH  77  83
ATOM     83  C   UNL     1     151.923 162.115 190.605  0.00  0.00    -0.045 C 
ATOM     84  H   UNL     1     152.395 161.334 191.215  0.00  0.00    +0.027 HD
ATOM     85  H   UNL     1     151.389 162.763 191.309  0.00  0.00    +0.027 HD
BRANCH  83  86
ATOM     86  C   UNL     1     153.014 162.944 189.918  0.00  0.00    -0.015 C 
ATOM     87  H   UNL     1     153.118 162.634 188.874  0.00  0.00    +0.030 HD
ATOM     88  H   UNL     1     153.990 162.725 190.361  0.00  0.00    +0.030 HD
BRANCH  86  89
ATOM     89  C   UNL     1     152.778 164.467 190.019  0.00  0.00    +0.109 C 
ATOM     90  H   UNL     1     153.471 164.886 190.762  0.00  0.00    +0.074 HD
BRANCH  89  91
ATOM     91  C   UNL     1     151.347 164.949 190.413  0.00  0.00    +0.031 C 
ATOM     92  H   UNL     1     150.778 164.018 190.543  0.00  0.00    +0.037 HD
BRANCH  91  93
ATOM     93  C   UNL     1     150.697 165.712 189.254  0.00  0.00    -0.056 C 
ATOM     94  H   UNL     1     150.885 166.790 189.327  0.00  0.00    +0.023 HD
ATOM     95  H   UNL     1     149.614 165.558 189.222  0.00  0.00    +0.023 HD
ATOM     96  H   UNL     1     151.117 165.398 188.296  0.00  0.00    +0.023 HD
ENDBRANCH  91  93
BRANCH  91  97
ATOM     97  C   UNL     1     151.264 165.732 191.760  0.00  0.00    +0.115 C 
ATOM     98  H   UNL     1     151.919 165.225 192.482  0.00  0.00    +0.074 HD
BRANCH  97  99
ATOM     99  C   UNL     1     151.641 167.251 191.719  0.00  0.00    +0.013 C 
ATOM    100  H   UNL     1     152.059 167.445 190.721  0.00  0.00    +0.038 HD
BRANCH  99 101
ATOM    101  C   UNL     1     152.773 167.629 192.681  0.00  0.00    -0.056 C 
ATOM    102  H   UNL     1     152.524 167.331 193.706  0.00  0.00    +0.024 HD
ATOM    103  H   UNL     1     152.937 168.712 192.686  0.00  0.00    +0.024 HD
ATOM    104  H   UNL     1     153.716 167.139 192.422  0.00  0.00    +0.024 HD
ENDBRANCH  99 101
BRANCH  99 105
ATOM    105  C   UNL     1     150.458 168.184 191.893  0.00  0.00    -0.064 C 
ATOM    106  C   UNL     1     150.570 169.513 191.751  0.00  0.00    -0.005 C 
ATOM    107  H   UNL     1     149.519 167.725 192.177  0.00  0.00    +0.059 HD
ATOM    108  H   UNL     1     151.544 169.925 191.485  0.00  0.00    +0.078 HD
BRANCH 106 109
ATOM    109  N   UNL     1     149.574 170.467 191.894  0.00  0.00    -0.284 N 
ATOM    110  C   UNL     1     149.743 171.727 192.449  0.00  0.00    +0.206 C 
ATOM    111  O   UNL     1     148.869 172.575 192.605  0.00  0.00    -0.279 OA
ATOM    112  H   UNL     1     150.770 171.935 192.773  0.00  0.00    +0.126 HD
BRANCH 109 113
ATOM    113  C   UNL     1     148.234 170.093 191.448  0.00  0.00    +0.007 C 
ATOM    114  H   UNL     1     147.811 170.831 190.759  0.00  0.00    +0.043 HD
ATOM    115  H   UNL     1     148.280 169.125 190.936  0.00  0.00    +0.043 HD
ATOM    116  H   UNL     1     147.580 170.018 192.321  0.00  0.00    +0.043 HD
ENDBRANCH 109 113
ENDBRANCH 106 109
ENDBRANCH  99 105
ENDBRANCH  97  99
BRANCH  97 117
ATOM    117  O   UNL     1     149.896 165.647 192.241  0.00  0.00    -0.461 OA
BRANCH 117 118
ATOM    118  C   UNL     1     149.705 165.059 193.453  0.00  0.00    +0.304 C 
ATOM    119  O   UNL     1     148.630 164.930 194.022  0.00  0.00    -0.251 OA
BRANCH 118 120
ATOM    120  C   UNL     1     151.014 164.578 193.996  0.00  0.00    +0.033 C 
ATOM    121  H   UNL     1     151.261 165.143 194.900  0.00  0.00    +0.034 HD
ATOM    122  H   UNL     1     150.941 163.519 194.259  0.00  0.00    +0.034 HD
ATOM    123  H   UNL     1     151.803 164.738 193.256  0.00  0.00    +0.034 HD
ENDBRANCH 118 120
ENDBRANCH 117 118
ENDBRANCH  97 117
ENDBRANCH  91  97
ENDBRANCH  89  91
BRANCH  89 124
ATOM    124  O   UNL     1     153.111 165.067 188.740  0.00  0.00    -0.460 OA
BRANCH 124 125
ATOM    125  C   UNL     1     154.203 165.889 188.729  0.00  0.00    +0.324 C 
ATOM    126  O   UNL     1     154.234 167.010 189.225  0.00  0.00    -0.249 OA
BRANCH 125 127
ATOM    127  C   UNL     1     155.379 165.187 188.025  0.00  0.00    +0.105 C 
ATOM    128  H   UNL     1     154.982 164.367 187.413  0.00  0.00    +0.058 HD
BRANCH 127 129
ATOM    129  C   UNL     1     156.239 164.592 189.145  0.00  0.00    -0.039 C 
ATOM    130  H   UNL     1     156.327 165.283 189.990  0.00  0.00    +0.025 HD
ATOM    131  H   UNL     1     157.247 164.348 188.793  0.00  0.00    +0.025 HD
ATOM    132  H   UNL     1     155.795 163.666 189.529  0.00  0.00    +0.025 HD
ENDBRANCH 127 129
BRANCH 127 133
ATOM    133  N   UNL     1     156.118 166.142 187.150  0.00  0.00    -0.296 NA
BRANCH 133 134
ATOM    134  C   UNL     1     157.451 165.652 186.792  0.00  0.00    -0.012 C 
ATOM    135  H   UNL     1     157.943 166.344 186.101  0.00  0.00    +0.039 HD
ATOM    136  H   UNL     1     157.411 164.665 186.318  0.00  0.00    +0.039 HD
ATOM    137  H   UNL     1     158.102 165.596 187.670  0.00  0.00    +0.039 HD
ENDBRANCH 133 134
BRANCH 133 138
ATOM    138  C   UNL     1     155.364 166.427 185.922  0.00  0.00    -0.012 C 
ATOM    139  H   UNL     1     154.331 166.706 186.162  0.00  0.00    +0.039 HD
ATOM    140  H   UNL     1     155.814 167.243 185.346  0.00  0.00    +0.039 HD
ATOM    141  H   UNL     1     155.294 165.546 185.277  0.00  0.00    +0.039 HD
ENDBRANCH 133 138
ENDBRANCH 127 133
ENDBRANCH 125 127
ENDBRANCH 124 125
ENDBRANCH  89 124
ENDBRANCH  86  89
ENDBRANCH  83  86
ENDBRANCH  77  83
ENDBRANCH  75  77
BRANCH  75 142
ATOM    142  O   UNL     1     149.349 162.099 191.420  0.00  0.00    -0.391 OA
ATOM    143  H   UNL     1     150.137 161.889 191.947  0.00  0.00    +0.210 HD
ENDBRANCH  75 142
ENDBRANCH  69  75
ENDBRANCH  14  69
BRANCH  25 144
ATOM    144  O   UNL     1     146.986 169.364 188.216  0.00  0.00    -0.391 OA
ATOM    145  H   UNL     1     147.028 169.133 189.158  0.00  0.00    +0.210 HD
ENDBRANCH  25 144
BRANCH  23 146
ATOM    146  O   UNL     1     145.083 167.491 189.365  0.00  0.00    -0.460 OA
BRANCH 146 147
ATOM    147  C   UNL     1     144.763 168.157 190.503  0.00  0.00    +0.327 C 
ATOM    148  O   UNL     1     144.816 169.376 190.640  0.00  0.00    -0.249 OA
BRANCH 147 149
ATOM    149  C   UNL     1     144.245 167.203 191.590  0.00  0.00    +0.131 C 
ATOM    150  H   UNL     1     143.934 166.295 191.055  0.00  0.00    +0.060 HD
BRANCH 149 151
ATOM    151  C   UNL     1     142.954 167.807 192.197  0.00  0.00    +0.073 C 
ATOM    152  H   UNL     1     143.122 168.084 193.246  0.00  0.00    +0.058 HD
ATOM    153  H   UNL     1     142.692 168.719 191.645  0.00  0.00    +0.058 HD
BRANCH 151 154
ATOM    154  O   UNL     1     141.838 166.908 192.122  0.00  0.00    -0.381 OA
BRANCH 154 155
ATOM    155  C   UNL     1     142.152 165.762 191.342  0.00  0.00    +0.037 C 
ATOM    156  H   UNL     1     141.691 164.870 191.774  0.00  0.00    +0.052 HD
ATOM    157  H   UNL     1     141.820 165.900 190.309  0.00  0.00    +0.052 HD
ATOM    158  H   UNL     1     143.238 165.631 191.348  0.00  0.00    +0.052 HD
ENDBRANCH 154 155
ENDBRANCH 151 154
ENDBRANCH 149 151
BRANCH 149 159
ATOM    159  N   UNL     1     145.333 166.848 192.557  0.00  0.00    -0.294 NA
BRANCH 159 160
ATOM    160  C   UNL     1     146.371 166.031 191.920  0.00  0.00    -0.012 C 
ATOM    161  H   UNL     1     146.181 165.884 190.850  0.00  0.00    +0.039 HD
ATOM    162  H   UNL     1     146.430 165.043 192.393  0.00  0.00    +0.039 HD
ATOM    163  H   UNL     1     147.363 166.476 192.041  0.00  0.00    +0.039 HD
ENDBRANCH 159 160
BRANCH 159 164
ATOM    164  C   UNL     1     144.815 166.149 193.734  0.00  0.00    -0.012 C 
ATOM    165  H   UNL     1     144.224 166.831 194.359  0.00  0.00    +0.039 HD
ATOM    166  H   UNL     1     144.132 165.340 193.455  0.00  0.00    +0.039 HD
ATOM    167  H   UNL     1     145.617 165.731 194.352  0.00  0.00    +0.039 HD
ENDBRANCH 159 164
ENDBRANCH 149 159
ENDBRANCH 147 149
ENDBRANCH 146 147
ENDBRANCH  23 146
BRANCH   4 168
ATOM    168  O   UNL     1     150.815 165.805 185.381  0.00  0.00    -0.376 OA
BRANCH 168 169
ATOM    169  C   UNL     1     152.089 165.171 185.432  0.00  0.00    +0.037 C 
ATOM    170  H   UNL     1     152.826 165.864 185.019  0.00  0.00    +0.052 HD
ATOM    171  H   UNL     1     152.097 164.266 184.821  0.00  0.00    +0.052 HD
ATOM    172  H   UNL     1     152.370 164.940 186.461  0.00  0.00    +0.052 HD
ENDBRANCH 168 169
ENDBRANCH   4 168
BRANCH  10 173
ATOM    173  O   UNL     1     146.031 161.430 184.333  0.00  0.00    -0.376 OA
BRANCH 173 174
ATOM    174  C   UNL     1     145.462 162.531 185.026  0.00  0.00    +0.037 C 
ATOM    175  H   UNL     1     146.108 163.408 184.949  0.00  0.00    +0.052 HD
ATOM    176  H   UNL     1     145.371 162.263 186.083  0.00  0.00    +0.052 HD
ATOM    177  H   UNL     1     144.464 162.754 184.641  0.00  0.00    +0.052 HD
ENDBRANCH 173 174
ENDBRANCH  10 173
TORSDOF 45
ENDMDL
MODEL 2
REMARK VINA RESULT:      -4.8      5.672     11.605
REMARK  Name = Aplyronine A_conf3
REMARK  45 active torsions:
REMARK  status: ('A' for Active; 'I' for Inactive)
REMARK    1  A    between atoms: C_1  and  C_2
REMARK    2  A    between atoms: C_5  and  O_75
REMARK    3  A    between atoms: C_6  and  C_74
REMARK    4  A    between atoms: C_9  and  C_73
REMARK    5  A    between atoms: C_11  and  O_71
REMARK    6  A    between atoms: C_15  and  C_39
REMARK    7  A    between atoms: C_24  and  O_29
REMARK    8  A    between atoms: C_25  and  C_28
REMARK    9  A    between atoms: C_26  and  O_27
REMARK   10  A    between atoms: O_29  and  C_30
REMARK   11  A    between atoms: C_30  and  C_32
REMARK   12  A    between atoms: C_32  and  C_33
REMARK   13  A    between atoms: C_32  and  N_36
REMARK   14  A    between atoms: C_33  and  O_34
REMARK   15  A    between atoms: O_34  and  C_35
REMARK   16  A    between atoms: N_36  and  C_37
REMARK   17  A    between atoms: N_36  and  C_38
REMARK   18  A    between atoms: C_39  and  C_40
REMARK   19  A    between atoms: C_39  and  C_41
REMARK   20  A    between atoms: C_41  and  C_42
REMARK   21  A    between atoms: C_41  and  O_70
REMARK   22  A    between atoms: C_42  and  C_43
REMARK   23  A    between atoms: C_42  and  C_44
REMARK   24  A    between atoms: C_44  and  C_45
REMARK   25  A    between atoms: C_45  and  C_46
REMARK   26  A    between atoms: C_46  and  C_47
REMARK   27  A    between atoms: C_46  and  O_62
REMARK   28  A    between atoms: C_47  and  C_48
REMARK   29  A    between atoms: C_47  and  C_49
REMARK   30  A    between atoms: C_49  and  C_50
REMARK   31  A    between atoms: C_49  and  O_58
REMARK   32  A    between atoms: C_50  and  C_51
REMARK   33  A    between atoms: C_50  and  C_52
REMARK   34  A    between atoms: C_53  and  N_54
REMARK   35  A    between atoms: N_54  and  C_55
REMARK   36  A    between atoms: O_58  and  C_59
REMARK   37  A    between atoms: C_59  and  C_61
REMARK   38  A    between atoms: O_62  and  C_63
REMARK   39  A    between atoms: C_63  and  C_65
REMARK   40  A    between atoms: C_65  and  C_66
REMARK   41  A    between atoms: C_65  and  N_67
REMARK   42  A    between atoms: N_67  and  C_68
REMARK   43  A    between atoms: N_67  and  C_69
REMARK   44  A    between atoms: O_71  and  C_72
REMARK   45  A    between atoms: O_75  and  C_76
REMARK                            x       y       z     vdW  Elec       q    Type
REMARK                         _______ _______ _______ _____ _____    ______ ____
ROOT
ATOM      1  C   UNL     1     157.438 156.949 192.135  0.00  0.00    -0.017 C 
ATOM      2  C   UNL     1     157.321 156.920 190.595  0.00  0.00    -0.045 C 
ATOM      3  C   UNL     1     156.526 158.092 189.992  0.00  0.00    -0.022 C 
ATOM      4  C   UNL     1     155.327 157.690 189.095  0.00  0.00    +0.079 C 
ATOM      5  C   UNL     1     155.674 157.210 187.683  0.00  0.00    -0.048 C 
ATOM      6  C   UNL     1     155.063 157.779 186.620  0.00  0.00    -0.082 C 
ATOM      7  C   UNL     1     155.193 157.425 185.164  0.00  0.00    -0.032 C 
ATOM      8  C   UNL     1     156.277 158.204 184.388  0.00  0.00    -0.038 C 
ATOM      9  C   UNL     1     156.078 159.741 184.431  0.00  0.00    -0.020 C 
ATOM     10  C   UNL     1     156.723 160.409 185.657  0.00  0.00    +0.077 C 
ATOM     11  C   UNL     1     156.445 161.888 185.665  0.00  0.00    -0.059 C 
ATOM     12  C   UNL     1     155.486 162.487 186.391  0.00  0.00    -0.082 C 
ATOM     13  C   UNL     1     155.350 163.988 186.472  0.00  0.00    +0.003 C 
ATOM     14  C   UNL     1     155.209 164.551 187.907  0.00  0.00    +0.112 C 
ATOM     15  O   UNL     1     156.069 163.813 188.813  0.00  0.00    -0.458 OA
ATOM     16  C   UNL     1     157.410 163.963 188.727  0.00  0.00    +0.332 C 
ATOM     17  O   UNL     1     158.029 164.705 187.987  0.00  0.00    -0.246 OA
ATOM     18  C   UNL     1     157.973 163.019 189.707  0.00  0.00    +0.022 C 
ATOM     19  C   UNL     1     159.258 162.640 189.708  0.00  0.00    -0.055 C 
ATOM     20  C   UNL     1     159.705 161.677 190.683  0.00  0.00    -0.065 C 
ATOM     21  C   UNL     1     160.971 161.280 190.880  0.00  0.00    -0.081 C 
ATOM     22  C   UNL     1     161.454 160.354 191.981  0.00  0.00    +0.003 C 
ATOM     23  C   UNL     1     160.417 159.594 192.860  0.00  0.00    +0.111 C 
ATOM     24  C   UNL     1     159.679 158.445 192.089  0.00  0.00    +0.020 C 
ATOM     25  C   UNL     1     158.295 158.109 192.724  0.00  0.00    +0.064 C 
ATOM     26  H   UNL     1     156.422 157.105 192.528  0.00  0.00    +0.032 HD
ATOM     27  H   UNL     1     156.856 155.971 190.313  0.00  0.00    +0.027 HD
ATOM     28  H   UNL     1     158.318 156.897 190.143  0.00  0.00    +0.027 HD
ATOM     29  H   UNL     1     156.121 158.701 190.809  0.00  0.00    +0.029 HD
ATOM     30  H   UNL     1     157.204 158.748 189.431  0.00  0.00    +0.029 HD
ATOM     31  H   UNL     1     154.709 158.596 189.020  0.00  0.00    +0.064 HD
ATOM     32  H   UNL     1     154.345 158.581 186.804  0.00  0.00    +0.057 HD
ATOM     33  H   UNL     1     154.215 157.598 184.696  0.00  0.00    +0.031 HD
ATOM     34  H   UNL     1     155.365 156.347 185.052  0.00  0.00    +0.031 HD
ATOM     35  H   UNL     1     157.259 157.950 184.807  0.00  0.00    +0.030 HD
ATOM     36  H   UNL     1     155.007 159.976 184.383  0.00  0.00    +0.030 HD
ATOM     37  H   UNL     1     156.538 160.176 183.533  0.00  0.00    +0.030 HD
ATOM     38  H   UNL     1     156.360 159.961 186.585  0.00  0.00    +0.064 HD
ATOM     39  H   UNL     1     157.125 162.494 185.069  0.00  0.00    +0.059 HD
ATOM     40  H   UNL     1     154.793 161.895 186.985  0.00  0.00    +0.057 HD
ATOM     41  H   UNL     1     154.537 164.325 185.824  0.00  0.00    +0.034 HD
ATOM     42  H   UNL     1     156.257 164.435 186.039  0.00  0.00    +0.034 HD
ATOM     43  H   UNL     1     155.540 165.598 187.895  0.00  0.00    +0.074 HD
ATOM     44  H   UNL     1     157.270 162.623 190.434  0.00  0.00    +0.069 HD
ATOM     45  H   UNL     1     159.964 163.044 188.990  0.00  0.00    +0.062 HD
ATOM     46  H   UNL     1     158.914 161.297 191.323  0.00  0.00    +0.061 HD
ATOM     47  H   UNL     1     161.756 161.687 190.246  0.00  0.00    +0.057 HD
ATOM     48  H   UNL     1     162.146 159.634 191.532  0.00  0.00    +0.034 HD
ATOM     49  H   UNL     1     162.063 160.979 192.647  0.00  0.00    +0.034 HD
ATOM     50  H   UNL     1     160.949 159.135 193.705  0.00  0.00    +0.074 HD
ATOM     51  H   UNL     1     159.481 158.785 191.065  0.00  0.00    +0.036 HD
ATOM     52  H   UNL     1     157.681 159.010 192.604  0.00  0.00    +0.060 HD
ENDROOT
BRANCH   1  53
ATOM     53  C   UNL     1     157.818 155.552 192.655  0.00  0.00    -0.060 C 
ATOM     54  H   UNL     1     158.381 155.639 193.593  0.00  0.00    +0.023 HD
ATOM     55  H   UNL     1     158.471 155.025 191.953  0.00  0.00    +0.023 HD
ATOM     56  H   UNL     1     156.950 154.925 192.857  0.00  0.00    +0.023 HD
ENDBRANCH   1  53
BRANCH   5  57
ATOM     57  C   UNL     1     156.661 156.082 187.554  0.00  0.00    -0.041 C 
ATOM     58  H   UNL     1     157.648 156.394 187.903  0.00  0.00    +0.028 HD
ATOM     59  H   UNL     1     156.331 155.216 188.138  0.00  0.00    +0.028 HD
ATOM     60  H   UNL     1     156.795 155.737 186.525  0.00  0.00    +0.028 HD
ENDBRANCH   5  57
BRANCH  24  61
ATOM     61  C   UNL     1     160.619 157.234 191.992  0.00  0.00    -0.057 C 
ATOM     62  H   UNL     1     160.091 156.336 191.658  0.00  0.00    +0.023 HD
ATOM     63  H   UNL     1     161.434 157.418 191.288  0.00  0.00    +0.023 HD
ATOM     64  H   UNL     1     161.048 156.986 192.965  0.00  0.00    +0.023 HD
ENDBRANCH  24  61
BRANCH   8  65
ATOM     65  C   UNL     1     156.270 157.731 182.929  0.00  0.00    -0.062 C 
ATOM     66  H   UNL     1     155.381 158.089 182.400  0.00  0.00    +0.023 HD
ATOM     67  H   UNL     1     156.283 156.637 182.872  0.00  0.00    +0.023 HD
ATOM     68  H   UNL     1     157.154 158.100 182.397  0.00  0.00    +0.023 HD
ENDBRANCH   8  65
BRANCH  14  69
ATOM     69  C   UNL     1     153.787 164.514 188.564  0.00  0.00    +0.020 C 
ATOM     70  H   UNL     1     153.048 164.396 187.758  0.00  0.00    +0.036 HD
BRANCH  69  71
ATOM     71  C   UNL     1     153.715 163.242 189.437  0.00  0.00    -0.057 C 
ATOM     72  H   UNL     1     153.159 163.410 190.363  0.00  0.00    +0.023 HD
ATOM     73  H   UNL     1     154.720 162.889 189.697  0.00  0.00    +0.023 HD
ATOM     74  H   UNL     1     153.198 162.423 188.926  0.00  0.00    +0.023 HD
ENDBRANCH  69  71
BRANCH  69  75
ATOM     75  C   UNL     1     153.461 165.807 189.360  0.00  0.00    +0.064 C 
ATOM     76  H   UNL     1     153.030 165.507 190.324  0.00  0.00    +0.060 HD
BRANCH  75  77
ATOM     77  C   UNL     1     152.486 166.811 188.691  0.00  0.00    -0.017 C 
ATOM     78  H   UNL     1     152.561 167.757 189.241  0.00  0.00    +0.032 HD
BRANCH  77  79
ATOM     79  C   UNL     1     152.948 167.167 187.266  0.00  0.00    -0.060 C 
ATOM     80  H   UNL     1     153.794 166.564 186.928  0.00  0.00    +0.023 HD
ATOM     81  H   UNL     1     153.260 168.217 187.220  0.00  0.00    +0.023 HD
ATOM     82  H   UNL     1     152.130 167.036 186.549  0.00  0.00    +0.023 HD
ENDBRANCH  77  79
BRANCH  77  83
ATOM     83  C   UNL     1     150.986 166.414 188.716  0.00  0.00    -0.045 C 
ATOM     84  H   UNL     1     150.750 166.028 187.716  0.00  0.00    +0.027 HD
ATOM     85  H   UNL     1     150.372 167.312 188.844  0.00  0.00    +0.027 HD
BRANCH  83  86
ATOM     86  C   UNL     1     150.557 165.383 189.767  0.00  0.00    -0.015 C 
ATOM     87  H   UNL     1     151.406 164.748 190.036  0.00  0.00    +0.030 HD
ATOM     88  H   UNL     1     149.828 164.690 189.339  0.00  0.00    +0.030 HD
BRANCH  86  89
ATOM     89  C   UNL     1     149.926 166.021 191.025  0.00  0.00    +0.109 C 
ATOM     90  H   UNL     1     148.945 165.559 191.204  0.00  0.00    +0.074 HD
BRANCH  89  91
ATOM     91  C   UNL     1     149.704 167.565 191.015  0.00  0.00    +0.031 C 
ATOM     92  H   UNL     1     149.738 167.833 189.950  0.00  0.00    +0.037 HD
BRANCH  91  93
ATOM     93  C   UNL     1     150.875 168.282 191.695  0.00  0.00    -0.056 C 
ATOM     94  H   UNL     1     150.893 169.349 191.444  0.00  0.00    +0.023 HD
ATOM     95  H   UNL     1     151.838 167.850 191.409  0.00  0.00    +0.023 HD
ATOM     96  H   UNL     1     150.786 168.231 192.783  0.00  0.00    +0.023 HD
ENDBRANCH  91  93
BRANCH  91  97
ATOM     97  C   UNL     1     148.321 168.035 191.565  0.00  0.00    +0.115 C 
ATOM     98  H   UNL     1     148.505 168.602 192.488  0.00  0.00    +0.074 HD
BRANCH  97  99
ATOM     99  C   UNL     1     147.439 168.904 190.609  0.00  0.00    +0.013 C 
ATOM    100  H   UNL     1     146.391 168.657 190.835  0.00  0.00    +0.038 HD
BRANCH  99 101
ATOM    101  C   UNL     1     147.599 168.544 189.127  0.00  0.00    -0.056 C 
ATOM    102  H   UNL     1     148.657 168.397 188.878  0.00  0.00    +0.024 HD
ATOM    103  H   UNL     1     147.220 169.346 188.486  0.00  0.00    +0.024 HD
ATOM    104  H   UNL     1     147.075 167.618 188.869  0.00  0.00    +0.024 HD
ENDBRANCH  99 101
BRANCH  99 105
ATOM    105  C   UNL     1     147.595 170.399 190.814  0.00  0.00    -0.064 C 
ATOM    106  C   UNL     1     148.004 170.920 191.980  0.00  0.00    -0.005 C 
ATOM    107  H   UNL     1     147.321 171.032 189.980  0.00  0.00    +0.059 HD
ATOM    108  H   UNL     1     148.247 170.238 192.796  0.00  0.00    +0.078 HD
BRANCH 106 109
ATOM    109  N   UNL     1     148.175 172.260 192.295  0.00  0.00    -0.284 N 
ATOM    110  C   UNL     1     147.879 172.841 193.520  0.00  0.00    +0.206 C 
ATOM    111  O   UNL     1     148.000 174.027 193.809  0.00  0.00    -0.279 OA
ATOM    112  H   UNL     1     147.493 172.133 194.264  0.00  0.00    +0.126 HD
BRANCH 109 113
ATOM    113  C   UNL     1     148.679 173.128 191.234  0.00  0.00    +0.007 C 
ATOM    114  H   UNL     1     147.875 173.500 190.592  0.00  0.00    +0.043 HD
ATOM    115  H   UNL     1     149.192 173.986 191.682  0.00  0.00    +0.043 HD
ATOM    116  H   UNL     1     149.381 172.559 190.617  0.00  0.00    +0.043 HD
ENDBRANCH 109 113
ENDBRANCH 106 109
ENDBRANCH  99 105
ENDBRANCH  97  99
BRANCH  97 117
ATOM    117  O   UNL     1     147.548 166.851 191.898  0.00  0.00    -0.461 OA
BRANCH 117 118
ATOM    118  C   UNL     1     146.849 166.880 193.064  0.00  0.00    +0.304 C 
ATOM    119  O   UNL     1     147.240 167.362 194.119  0.00  0.00    -0.251 OA
BRANCH 118 120
ATOM    120  C   UNL     1     145.511 166.238 192.871  0.00  0.00    +0.033 C 
ATOM    121  H   UNL     1     144.958 166.262 193.815  0.00  0.00    +0.034 HD
ATOM    122  H   UNL     1     144.939 166.790 192.120  0.00  0.00    +0.034 HD
ATOM    123  H   UNL     1     145.642 165.196 192.567  0.00  0.00    +0.034 HD
ENDBRANCH 118 120
ENDBRANCH 117 118
ENDBRANCH  97 117
ENDBRANCH  91  97
ENDBRANCH  89  91
BRANCH  89 124
ATOM    124  O   UNL     1     150.762 165.700 192.167  0.00  0.00    -0.460 OA
BRANCH 124 125
ATOM    125  C   UNL     1     150.137 165.081 193.214  0.00  0.00    +0.324 C 
ATOM    126  O   UNL     1     149.483 164.049 193.121  0.00  0.00    -0.249 OA
BRANCH 125 127
ATOM    127  C   UNL     1     150.400 165.861 194.515  0.00  0.00    +0.105 C 
ATOM    128  H   UNL     1     149.876 166.824 194.459  0.00  0.00    +0.058 HD
BRANCH 127 129
ATOM    129  C   UNL     1     151.910 166.124 194.546  0.00  0.00    -0.039 C 
ATOM    130  H   UNL     1     152.126 167.197 194.581  0.00  0.00    +0.025 HD
ATOM    131  H   UNL     1     152.411 165.698 193.671  0.00  0.00    +0.025 HD
ATOM    132  H   UNL     1     152.366 165.673 195.436  0.00  0.00    +0.025 HD
ENDBRANCH 127 129
BRANCH 127 133
ATOM    133  N   UNL     1     149.904 165.098 195.698  0.00  0.00    -0.296 NA
BRANCH 133 134
ATOM    134  C   UNL     1     150.979 164.382 196.389  0.00  0.00    -0.012 C 
ATOM    135  H   UNL     1     151.934 164.528 195.871  0.00  0.00    +0.039 HD
ATOM    136  H   UNL     1     150.782 163.307 196.450  0.00  0.00    +0.039 HD
ATOM    137  H   UNL     1     151.128 164.772 197.400  0.00  0.00    +0.039 HD
ENDBRANCH 133 134
BRANCH 133 138
ATOM    138  C   UNL     1     149.225 165.985 196.652  0.00  0.00    -0.012 C 
ATOM    139  H   UNL     1     149.743 166.948 196.718  0.00  0.00    +0.039 HD
ATOM    140  H   UNL     1     148.184 166.174 196.365  0.00  0.00    +0.039 HD
ATOM    141  H   UNL     1     149.233 165.571 197.665  0.00  0.00    +0.039 HD
ENDBRANCH 133 138
ENDBRANCH 127 133
ENDBRANCH 125 127
ENDBRANCH 124 125
ENDBRANCH  89 124
ENDBRANCH  86  89
ENDBRANCH  83  86
ENDBRANCH  77  83
ENDBRANCH  75  77
BRANCH  75 142
ATOM    142  O   UNL     1     154.699 166.465 189.639  0.00  0.00    -0.391 OA
ATOM    143  H   UNL     1     155.017 166.872 188.817  0.00  0.00    +0.210 HD
ENDBRANCH  75 142
ENDBRANCH  69  75
ENDBRANCH  14  69
BRANCH  25 144
ATOM    144  O   UNL     1     158.428 157.932 194.138  0.00  0.00    -0.391 OA
ATOM    145  H   UNL     1     159.228 157.411 194.308  0.00  0.00    +0.210 HD
ENDBRANCH  25 144
BRANCH  23 146
ATOM    146  O   UNL     1     159.458 160.539 193.372  0.00  0.00    -0.460 OA
BRANCH 146 147
ATOM    147  C   UNL     1     159.823 161.330 194.413  0.00  0.00    +0.327 C 
ATOM    148  O   UNL     1     159.854 162.557 194.384  0.00  0.00    -0.249 OA
BRANCH 147 149
ATOM    149  C   UNL     1     160.124 160.503 195.672  0.00  0.00    +0.131 C 
ATOM    150  H   UNL     1     160.327 159.485 195.309  0.00  0.00    +0.060 HD
BRANCH 149 151
ATOM    151  C   UNL     1     158.827 160.407 196.515  0.00  0.00    +0.073 C 
ATOM    152  H   UNL     1     158.898 161.063 197.394  0.00  0.00    +0.058 HD
ATOM    153  H   UNL     1     157.979 160.747 195.908  0.00  0.00    +0.058 HD
BRANCH 151 154
ATOM    154  O   UNL     1     158.552 159.068 196.950  0.00  0.00    -0.381 OA
BRANCH 154 155
ATOM    155  C   UNL     1     158.412 159.005 198.364  0.00  0.00    +0.037 C 
ATOM    156  H   UNL     1     158.161 157.987 198.676  0.00  0.00    +0.052 HD
ATOM    157  H   UNL     1     159.331 159.338 198.854  0.00  0.00    +0.052 HD
ATOM    158  H   UNL     1     157.595 159.670 198.657  0.00  0.00    +0.052 HD
ENDBRANCH 154 155
ENDBRANCH 151 154
ENDBRANCH 149 151
BRANCH 149 159
ATOM    159  N   UNL     1     161.341 161.019 196.377  0.00  0.00    -0.294 NA
BRANCH 159 160
ATOM    160  C   UNL     1     162.329 159.956 196.589  0.00  0.00    -0.012 C 
ATOM    161  H   UNL     1     161.855 158.982 196.760  0.00  0.00    +0.039 HD
ATOM    162  H   UNL     1     162.960 160.182 197.457  0.00  0.00    +0.039 HD
ATOM    163  H   UNL     1     163.013 159.868 195.740  0.00  0.00    +0.039 HD
ENDBRANCH 159 160
BRANCH 159 164
ATOM    164  C   UNL     1     161.010 161.642 197.659  0.00  0.00    -0.012 C 
ATOM    165  H   UNL     1     159.924 161.771 197.757  0.00  0.00    +0.039 HD
ATOM    166  H   UNL     1     161.308 161.012 198.504  0.00  0.00    +0.039 HD
ATOM    167  H   UNL     1     161.481 162.625 197.774  0.00  0.00    +0.039 HD
ENDBRANCH 159 164
ENDBRANCH 149 159
ENDBRANCH 147 149
ENDBRANCH 146 147
ENDBRANCH  23 146
BRANCH   4 168
ATOM    168  O   UNL     1     154.558 156.696 189.793  0.00  0.00    -0.376 OA
BRANCH 168 169
ATOM    169  C   UNL     1     153.157 156.805 189.565  0.00  0.00    +0.037 C 
ATOM    170  H   UNL     1     152.779 155.810 189.318  0.00  0.00    +0.052 HD
ATOM    171  H   UNL     1     152.952 157.463 188.718  0.00  0.00    +0.052 HD
ATOM    172  H   UNL     1     152.641 157.160 190.458  0.00  0.00    +0.052 HD
ENDBRANCH 168 169
ENDBRANCH   4 168
BRANCH  10 173
ATOM    173  O   UNL     1     158.140 160.207 185.555  0.00  0.00    -0.376 OA
BRANCH 173 174
ATOM    174  C   UNL     1     158.759 161.059 184.602  0.00  0.00    +0.037 C 
ATOM    175  H   UNL     1     159.447 161.750 185.094  0.00  0.00    +0.052 HD
ATOM    176  H   UNL     1     157.979 161.645 184.107  0.00  0.00    +0.052 HD
ATOM    177  H   UNL     1     159.282 160.472 183.842  0.00  0.00    +0.052 HD
ENDBRANCH 173 174
ENDBRANCH  10 173
TORSDOF 45
ENDMDL
MODEL 3
REMARK VINA RESULT:      -4.7      5.789     11.598
REMARK  Name = Aplyronine A_conf3
REMARK  45 active torsions:
REMARK  status: ('A' for Active; 'I' for Inactive)
REMARK    1  A    between atoms: C_1  and  C_2
REMARK    2  A    between atoms: C_5  and  O_75
REMARK    3  A    between atoms: C_6  and  C_74
REMARK    4  A    between atoms: C_9  and  C_73
REMARK    5  A    between atoms: C_11  and  O_71
REMARK    6  A    between atoms: C_15  and  C_39
REMARK    7  A    between atoms: C_24  and  O_29
REMARK    8  A    between atoms: C_25  and  C_28
REMARK    9  A    between atoms: C_26  and  O_27
REMARK   10  A    between atoms: O_29  and  C_30
REMARK   11  A    between atoms: C_30  and  C_32
REMARK   12  A    between atoms: C_32  and  C_33
REMARK   13  A    between atoms: C_32  and  N_36
REMARK   14  A    between atoms: C_33  and  O_34
REMARK   15  A    between atoms: O_34  and  C_35
REMARK   16  A    between atoms: N_36  and  C_37
REMARK   17  A    between atoms: N_36  and  C_38
REMARK   18  A    between atoms: C_39  and  C_40
REMARK   19  A    between atoms: C_39  and  C_41
REMARK   20  A    between atoms: C_41  and  C_42
REMARK   21  A    between atoms: C_41  and  O_70
REMARK   22  A    between atoms: C_42  and  C_43
REMARK   23  A    between atoms: C_42  and  C_44
REMARK   24  A    between atoms: C_44  and  C_45
REMARK   25  A    between atoms: C_45  and  C_46
REMARK   26  A    between atoms: C_46  and  C_47
REMARK   27  A    between atoms: C_46  and  O_62
REMARK   28  A    between atoms: C_47  and  C_48
REMARK   29  A    between atoms: C_47  and  C_49
REMARK   30  A    between atoms: C_49  and  C_50
REMARK   31  A    between atoms: C_49  and  O_58
REMARK   32  A    between atoms: C_50  and  C_51
REMARK   33  A    between atoms: C_50  and  C_52
REMARK   34  A    between atoms: C_53  and  N_54
REMARK   35  A    between atoms: N_54  and  C_55
REMARK   36  A    between atoms: O_58  and  C_59
REMARK   37  A    between atoms: C_59  and  C_61
REMARK   38  A    between atoms: O_62  and  C_63
REMARK   39  A    between atoms: C_63  and  C_65
REMARK   40  A    between atoms: C_65  and  C_66
REMARK   41  A    between atoms: C_65  and  N_67
REMARK   42  A    between atoms: N_67  and  C_68
REMARK   43  A    between atoms: N_67  and  C_69
REMARK   44  A    between atoms: O_71  and  C_72
REMARK   45  A    between atoms: O_75  and  C_76
REMARK                            x       y       z     vdW  Elec       q    Type
REMARK                         _______ _______ _______ _____ _____    ______ ____
ROOT
ATOM      1  C   UNL     1     157.332 156.963 192.098  0.00  0.00    -0.017 C 
ATOM      2  C   UNL     1     157.271 156.862 190.557  0.00  0.00    -0.045 C 
ATOM      3  C   UNL     1     156.623 158.073 189.862  0.00  0.00    -0.022 C 
ATOM      4  C   UNL     1     155.423 157.744 188.937  0.00  0.00    +0.079 C 
ATOM      5  C   UNL     1     155.773 157.155 187.566  0.00  0.00    -0.048 C 
ATOM      6  C   UNL     1     155.263 157.724 186.451  0.00  0.00    -0.082 C 
ATOM      7  C   UNL     1     155.412 157.280 185.022  0.00  0.00    -0.032 C 
ATOM      8  C   UNL     1     156.597 157.903 184.255  0.00  0.00    -0.038 C 
ATOM      9  C   UNL     1     156.554 159.452 184.211  0.00  0.00    -0.020 C 
ATOM     10  C   UNL     1     157.218 160.118 185.428  0.00  0.00    +0.077 C 
ATOM     11  C   UNL     1     157.091 161.616 185.350  0.00  0.00    -0.059 C 
ATOM     12  C   UNL     1     156.172 162.347 186.003  0.00  0.00    -0.082 C 
ATOM     13  C   UNL     1     156.187 163.856 186.002  0.00  0.00    +0.003 C 
ATOM     14  C   UNL     1     156.050 164.507 187.400  0.00  0.00    +0.112 C 
ATOM     15  O   UNL     1     156.796 163.738 188.378  0.00  0.00    -0.458 OA
ATOM     16  C   UNL     1     158.147 163.749 188.341  0.00  0.00    +0.332 C 
ATOM     17  O   UNL     1     158.865 164.384 187.593  0.00  0.00    -0.246 OA
ATOM     18  C   UNL     1     158.574 162.808 189.391  0.00  0.00    +0.022 C 
ATOM     19  C   UNL     1     159.812 162.303 189.467  0.00  0.00    -0.055 C 
ATOM     20  C   UNL     1     160.122 161.355 190.507  0.00  0.00    -0.065 C 
ATOM     21  C   UNL     1     161.333 160.845 190.779  0.00  0.00    -0.081 C 
ATOM     22  C   UNL     1     161.677 159.937 191.945  0.00  0.00    +0.003 C 
ATOM     23  C   UNL     1     160.536 159.334 192.816  0.00  0.00    +0.111 C 
ATOM     24  C   UNL     1     159.714 158.223 192.073  0.00  0.00    +0.020 C 
ATOM     25  C   UNL     1     158.281 158.063 192.663  0.00  0.00    +0.064 C 
ATOM     26  H   UNL     1     156.323 157.241 192.438  0.00  0.00    +0.032 HD
ATOM     27  H   UNL     1     156.722 155.950 190.304  0.00  0.00    +0.027 HD
ATOM     28  H   UNL     1     158.277 156.715 190.151  0.00  0.00    +0.027 HD
ATOM     29  H   UNL     1     156.252 158.763 190.630  0.00  0.00    +0.029 HD
ATOM     30  H   UNL     1     157.384 158.626 189.299  0.00  0.00    +0.029 HD
ATOM     31  H   UNL     1     154.904 158.701 188.789  0.00  0.00    +0.064 HD
ATOM     32  H   UNL     1     154.624 158.602 186.564  0.00  0.00    +0.057 HD
ATOM     33  H   UNL     1     154.474 157.524 184.504  0.00  0.00    +0.031 HD
ATOM     34  H   UNL     1     155.477 156.185 184.972  0.00  0.00    +0.031 HD
ATOM     35  H   UNL     1     157.532 157.575 184.727  0.00  0.00    +0.030 HD
ATOM     36  H   UNL     1     155.516 159.790 184.106  0.00  0.00    +0.030 HD
ATOM     37  H   UNL     1     157.090 159.790 183.312  0.00  0.00    +0.030 HD
ATOM     38  H   UNL     1     156.777 159.760 186.361  0.00  0.00    +0.064 HD
ATOM     39  H   UNL     1     157.852 162.117 184.754  0.00  0.00    +0.059 HD
ATOM     40  H   UNL     1     155.401 161.860 186.596  0.00  0.00    +0.057 HD
ATOM     41  H   UNL     1     155.437 164.236 185.304  0.00  0.00    +0.034 HD
ATOM     42  H   UNL     1     157.150 164.186 185.587  0.00  0.00    +0.034 HD
ATOM     43  H   UNL     1     156.486 165.514 187.348  0.00  0.00    +0.074 HD
ATOM     44  H   UNL     1     157.807 162.524 190.106  0.00  0.00    +0.069 HD
ATOM     45  H   UNL     1     160.582 162.596 188.760  0.00  0.00    +0.062 HD
ATOM     46  H   UNL     1     159.273 161.092 191.132  0.00  0.00    +0.061 HD
ATOM     47  H   UNL     1     162.178 161.137 190.159  0.00  0.00    +0.057 HD
ATOM     48  H   UNL     1     162.309 159.129 191.562  0.00  0.00    +0.034 HD
ATOM     49  H   UNL     1     162.321 160.534 192.603  0.00  0.00    +0.034 HD
ATOM     50  H   UNL     1     160.986 158.871 193.705  0.00  0.00    +0.074 HD
ATOM     51  H   UNL     1     159.591 158.525 191.026  0.00  0.00    +0.036 HD
ATOM     52  H   UNL     1     157.766 159.012 192.472  0.00  0.00    +0.060 HD
ENDROOT
BRANCH   1  53
ATOM     53  C   UNL     1     157.548 155.566 192.704  0.00  0.00    -0.060 C 
ATOM     54  H   UNL     1     156.622 154.982 192.644  0.00  0.00    +0.023 HD
ATOM     55  H   UNL     1     157.809 155.623 193.764  0.00  0.00    +0.023 HD
ATOM     56  H   UNL     1     158.322 154.996 192.188  0.00  0.00    +0.023 HD
ENDBRANCH   1  53
BRANCH   5  57
ATOM     57  C   UNL     1     156.644 155.929 187.537  0.00  0.00    -0.041 C 
ATOM     58  H   UNL     1     157.406 155.981 188.319  0.00  0.00    +0.028 HD
ATOM     59  H   UNL     1     156.040 155.027 187.684  0.00  0.00    +0.028 HD
ATOM     60  H   UNL     1     157.180 155.800 186.594  0.00  0.00    +0.028 HD
ENDBRANCH   5  57
BRANCH  24  61
ATOM     61  C   UNL     1     160.528 156.922 192.078  0.00  0.00    -0.057 C 
ATOM     62  H   UNL     1     161.566 157.093 192.379  0.00  0.00    +0.023 HD
ATOM     63  H   UNL     1     160.103 156.188 192.767  0.00  0.00    +0.023 HD
ATOM     64  H   UNL     1     160.574 156.478 191.081  0.00  0.00    +0.023 HD
ENDBRANCH  24  61
BRANCH   8  65
ATOM     65  C   UNL     1     156.597 157.354 182.822  0.00  0.00    -0.062 C 
ATOM     66  H   UNL     1     155.579 157.277 182.426  0.00  0.00    +0.023 HD
ATOM     67  H   UNL     1     157.054 156.359 182.784  0.00  0.00    +0.023 HD
ATOM     68  H   UNL     1     157.172 158.007 182.157  0.00  0.00    +0.023 HD
ENDBRANCH   8  65
BRANCH  14  69
ATOM     69  C   UNL     1     154.607 164.649 187.996  0.00  0.00    +0.020 C 
ATOM     70  H   UNL     1     153.901 164.705 187.155  0.00  0.00    +0.036 HD
BRANCH  69  71
ATOM     71  C   UNL     1     154.297 163.346 188.765  0.00  0.00    -0.057 C 
ATOM     72  H   UNL     1     155.157 162.993 189.339  0.00  0.00    +0.023 HD
ATOM     73  H   UNL     1     153.991 162.549 188.077  0.00  0.00    +0.023 HD
ATOM     74  H   UNL     1     153.490 163.482 189.493  0.00  0.00    +0.023 HD
ENDBRANCH  69  71
BRANCH  69  75
ATOM     75  C   UNL     1     154.445 165.917 188.876  0.00  0.00    +0.064 C 
ATOM     76  H   UNL     1     154.199 165.589 189.895  0.00  0.00    +0.060 HD
BRANCH  75  77
ATOM     77  C   UNL     1     153.367 166.941 188.431  0.00  0.00    -0.017 C 
ATOM     78  H   UNL     1     153.840 167.931 188.425  0.00  0.00    +0.032 HD
BRANCH  77  79
ATOM     79  C   UNL     1     152.956 166.711 186.965  0.00  0.00    -0.060 C 
ATOM     80  H   UNL     1     153.753 166.946 186.255  0.00  0.00    +0.023 HD
ATOM     81  H   UNL     1     152.098 167.343 186.708  0.00  0.00    +0.023 HD
ATOM     82  H   UNL     1     152.656 165.669 186.806  0.00  0.00    +0.023 HD
ENDBRANCH  77  79
BRANCH  77  83
ATOM     83  C   UNL     1     152.127 167.061 189.354  0.00  0.00    -0.045 C 
ATOM     84  H   UNL     1     151.415 167.715 188.833  0.00  0.00    +0.027 HD
ATOM     85  H   UNL     1     152.403 167.590 190.273  0.00  0.00    +0.027 HD
BRANCH  83  86
ATOM     86  C   UNL     1     151.420 165.757 189.742  0.00  0.00    -0.015 C 
ATOM     87  H   UNL     1     152.126 164.922 189.699  0.00  0.00    +0.030 HD
ATOM     88  H   UNL     1     150.659 165.504 188.999  0.00  0.00    +0.030 HD
BRANCH  86  89
ATOM     89  C   UNL     1     150.731 165.824 191.123  0.00  0.00    +0.109 C 
ATOM     90  H   UNL     1     149.641 165.834 190.978  0.00  0.00    +0.074 HD
BRANCH  89  91
ATOM     91  C   UNL     1     151.074 167.039 192.041  0.00  0.00    +0.031 C 
ATOM     92  H   UNL     1     151.836 167.594 191.475  0.00  0.00    +0.037 HD
BRANCH  91  93
ATOM     93  C   UNL     1     151.738 166.565 193.338  0.00  0.00    -0.056 C 
ATOM     94  H   UNL     1     151.451 167.192 194.189  0.00  0.00    +0.023 HD
ATOM     95  H   UNL     1     152.829 166.572 193.263  0.00  0.00    +0.023 HD
ATOM     96  H   UNL     1     151.418 165.551 193.591  0.00  0.00    +0.023 HD
ENDBRANCH  91  93
BRANCH  91  97
ATOM     97  C   UNL     1     149.890 168.021 192.305  0.00  0.00    +0.115 C 
ATOM     98  H   UNL     1     149.795 168.142 193.393  0.00  0.00    +0.074 HD
BRANCH  97  99
ATOM     99  C   UNL     1     149.986 169.437 191.647  0.00  0.00    +0.013 C 
ATOM    100  H   UNL     1     150.004 169.279 190.559  0.00  0.00    +0.038 HD
BRANCH  99 101
ATOM    101  C   UNL     1     151.303 170.165 191.943  0.00  0.00    -0.056 C 
ATOM    102  H   UNL     1     151.318 170.529 192.977  0.00  0.00    +0.024 HD
ATOM    103  H   UNL     1     151.426 171.034 191.288  0.00  0.00    +0.024 HD
ATOM    104  H   UNL     1     152.172 169.512 191.817  0.00  0.00    +0.024 HD
ENDBRANCH  99 101
BRANCH  99 105
ATOM    105  C   UNL     1     148.801 170.336 191.943  0.00  0.00    -0.064 C 
ATOM    106  C   UNL     1     148.949 171.568 192.452  0.00  0.00    -0.005 C 
ATOM    107  H   UNL     1     147.819 169.917 191.759  0.00  0.00    +0.059 HD
ATOM    108  H   UNL     1     149.959 171.933 192.638  0.00  0.00    +0.078 HD
BRANCH 106 109
ATOM    109  N   UNL     1     147.952 172.476 192.774  0.00  0.00    -0.284 N 
ATOM    110  C   UNL     1     147.957 173.316 193.878  0.00  0.00    +0.206 C 
ATOM    111  O   UNL     1     147.074 174.108 194.193  0.00  0.00    -0.279 OA
ATOM    112  H   UNL     1     148.853 173.218 194.505  0.00  0.00    +0.126 HD
BRANCH 109 113
ATOM    113  C   UNL     1     146.791 172.523 191.889  0.00  0.00    +0.007 C 
ATOM    114  H   UNL     1     146.107 173.337 192.151  0.00  0.00    +0.043 HD
ATOM    115  H   UNL     1     147.128 172.670 190.857  0.00  0.00    +0.043 HD
ATOM    116  H   UNL     1     146.248 171.576 191.968  0.00  0.00    +0.043 HD
ENDBRANCH 109 113
ENDBRANCH 106 109
ENDBRANCH  99 105
ENDBRANCH  97  99
BRANCH  97 117
ATOM    117  O   UNL     1     148.677 167.401 191.803  0.00  0.00    -0.461 OA
BRANCH 117 118
ATOM    118  C   UNL     1     147.646 167.267 192.680  0.00  0.00    +0.304 C 
ATOM    119  O   UNL     1     146.457 167.316 192.397  0.00  0.00    -0.251 OA
BRANCH 118 120
ATOM    120  C   UNL     1     148.179 167.039 194.060  0.00  0.00    +0.033 C 
ATOM    121  H   UNL     1     149.056 166.387 194.006  0.00  0.00    +0.034 HD
ATOM    122  H   UNL     1     148.483 167.991 194.503  0.00  0.00    +0.034 HD
ATOM    123  H   UNL     1     147.417 166.553 194.675  0.00  0.00    +0.034 HD
ENDBRANCH 118 120
ENDBRANCH 117 118
ENDBRANCH  97 117
ENDBRANCH  91  97
ENDBRANCH  89  91
BRANCH  89 124
ATOM    124  O   UNL     1     151.053 164.612 191.854  0.00  0.00    -0.460 OA
BRANCH 124 125
ATOM    125  C   UNL     1     150.017 163.745 192.063  0.00  0.00    +0.324 C 
ATOM    126  O   UNL     1     149.082 163.950 192.828  0.00  0.00    -0.249 OA
BRANCH 125 127
ATOM    127  C   UNL     1     150.194 162.497 191.179  0.00  0.00    +0.105 C 
ATOM    128  H   UNL     1     149.780 161.630 191.710  0.00  0.00    +0.058 HD
BRANCH 127 129
ATOM    129  C   UNL     1     151.707 162.303 191.028  0.00  0.00    -0.039 C 
ATOM    130  H   UNL     1     151.942 161.654 190.178  0.00  0.00    +0.025 HD
ATOM    131  H   UNL     1     152.149 161.866 191.930  0.00  0.00    +0.025 HD
ATOM    132  H   UNL     1     152.208 163.262 190.851  0.00  0.00    +0.025 HD
ENDBRANCH 127 129
BRANCH 127 133
ATOM    133  N   UNL     1     149.483 162.665 189.878  0.00  0.00    -0.296 NA
BRANCH 133 134
ATOM    134  C   UNL     1     150.319 162.292 188.735  0.00  0.00    -0.012 C 
ATOM    135  H   UNL     1     149.805 161.556 188.106  0.00  0.00    +0.039 HD
ATOM    136  H   UNL     1     151.277 161.864 189.049  0.00  0.00    +0.039 HD
ATOM    137  H   UNL     1     150.512 163.152 188.087  0.00  0.00    +0.039 HD
ENDBRANCH 133 134
BRANCH 133 138
ATOM    138  C   UNL     1     148.244 161.876 189.847  0.00  0.00    -0.012 C 
ATOM    139  H   UNL     1     148.242 161.133 190.653  0.00  0.00    +0.039 HD
ATOM    140  H   UNL     1     147.355 162.507 189.959  0.00  0.00    +0.039 HD
ATOM    141  H   UNL     1     148.150 161.308 188.917  0.00  0.00    +0.039 HD
ENDBRANCH 133 138
ENDBRANCH 127 133
ENDBRANCH 125 127
ENDBRANCH 124 125
ENDBRANCH  89 124
ENDBRANCH  86  89
ENDBRANCH  83  86
ENDBRANCH  77  83
ENDBRANCH  75  77
BRANCH  75 142
ATOM    142  O   UNL     1     155.717 166.566 188.938  0.00  0.00    -0.391 OA
ATOM    143  H   UNL     1     156.214 166.188 189.682  0.00  0.00    +0.210 HD
ENDBRANCH  75 142
ENDBRANCH  69  75
ENDBRANCH  14  69
BRANCH  25 144
ATOM    144  O   UNL     1     158.341 157.950 194.090  0.00  0.00    -0.391 OA
ATOM    145  H   UNL     1     157.600 158.450 194.468  0.00  0.00    +0.210 HD
ENDBRANCH  25 144
BRANCH  23 146
ATOM    146  O   UNL     1     159.659 160.396 193.237  0.00  0.00    -0.460 OA
BRANCH 146 147
ATOM    147  C   UNL     1     160.082 161.229 194.222  0.00  0.00    +0.327 C 
ATOM    148  O   UNL     1     160.332 162.422 194.072  0.00  0.00    -0.249 OA
BRANCH 147 149
ATOM    149  C   UNL     1     160.138 160.514 195.581  0.00  0.00    +0.131 C 
ATOM    150  H   UNL     1     160.201 159.443 195.342  0.00  0.00    +0.060 HD
BRANCH 149 151
ATOM    151  C   UNL     1     158.778 160.715 196.296  0.00  0.00    +0.073 C 
ATOM    152  H   UNL     1     158.916 161.302 197.214  0.00  0.00    +0.058 HD
ATOM    153  H   UNL     1     158.105 161.277 195.635  0.00  0.00    +0.058 HD
BRANCH 151 154
ATOM    154  O   UNL     1     158.140 159.473 196.624  0.00  0.00    -0.381 OA
BRANCH 154 155
ATOM    155  C   UNL     1     158.457 159.066 197.949  0.00  0.00    +0.037 C 
ATOM    156  H   UNL     1     158.630 159.939 198.584  0.00  0.00    +0.052 HD
ATOM    157  H   UNL     1     157.654 158.448 198.362  0.00  0.00    +0.052 HD
ATOM    158  H   UNL     1     159.374 158.472 197.915  0.00  0.00    +0.052 HD
ENDBRANCH 154 155
ENDBRANCH 151 154
ENDBRANCH 149 151
BRANCH 149 159
ATOM    159  N   UNL     1     161.360 160.914 196.349  0.00  0.00    -0.294 NA
BRANCH 159 160
ATOM    160  C   UNL     1     162.158 159.744 196.734  0.00  0.00    -0.012 C 
ATOM    161  H   UNL     1     163.083 160.029 197.250  0.00  0.00    +0.039 HD
ATOM    162  H   UNL     1     162.430 159.154 195.851  0.00  0.00    +0.039 HD
ATOM    163  H   UNL     1     161.591 159.067 197.380  0.00  0.00    +0.039 HD
ENDBRANCH 159 160
BRANCH 159 164
ATOM    164  C   UNL     1     161.028 161.693 197.543  0.00  0.00    -0.012 C 
ATOM    165  H   UNL     1     159.979 162.013 197.515  0.00  0.00    +0.039 HD
ATOM    166  H   UNL     1     161.129 161.096 198.456  0.00  0.00    +0.039 HD
ATOM    167  H   UNL     1     161.654 162.587 197.640  0.00  0.00    +0.039 HD
ENDBRANCH 159 164
ENDBRANCH 149 159
ENDBRANCH 147 149
ENDBRANCH 146 147
ENDBRANCH  23 146
BRANCH   4 168
ATOM    168  O   UNL     1     154.532 156.871 189.650  0.00  0.00    -0.376 OA
BRANCH 168 169
ATOM    169  C   UNL     1     153.577 157.568 190.443  0.00  0.00    +0.037 C 
ATOM    170  H   UNL     1     153.916 157.540 191.481  0.00  0.00    +0.052 HD
ATOM    171  H   UNL     1     152.601 157.079 190.394  0.00  0.00    +0.052 HD
ATOM    172  H   UNL     1     153.496 158.612 190.133  0.00  0.00    +0.052 HD
ENDBRANCH 168 169
ENDBRANCH   4 168
BRANCH  10 173
ATOM    173  O   UNL     1     158.610 159.771 185.397  0.00  0.00    -0.376 OA
BRANCH 173 174
ATOM    174  C   UNL     1     159.117 159.382 186.665  0.00  0.00    +0.037 C 
ATOM    175  H   UNL     1     160.043 158.814 186.550  0.00  0.00    +0.052 HD
ATOM    176  H   UNL     1     158.377 158.738 187.149  0.00  0.00    +0.052 HD
ATOM    177  H   UNL     1     159.280 160.257 187.300  0.00  0.00    +0.052 HD
ENDBRANCH 173 174
ENDBRANCH  10 173
TORSDOF 45
ENDMDL
MODEL 4
REMARK VINA RESULT:      -4.7      5.638     11.830
REMARK  Name = Aplyronine A_conf3
REMARK  45 active torsions:
REMARK  status: ('A' for Active; 'I' for Inactive)
REMARK    1  A    between atoms: C_1  and  C_2
REMARK    2  A    between atoms: C_5  and  O_75
REMARK    3  A    between atoms: C_6  and  C_74
REMARK    4  A    between atoms: C_9  and  C_73
REMARK    5  A    between atoms: C_11  and  O_71
REMARK    6  A    between atoms: C_15  and  C_39
REMARK    7  A    between atoms: C_24  and  O_29
REMARK    8  A    between atoms: C_25  and  C_28
REMARK    9  A    between atoms: C_26  and  O_27
REMARK   10  A    between atoms: O_29  and  C_30
REMARK   11  A    between atoms: C_30  and  C_32
REMARK   12  A    between atoms: C_32  and  C_33
REMARK   13  A    between atoms: C_32  and  N_36
REMARK   14  A    between atoms: C_33  and  O_34
REMARK   15  A    between atoms: O_34  and  C_35
REMARK   16  A    between atoms: N_36  and  C_37
REMARK   17  A    between atoms: N_36  and  C_38
REMARK   18  A    between atoms: C_39  and  C_40
REMARK   19  A    between atoms: C_39  and  C_41
REMARK   20  A    between atoms: C_41  and  C_42
REMARK   21  A    between atoms: C_41  and  O_70
REMARK   22  A    between atoms: C_42  and  C_43
REMARK   23  A    between atoms: C_42  and  C_44
REMARK   24  A    between atoms: C_44  and  C_45
REMARK   25  A    between atoms: C_45  and  C_46
REMARK   26  A    between atoms: C_46  and  C_47
REMARK   27  A    between atoms: C_46  and  O_62
REMARK   28  A    between atoms: C_47  and  C_48
REMARK   29  A    between atoms: C_47  and  C_49
REMARK   30  A    between atoms: C_49  and  C_50
REMARK   31  A    between atoms: C_49  and  O_58
REMARK   32  A    between atoms: C_50  and  C_51
REMARK   33  A    between atoms: C_50  and  C_52
REMARK   34  A    between atoms: C_53  and  N_54
REMARK   35  A    between atoms: N_54  and  C_55
REMARK   36  A    between atoms: O_58  and  C_59
REMARK   37  A    between atoms: C_59  and  C_61
REMARK   38  A    between atoms: O_62  and  C_63
REMARK   39  A    between atoms: C_63  and  C_65
REMARK   40  A    between atoms: C_65  and  C_66
REMARK   41  A    between atoms: C_65  and  N_67
REMARK   42  A    between atoms: N_67  and  C_68
REMARK   43  A    between atoms: N_67  and  C_69
REMARK   44  A    between atoms: O_71  and  C_72
REMARK   45  A    between atoms: O_75  and  C_76
REMARK                            x       y       z     vdW  Elec       q    Type
REMARK                         _______ _______ _______ _____ _____    ______ ____
ROOT
ATOM      1  C   UNL     1     157.250 156.858 192.051  0.00  0.00    -0.017 C 
ATOM      2  C   UNL     1     157.093 156.862 190.514  0.00  0.00    -0.045 C 
ATOM      3  C   UNL     1     156.315 158.067 189.954  0.00  0.00    -0.022 C 
ATOM      4  C   UNL     1     155.083 157.714 189.081  0.00  0.00    +0.079 C 
ATOM      5  C   UNL     1     155.381 157.252 187.652  0.00  0.00    -0.048 C 
ATOM      6  C   UNL     1     154.758 157.857 186.616  0.00  0.00    -0.082 C 
ATOM      7  C   UNL     1     154.842 157.529 185.151  0.00  0.00    -0.032 C 
ATOM      8  C   UNL     1     155.926 158.293 184.362  0.00  0.00    -0.038 C 
ATOM      9  C   UNL     1     155.770 159.833 184.438  0.00  0.00    -0.020 C 
ATOM     10  C   UNL     1     156.464 160.460 185.659  0.00  0.00    +0.077 C 
ATOM     11  C   UNL     1     156.226 161.946 185.702  0.00  0.00    -0.059 C 
ATOM     12  C   UNL     1     155.302 162.556 186.464  0.00  0.00    -0.082 C 
ATOM     13  C   UNL     1     155.209 164.058 186.576  0.00  0.00    +0.003 C 
ATOM     14  C   UNL     1     155.120 164.597 188.025  0.00  0.00    +0.112 C 
ATOM     15  O   UNL     1     155.982 163.819 188.894  0.00  0.00    -0.458 OA
ATOM     16  C   UNL     1     157.324 163.936 188.776  0.00  0.00    +0.332 C 
ATOM     17  O   UNL     1     157.943 164.675 188.035  0.00  0.00    -0.246 OA
ATOM     18  C   UNL     1     157.886 162.958 189.723  0.00  0.00    +0.022 C 
ATOM     19  C   UNL     1     159.160 162.545 189.684  0.00  0.00    -0.055 C 
ATOM     20  C   UNL     1     159.606 161.552 190.629  0.00  0.00    -0.065 C 
ATOM     21  C   UNL     1     160.865 161.118 190.786  0.00  0.00    -0.081 C 
ATOM     22  C   UNL     1     161.350 160.158 191.857  0.00  0.00    +0.003 C 
ATOM     23  C   UNL     1     160.316 159.410 192.748  0.00  0.00    +0.111 C 
ATOM     24  C   UNL     1     159.528 158.295 191.975  0.00  0.00    +0.020 C 
ATOM     25  C   UNL     1     158.153 157.984 192.639  0.00  0.00    +0.064 C 
ATOM     26  H   UNL     1     156.248 157.034 192.473  0.00  0.00    +0.032 HD
ATOM     27  H   UNL     1     156.595 155.932 190.227  0.00  0.00    +0.027 HD
ATOM     28  H   UNL     1     158.077 156.822 190.036  0.00  0.00    +0.027 HD
ATOM     29  H   UNL     1     155.948 158.670 190.793  0.00  0.00    +0.029 HD
ATOM     30  H   UNL     1     156.995 158.714 189.388  0.00  0.00    +0.029 HD
ATOM     31  H   UNL     1     154.488 158.637 189.039  0.00  0.00    +0.064 HD
ATOM     32  H   UNL     1     154.067 158.674 186.834  0.00  0.00    +0.057 HD
ATOM     33  H   UNL     1     153.857 157.736 184.712  0.00  0.00    +0.031 HD
ATOM     34  H   UNL     1     154.982 156.448 185.014  0.00  0.00    +0.031 HD
ATOM     35  H   UNL     1     156.912 158.005 184.750  0.00  0.00    +0.030 HD
ATOM     36  H   UNL     1     154.705 160.098 184.423  0.00  0.00    +0.030 HD
ATOM     37  H   UNL     1     156.218 160.274 183.537  0.00  0.00    +0.030 HD
ATOM     38  H   UNL     1     156.113 160.005 186.588  0.00  0.00    +0.064 HD
ATOM     39  H   UNL     1     156.907 162.545 185.100  0.00  0.00    +0.059 HD
ATOM     40  H   UNL     1     154.609 161.971 187.065  0.00  0.00    +0.057 HD
ATOM     41  H   UNL     1     154.389 164.429 185.956  0.00  0.00    +0.034 HD
ATOM     42  H   UNL     1     156.116 164.490 186.129  0.00  0.00    +0.034 HD
ATOM     43  H   UNL     1     155.478 165.635 188.023  0.00  0.00    +0.074 HD
ATOM     44  H   UNL     1     157.191 162.566 190.461  0.00  0.00    +0.069 HD
ATOM     45  H   UNL     1     159.858 162.945 188.955  0.00  0.00    +0.062 HD
ATOM     46  H   UNL     1     158.821 161.181 191.283  0.00  0.00    +0.061 HD
ATOM     47  H   UNL     1     161.644 161.516 190.140  0.00  0.00    +0.057 HD
ATOM     48  H   UNL     1     162.012 159.429 191.376  0.00  0.00    +0.034 HD
ATOM     49  H   UNL     1     161.993 160.754 192.518  0.00  0.00    +0.034 HD
ATOM     50  H   UNL     1     160.857 158.920 193.570  0.00  0.00    +0.074 HD
ATOM     51  H   UNL     1     159.314 158.660 190.963  0.00  0.00    +0.036 HD
ATOM     52  H   UNL     1     157.560 158.903 192.552  0.00  0.00    +0.060 HD
ENDROOT
BRANCH   1  53
ATOM     53  C   UNL     1     157.605 155.442 192.535  0.00  0.00    -0.060 C 
ATOM     54  H   UNL     1     157.034 154.696 191.970  0.00  0.00    +0.023 HD
ATOM     55  H   UNL     1     157.343 155.298 193.587  0.00  0.00    +0.023 HD
ATOM     56  H   UNL     1     158.661 155.203 192.407  0.00  0.00    +0.023 HD
ENDBRANCH   1  53
BRANCH   5  57
ATOM     57  C   UNL     1     156.333 156.101 187.476  0.00  0.00    -0.041 C 
ATOM     58  H   UNL     1     156.854 155.888 188.413  0.00  0.00    +0.028 HD
ATOM     59  H   UNL     1     155.794 155.203 187.154  0.00  0.00    +0.028 HD
ATOM     60  H   UNL     1     157.109 156.289 186.730  0.00  0.00    +0.028 HD
ENDBRANCH   5  57
BRANCH  24  61
ATOM     61  C   UNL     1     160.432 157.062 191.831  0.00  0.00    -0.057 C 
ATOM     62  H   UNL     1     160.514 156.737 190.790  0.00  0.00    +0.023 HD
ATOM     63  H   UNL     1     161.443 157.266 192.193  0.00  0.00    +0.023 HD
ATOM     64  H   UNL     1     160.031 156.209 192.382  0.00  0.00    +0.023 HD
ENDBRANCH  24  61
BRANCH   8  65
ATOM     65  C   UNL     1     155.869 157.849 182.894  0.00  0.00    -0.062 C 
ATOM     66  H   UNL     1     156.735 158.216 182.334  0.00  0.00    +0.023 HD
ATOM     67  H   UNL     1     154.963 158.225 182.407  0.00  0.00    +0.023 HD
ATOM     68  H   UNL     1     155.854 156.756 182.820  0.00  0.00    +0.023 HD
ENDBRANCH   8  65
BRANCH  14  69
ATOM     69  C   UNL     1     153.714 164.585 188.718  0.00  0.00    +0.020 C 
ATOM     70  H   UNL     1     152.951 164.524 187.928  0.00  0.00    +0.036 HD
BRANCH  69  71
ATOM     71  C   UNL     1     153.619 163.284 189.545  0.00  0.00    -0.057 C 
ATOM     72  H   UNL     1     154.355 162.541 189.227  0.00  0.00    +0.023 HD
ATOM     73  H   UNL     1     152.620 162.840 189.462  0.00  0.00    +0.023 HD
ATOM     74  H   UNL     1     153.816 163.459 190.608  0.00  0.00    +0.023 HD
ENDBRANCH  69  71
BRANCH  69  75
ATOM     75  C   UNL     1     153.455 165.857 189.570  0.00  0.00    +0.064 C 
ATOM     76  H   UNL     1     152.971 165.542 190.503  0.00  0.00    +0.060 HD
BRANCH  75  77
ATOM     77  C   UNL     1     152.577 166.961 188.924  0.00  0.00    -0.017 C 
ATOM     78  H   UNL     1     153.255 167.699 188.477  0.00  0.00    +0.032 HD
BRANCH  77  79
ATOM     79  C   UNL     1     151.781 166.408 187.727  0.00  0.00    -0.060 C 
ATOM     80  H   UNL     1     151.378 167.191 187.083  0.00  0.00    +0.023 HD
ATOM     81  H   UNL     1     150.932 165.811 188.081  0.00  0.00    +0.023 HD
ATOM     82  H   UNL     1     152.410 165.753 187.115  0.00  0.00    +0.023 HD
ENDBRANCH  77  79
BRANCH  77  83
ATOM     83  C   UNL     1     151.661 167.750 189.896  0.00  0.00    -0.045 C 
ATOM     84  H   UNL     1     150.637 167.401 189.710  0.00  0.00    +0.027 HD
ATOM     85  H   UNL     1     151.669 168.812 189.626  0.00  0.00    +0.027 HD
BRANCH  83  86
ATOM     86  C   UNL     1     151.969 167.631 191.393  0.00  0.00    -0.015 C 
ATOM     87  H   UNL     1     152.832 168.253 191.649  0.00  0.00    +0.030 HD
ATOM     88  H   UNL     1     152.291 166.614 191.632  0.00  0.00    +0.030 HD
BRANCH  86  89
ATOM     89  C   UNL     1     150.760 167.970 192.293  0.00  0.00    +0.109 C 
ATOM     90  H   UNL     1     151.058 168.748 193.011  0.00  0.00    +0.074 HD
BRANCH  89  91
ATOM     91  C   UNL     1     150.131 166.808 193.123  0.00  0.00    +0.031 C 
ATOM     92  H   UNL     1     149.604 167.319 193.941  0.00  0.00    +0.037 HD
BRANCH  91  93
ATOM     93  C   UNL     1     151.226 165.950 193.765  0.00  0.00    -0.056 C 
ATOM     94  H   UNL     1     150.803 165.192 194.434  0.00  0.00    +0.023 HD
ATOM     95  H   UNL     1     151.933 166.555 194.340  0.00  0.00    +0.023 HD
ATOM     96  H   UNL     1     151.786 165.399 193.004  0.00  0.00    +0.023 HD
ENDBRANCH  91  93
BRANCH  91  97
ATOM     97  C   UNL     1     149.075 165.949 192.359  0.00  0.00    +0.115 C 
ATOM     98  H   UNL     1     148.310 166.633 191.967  0.00  0.00    +0.074 HD
BRANCH  97  99
ATOM     99  C   UNL     1     149.604 165.059 191.186  0.00  0.00    +0.013 C 
ATOM    100  H   UNL     1     150.643 165.369 190.999  0.00  0.00    +0.038 HD
BRANCH  99 101
ATOM    101  C   UNL     1     148.891 165.313 189.852  0.00  0.00    -0.056 C 
ATOM    102  H   UNL     1     149.419 164.812 189.032  0.00  0.00    +0.024 HD
ATOM    103  H   UNL     1     148.864 166.382 189.620  0.00  0.00    +0.024 HD
ATOM    104  H   UNL     1     147.864 164.934 189.855  0.00  0.00    +0.024 HD
ENDBRANCH  99 101
BRANCH  99 105
ATOM    105  C   UNL     1     149.634 163.577 191.502  0.00  0.00    -0.064 C 
ATOM    106  C   UNL     1     150.005 162.660 190.595  0.00  0.00    -0.005 C 
ATOM    107  H   UNL     1     149.302 163.287 192.492  0.00  0.00    +0.059 HD
ATOM    108  H   UNL     1     150.311 163.004 189.607  0.00  0.00    +0.078 HD
BRANCH 106 109
ATOM    109  N   UNL     1     150.064 161.284 190.757  0.00  0.00    -0.284 N 
ATOM    110  C   UNL     1     151.228 160.534 190.834  0.00  0.00    +0.206 C 
ATOM    111  O   UNL     1     151.300 159.315 190.953  0.00  0.00    -0.279 OA
ATOM    112  H   UNL     1     152.146 161.132 190.767  0.00  0.00    +0.126 HD
BRANCH 109 113
ATOM    113  C   UNL     1     148.790 160.573 190.821  0.00  0.00    +0.007 C 
ATOM    114  H   UNL     1     148.510 160.146 189.853  0.00  0.00    +0.043 HD
ATOM    115  H   UNL     1     148.866 159.759 191.551  0.00  0.00    +0.043 HD
ATOM    116  H   UNL     1     148.009 161.274 191.130  0.00  0.00    +0.043 HD
ENDBRANCH 109 113
ENDBRANCH 106 109
ENDBRANCH  99 105
ENDBRANCH  97  99
BRANCH  97 117
ATOM    117  O   UNL     1     148.448 165.058 193.319  0.00  0.00    -0.461 OA
BRANCH 117 118
ATOM    118  C   UNL     1     147.503 165.598 194.134  0.00  0.00    +0.304 C 
ATOM    119  O   UNL     1     147.534 165.603 195.357  0.00  0.00    -0.251 OA
BRANCH 118 120
ATOM    120  C   UNL     1     146.407 166.202 193.313  0.00  0.00    +0.033 C 
ATOM    121  H   UNL     1     146.585 165.984 192.256  0.00  0.00    +0.034 HD
ATOM    122  H   UNL     1     145.446 165.766 193.599  0.00  0.00    +0.034 HD
ATOM    123  H   UNL     1     146.395 167.286 193.451  0.00  0.00    +0.034 HD
ENDBRANCH 118 120
ENDBRANCH 117 118
ENDBRANCH  97 117
ENDBRANCH  91  97
ENDBRANCH  89  91
BRANCH  89 124
ATOM    124  O   UNL     1     149.715 168.537 191.461  0.00  0.00    -0.460 OA
BRANCH 124 125
ATOM    125  C   UNL     1     148.971 169.534 192.028  0.00  0.00    +0.324 C 
ATOM    126  O   UNL     1     147.989 169.351 192.738  0.00  0.00    -0.249 OA
BRANCH 125 127
ATOM    127  C   UNL     1     149.566 170.905 191.658  0.00  0.00    +0.105 C 
ATOM    128  H   UNL     1     149.651 170.967 190.565  0.00  0.00    +0.058 HD
BRANCH 127 129
ATOM    129  C   UNL     1     150.974 170.926 192.262  0.00  0.00    -0.039 C 
ATOM    130  H   UNL     1     151.273 171.943 192.539  0.00  0.00    +0.025 HD
ATOM    131  H   UNL     1     151.717 170.525 191.565  0.00  0.00    +0.025 HD
ATOM    132  H   UNL     1     151.018 170.316 193.172  0.00  0.00    +0.025 HD
ENDBRANCH 127 129
BRANCH 127 133
ATOM    133  N   UNL     1     148.692 172.010 192.148  0.00  0.00    -0.296 NA
BRANCH 133 134
ATOM    134  C   UNL     1     149.219 172.642 193.360  0.00  0.00    -0.012 C 
ATOM    135  H   UNL     1     148.405 172.897 194.047  0.00  0.00    +0.039 HD
ATOM    136  H   UNL     1     149.779 173.556 193.136  0.00  0.00    +0.039 HD
ATOM    137  H   UNL     1     149.869 171.957 193.913  0.00  0.00    +0.039 HD
ENDBRANCH 133 134
BRANCH 133 138
ATOM    138  C   UNL     1     148.505 173.036 191.114  0.00  0.00    -0.012 C 
ATOM    139  H   UNL     1     148.972 173.979 191.419  0.00  0.00    +0.039 HD
ATOM    140  H   UNL     1     148.939 172.733 190.154  0.00  0.00    +0.039 HD
ATOM    141  H   UNL     1     147.446 173.264 190.957  0.00  0.00    +0.039 HD
ENDBRANCH 133 138
ENDBRANCH 127 133
ENDBRANCH 125 127
ENDBRANCH 124 125
ENDBRANCH  89 124
ENDBRANCH  86  89
ENDBRANCH  83  86
ENDBRANCH  77  83
ENDBRANCH  75  77
BRANCH  75 142
ATOM    142  O   UNL     1     154.727 166.409 189.919  0.00  0.00    -0.391 OA
ATOM    143  H   UNL     1     154.635 167.375 189.966  0.00  0.00    +0.210 HD
ENDBRANCH  75 142
ENDBRANCH  69  75
ENDBRANCH  14  69
BRANCH  25 144
ATOM    144  O   UNL     1     158.316 157.775 194.046  0.00  0.00    -0.391 OA
ATOM    145  H   UNL     1     157.896 156.933 194.282  0.00  0.00    +0.210 HD
ENDBRANCH  25 144
BRANCH  23 146
ATOM    146  O   UNL     1     159.396 160.369 193.302  0.00  0.00    -0.460 OA
BRANCH 146 147
ATOM    147  C   UNL     1     159.837 161.190 194.289  0.00  0.00    +0.327 C 
ATOM    148  O   UNL     1     160.034 162.396 194.162  0.00  0.00    -0.249 OA
BRANCH 147 149
ATOM    149  C   UNL     1     159.989 160.441 195.621  0.00  0.00    +0.131 C 
ATOM    150  H   UNL     1     160.315 159.427 195.348  0.00  0.00    +0.060 HD
BRANCH 149 151
ATOM    151  C   UNL     1     158.585 160.283 196.257  0.00  0.00    +0.073 C 
ATOM    152  H   UNL     1     158.437 161.038 197.041  0.00  0.00    +0.058 HD
ATOM    153  H   UNL     1     157.822 160.446 195.485  0.00  0.00    +0.058 HD
BRANCH 151 154
ATOM    154  O   UNL     1     158.377 158.978 196.816  0.00  0.00    -0.381 OA
BRANCH 154 155
ATOM    155  C   UNL     1     158.401 159.018 198.237  0.00  0.00    +0.037 C 
ATOM    156  H   UNL     1     157.738 159.804 198.607  0.00  0.00    +0.052 HD
ATOM    157  H   UNL     1     158.109 158.048 198.651  0.00  0.00    +0.052 HD
ATOM    158  H   UNL     1     159.422 159.243 198.556  0.00  0.00    +0.052 HD
ENDBRANCH 154 155
ENDBRANCH 151 154
ENDBRANCH 149 151
BRANCH 149 159
ATOM    159  N   UNL     1     161.041 161.075 196.479  0.00  0.00    -0.294 NA
BRANCH 159 160
ATOM    160  C   UNL     1     161.891 160.066 197.120  0.00  0.00    -0.012 C 
ATOM    161  H   UNL     1     162.810 160.502 197.530  0.00  0.00    +0.039 HD
ATOM    162  H   UNL     1     162.174 159.286 196.403  0.00  0.00    +0.039 HD
ATOM    163  H   UNL     1     161.360 159.548 197.925  0.00  0.00    +0.039 HD
ENDBRANCH 159 160
BRANCH 159 164
ATOM    164  C   UNL     1     160.463 161.949 197.501  0.00  0.00    -0.012 C 
ATOM    165  H   UNL     1     159.557 162.438 197.122  0.00  0.00    +0.039 HD
ATOM    166  H   UNL     1     160.146 161.384 198.383  0.00  0.00    +0.039 HD
ATOM    167  H   UNL     1     161.164 162.729 197.820  0.00  0.00    +0.039 HD
ENDBRANCH 159 164
ENDBRANCH 149 159
ENDBRANCH 147 149
ENDBRANCH 146 147
ENDBRANCH  23 146
BRANCH   4 168
ATOM    168  O   UNL     1     154.306 156.727 189.781  0.00  0.00    -0.376 OA
BRANCH 168 169
ATOM    169  C   UNL     1     152.944 156.687 189.369  0.00  0.00    +0.037 C 
ATOM    170  H   UNL     1     152.921 156.429 188.307  0.00  0.00    +0.052 HD
ATOM    171  H   UNL     1     152.473 157.666 189.488  0.00  0.00    +0.052 HD
ATOM    172  H   UNL     1     152.389 155.927 189.921  0.00  0.00    +0.052 HD
ENDBRANCH 168 169
ENDBRANCH   4 168
BRANCH  10 173
ATOM    173  O   UNL     1     157.872 160.224 185.517  0.00  0.00    -0.376 OA
BRANCH 173 174
ATOM    174  C   UNL     1     158.512 159.902 186.743  0.00  0.00    +0.037 C 
ATOM    175  H   UNL     1     159.262 160.655 186.994  0.00  0.00    +0.052 HD
ATOM    176  H   UNL     1     159.018 158.939 186.625  0.00  0.00    +0.052 HD
ATOM    177  H   UNL     1     157.777 159.808 187.547  0.00  0.00    +0.052 HD
ENDBRANCH 173 174
ENDBRANCH  10 173
TORSDOF 45
ENDMDL
MODEL 5
REMARK VINA RESULT:      -4.7      4.645      9.986
REMARK  Name = Aplyronine A_conf3
REMARK  45 active torsions:
REMARK  status: ('A' for Active; 'I' for Inactive)
REMARK    1  A    between atoms: C_1  and  C_2
REMARK    2  A    between atoms: C_5  and  O_75
REMARK    3  A    between atoms: C_6  and  C_74
REMARK    4  A    between atoms: C_9  and  C_73
REMARK    5  A    between atoms: C_11  and  O_71
REMARK    6  A    between atoms: C_15  and  C_39
REMARK    7  A    between atoms: C_24  and  O_29
REMARK    8  A    between atoms: C_25  and  C_28
REMARK    9  A    between atoms: C_26  and  O_27
REMARK   10  A    between atoms: O_29  and  C_30
REMARK   11  A    between atoms: C_30  and  C_32
REMARK   12  A    between atoms: C_32  and  C_33
REMARK   13  A    between atoms: C_32  and  N_36
REMARK   14  A    between atoms: C_33  and  O_34
REMARK   15  A    between atoms: O_34  and  C_35
REMARK   16  A    between atoms: N_36  and  C_37
REMARK   17  A    between atoms: N_36  and  C_38
REMARK   18  A    between atoms: C_39  and  C_40
REMARK   19  A    between atoms: C_39  and  C_41
REMARK   20  A    between atoms: C_41  and  C_42
REMARK   21  A    between atoms: C_41  and  O_70
REMARK   22  A    between atoms: C_42  and  C_43
REMARK   23  A    between atoms: C_42  and  C_44
REMARK   24  A    between atoms: C_44  and  C_45
REMARK   25  A    between atoms: C_45  and  C_46
REMARK   26  A    between atoms: C_46  and  C_47
REMARK   27  A    between atoms: C_46  and  O_62
REMARK   28  A    between atoms: C_47  and  C_48
REMARK   29  A    between atoms: C_47  and  C_49
REMARK   30  A    between atoms: C_49  and  C_50
REMARK   31  A    between atoms: C_49  and  O_58
REMARK   32  A    between atoms: C_50  and  C_51
REMARK   33  A    between atoms: C_50  and  C_52
REMARK   34  A    between atoms: C_53  and  N_54
REMARK   35  A    between atoms: N_54  and  C_55
REMARK   36  A    between atoms: O_58  and  C_59
REMARK   37  A    between atoms: C_59  and  C_61
REMARK   38  A    between atoms: O_62  and  C_63
REMARK   39  A    between atoms: C_63  and  C_65
REMARK   40  A    between atoms: C_65  and  C_66
REMARK   41  A    between atoms: C_65  and  N_67
REMARK   42  A    between atoms: N_67  and  C_68
REMARK   43  A    between atoms: N_67  and  C_69
REMARK   44  A    between atoms: O_71  and  C_72
REMARK   45  A    between atoms: O_75  and  C_76
REMARK                            x       y       z     vdW  Elec       q    Type
REMARK                         _______ _______ _______ _____ _____    ______ ____
ROOT
ATOM      1  C   UNL     1     153.360 171.094 180.268  0.00  0.00    -0.017 C 
ATOM      2  C   UNL     1     154.841 170.933 180.678  0.00  0.00    -0.045 C 
ATOM      3  C   UNL     1     155.056 170.336 182.081  0.00  0.00    -0.022 C 
ATOM      4  C   UNL     1     155.918 171.194 183.043  0.00  0.00    +0.079 C 
ATOM      5  C   UNL     1     157.431 171.157 182.805  0.00  0.00    -0.048 C 
ATOM      6  C   UNL     1     158.257 170.870 183.835  0.00  0.00    -0.082 C 
ATOM      7  C   UNL     1     159.761 170.846 183.851  0.00  0.00    -0.032 C 
ATOM      8  C   UNL     1     160.405 169.478 183.540  0.00  0.00    -0.038 C 
ATOM      9  C   UNL     1     159.957 168.354 184.510  0.00  0.00    -0.020 C 
ATOM     10  C   UNL     1     158.662 167.648 184.072  0.00  0.00    +0.077 C 
ATOM     11  C   UNL     1     158.255 166.610 185.084  0.00  0.00    -0.059 C 
ATOM     12  C   UNL     1     157.320 166.784 186.033  0.00  0.00    -0.082 C 
ATOM     13  C   UNL     1     156.850 165.660 186.923  0.00  0.00    +0.003 C 
ATOM     14  C   UNL     1     155.312 165.517 187.030  0.00  0.00    +0.112 C 
ATOM     15  O   UNL     1     154.701 165.775 185.740  0.00  0.00    -0.458 OA
ATOM     16  C   UNL     1     154.863 164.882 184.739  0.00  0.00    +0.332 C 
ATOM     17  O   UNL     1     155.441 163.812 184.782  0.00  0.00    -0.246 OA
ATOM     18  C   UNL     1     154.207 165.486 183.566  0.00  0.00    +0.022 C 
ATOM     19  C   UNL     1     154.413 165.068 182.311  0.00  0.00    -0.055 C 
ATOM     20  C   UNL     1     153.757 165.752 181.225  0.00  0.00    -0.065 C 
ATOM     21  C   UNL     1     153.777 165.390 179.934  0.00  0.00    -0.081 C 
ATOM     22  C   UNL     1     152.993 166.045 178.812  0.00  0.00    +0.003 C 
ATOM     23  C   UNL     1     152.249 167.388 179.072  0.00  0.00    +0.111 C 
ATOM     24  C   UNL     1     153.220 168.610 179.233  0.00  0.00    +0.020 C 
ATOM     25  C   UNL     1     152.573 169.766 180.055  0.00  0.00    +0.064 C 
ATOM     26  H   UNL     1     152.854 171.605 181.102  0.00  0.00    +0.032 HD
ATOM     27  H   UNL     1     155.313 171.918 180.617  0.00  0.00    +0.027 HD
ATOM     28  H   UNL     1     155.369 170.316 179.944  0.00  0.00    +0.027 HD
ATOM     29  H   UNL     1     154.079 170.205 182.561  0.00  0.00    +0.029 HD
ATOM     30  H   UNL     1     155.489 169.332 181.992  0.00  0.00    +0.029 HD
ATOM     31  H   UNL     1     155.707 170.798 184.046  0.00  0.00    +0.064 HD
ATOM     32  H   UNL     1     157.814 170.656 184.810  0.00  0.00    +0.057 HD
ATOM     33  H   UNL     1     160.083 171.183 184.845  0.00  0.00    +0.031 HD
ATOM     34  H   UNL     1     160.157 171.603 183.162  0.00  0.00    +0.031 HD
ATOM     35  H   UNL     1     160.151 169.197 182.510  0.00  0.00    +0.030 HD
ATOM     36  H   UNL     1     159.850 168.761 185.523  0.00  0.00    +0.030 HD
ATOM     37  H   UNL     1     160.751 167.596 184.555  0.00  0.00    +0.030 HD
ATOM     38  H   UNL     1     157.850 168.366 183.935  0.00  0.00    +0.064 HD
ATOM     39  H   UNL     1     158.735 165.639 184.973  0.00  0.00    +0.059 HD
ATOM     40  H   UNL     1     156.838 167.751 186.161  0.00  0.00    +0.057 HD
ATOM     41  H   UNL     1     157.318 165.742 187.907  0.00  0.00    +0.034 HD
ATOM     42  H   UNL     1     157.232 164.716 186.509  0.00  0.00    +0.034 HD
ATOM     43  H   UNL     1     155.087 164.481 187.317  0.00  0.00    +0.074 HD
ATOM     44  H   UNL     1     153.546 166.322 183.778  0.00  0.00    +0.069 HD
ATOM     45  H   UNL     1     155.064 164.225 182.099  0.00  0.00    +0.062 HD
ATOM     46  H   UNL     1     153.168 166.610 181.536  0.00  0.00    +0.061 HD
ATOM     47  H   UNL     1     154.353 164.515 179.641  0.00  0.00    +0.057 HD
ATOM     48  H   UNL     1     153.669 166.163 177.958  0.00  0.00    +0.034 HD
ATOM     49  H   UNL     1     152.246 165.303 178.502  0.00  0.00    +0.034 HD
ATOM     50  H   UNL     1     151.598 167.595 178.212  0.00  0.00    +0.074 HD
ATOM     51  H   UNL     1     154.102 168.280 179.794  0.00  0.00    +0.036 HD
ATOM     52  H   UNL     1     152.407 169.365 181.062  0.00  0.00    +0.060 HD
ENDROOT
BRANCH   1  53
ATOM     53  C   UNL     1     153.247 172.093 179.105  0.00  0.00    -0.060 C 
ATOM     54  H   UNL     1     153.603 173.081 179.421  0.00  0.00    +0.023 HD
ATOM     55  H   UNL     1     152.208 172.227 178.790  0.00  0.00    +0.023 HD
ATOM     56  H   UNL     1     153.836 171.800 178.236  0.00  0.00    +0.023 HD
ENDBRANCH   1  53
BRANCH   5  57
ATOM     57  C   UNL     1     157.927 171.491 181.425  0.00  0.00    -0.041 C 
ATOM     58  H   UNL     1     159.009 171.647 181.433  0.00  0.00    +0.028 HD
ATOM     59  H   UNL     1     157.687 170.683 180.725  0.00  0.00    +0.028 HD
ATOM     60  H   UNL     1     157.489 172.405 181.015  0.00  0.00    +0.028 HD
ENDBRANCH   5  57
BRANCH  24  61
ATOM     61  C   UNL     1     153.701 169.043 177.841  0.00  0.00    -0.057 C 
ATOM     62  H   UNL     1     154.754 169.339 177.849  0.00  0.00    +0.023 HD
ATOM     63  H   UNL     1     153.593 168.235 177.113  0.00  0.00    +0.023 HD
ATOM     64  H   UNL     1     153.147 169.912 177.481  0.00  0.00    +0.023 HD
ENDBRANCH  24  61
BRANCH   8  65
ATOM     65  C   UNL     1     161.930 169.628 183.607  0.00  0.00    -0.062 C 
ATOM     66  H   UNL     1     162.349 169.062 184.445  0.00  0.00    +0.023 HD
ATOM     67  H   UNL     1     162.215 170.679 183.729  0.00  0.00    +0.023 HD
ATOM     68  H   UNL     1     162.396 169.265 182.684  0.00  0.00    +0.023 HD
ENDBRANCH   8  65
BRANCH  14  69
ATOM     69  C   UNL     1     154.565 166.457 188.038  0.00  0.00    +0.020 C 
ATOM     70  H   UNL     1     155.206 167.331 188.220  0.00  0.00    +0.036 HD
BRANCH  69  71
ATOM     71  C   UNL     1     153.289 166.966 187.334  0.00  0.00    -0.057 C 
ATOM     72  H   UNL     1     153.202 168.055 187.378  0.00  0.00    +0.023 HD
ATOM     73  H   UNL     1     152.391 166.528 187.785  0.00  0.00    +0.023 HD
ATOM     74  H   UNL     1     153.280 166.713 186.268  0.00  0.00    +0.023 HD
ENDBRANCH  69  71
BRANCH  69  75
ATOM     75  C   UNL     1     154.265 165.763 189.394  0.00  0.00    +0.064 C 
ATOM     76  H   UNL     1     155.225 165.545 189.879  0.00  0.00    +0.060 HD
BRANCH  75  77
ATOM     77  C   UNL     1     153.448 164.444 189.336  0.00  0.00    -0.017 C 
ATOM     78  H   UNL     1     153.013 164.374 188.331  0.00  0.00    +0.032 HD
BRANCH  77  79
ATOM     79  C   UNL     1     154.371 163.216 189.433  0.00  0.00    -0.060 C 
ATOM     80  H   UNL     1     155.245 163.284 188.781  0.00  0.00    +0.023 HD
ATOM     81  H   UNL     1     153.825 162.308 189.148  0.00  0.00    +0.023 HD
ATOM     82  H   UNL     1     154.724 163.077 190.461  0.00  0.00    +0.023 HD
ENDBRANCH  77  79
BRANCH  77  83
ATOM     83  C   UNL     1     152.262 164.341 190.329  0.00  0.00    -0.045 C 
ATOM     84  H   UNL     1     152.470 165.055 191.137  0.00  0.00    +0.027 HD
ATOM     85  H   UNL     1     152.262 163.350 190.798  0.00  0.00    +0.027 HD
BRANCH  83  86
ATOM     86  C   UNL     1     150.860 164.609 189.769  0.00  0.00    -0.015 C 
ATOM     87  H   UNL     1     150.417 163.676 189.408  0.00  0.00    +0.030 HD
ATOM     88  H   UNL     1     150.924 165.239 188.878  0.00  0.00    +0.030 HD
BRANCH  86  89
ATOM     89  C   UNL     1     149.923 165.308 190.780  0.00  0.00    +0.109 C 
ATOM     90  H   UNL     1     149.046 164.668 190.953  0.00  0.00    +0.074 HD
BRANCH  89  91
ATOM     91  C   UNL     1     149.382 166.722 190.401  0.00  0.00    +0.031 C 
ATOM     92  H   UNL     1     148.382 166.524 189.990  0.00  0.00    +0.037 HD
BRANCH  91  93
ATOM     93  C   UNL     1     150.217 167.334 189.271  0.00  0.00    -0.056 C 
ATOM     94  H   UNL     1     149.673 168.134 188.758  0.00  0.00    +0.023 HD
ATOM     95  H   UNL     1     150.504 166.585 188.527  0.00  0.00    +0.023 HD
ATOM     96  H   UNL     1     151.127 167.793 189.664  0.00  0.00    +0.023 HD
ENDBRANCH  91  93
BRANCH  91  97
ATOM     97  C   UNL     1     149.201 167.701 191.602  0.00  0.00    +0.115 C 
ATOM     98  H   UNL     1     149.588 167.201 192.501  0.00  0.00    +0.074 HD
BRANCH  97  99
ATOM     99  C   UNL     1     149.880 169.106 191.477  0.00  0.00    +0.013 C 
ATOM    100  H   UNL     1     150.084 169.263 190.408  0.00  0.00    +0.038 HD
BRANCH  99 101
ATOM    101  C   UNL     1     151.260 169.184 192.139  0.00  0.00    -0.056 C 
ATOM    102  H   UNL     1     151.894 169.916 191.625  0.00  0.00    +0.024 HD
ATOM    103  H   UNL     1     151.772 168.217 192.092  0.00  0.00    +0.024 HD
ATOM    104  H   UNL     1     151.198 169.491 193.188  0.00  0.00    +0.024 HD
ENDBRANCH  99 101
BRANCH  99 105
ATOM    105  C   UNL     1     149.003 170.257 191.933  0.00  0.00    -0.064 C 
ATOM    106  C   UNL     1     149.485 171.495 192.109  0.00  0.00    -0.005 C 
ATOM    107  H   UNL     1     147.968 170.019 192.149  0.00  0.00    +0.059 HD
ATOM    108  H   UNL     1     150.540 171.675 191.897  0.00  0.00    +0.078 HD
BRANCH 106 109
ATOM    109  N   UNL     1     148.794 172.622 192.529  0.00  0.00    -0.284 N 
ATOM    110  C   UNL     1     148.313 172.836 193.813  0.00  0.00    +0.206 C 
ATOM    111  O   UNL     1     147.679 173.813 194.198  0.00  0.00    -0.279 OA
ATOM    112  H   UNL     1     148.538 172.020 194.512  0.00  0.00    +0.126 HD
BRANCH 109 113
ATOM    113  C   UNL     1     148.528 173.646 191.523  0.00  0.00    +0.007 C 
ATOM    114  H   UNL     1     149.447 174.130 191.178  0.00  0.00    +0.043 HD
ATOM    115  H   UNL     1     148.031 173.187 190.661  0.00  0.00    +0.043 HD
ATOM    116  H   UNL     1     147.877 174.410 191.960  0.00  0.00    +0.043 HD
ENDBRANCH 109 113
ENDBRANCH 106 109
ENDBRANCH  99 105
ENDBRANCH  97  99
BRANCH  97 117
ATOM    117  O   UNL     1     147.778 167.931 191.780  0.00  0.00    -0.461 OA
BRANCH 117 118
ATOM    118  C   UNL     1     147.149 167.192 192.733  0.00  0.00    +0.304 C 
ATOM    119  O   UNL     1     147.253 167.348 193.941  0.00  0.00    -0.251 OA
BRANCH 118 120
ATOM    120  C   UNL     1     146.294 166.149 192.084  0.00  0.00    +0.033 C 
ATOM    121  H   UNL     1     145.573 165.767 192.812  0.00  0.00    +0.034 HD
ATOM    122  H   UNL     1     145.742 166.589 191.248  0.00  0.00    +0.034 HD
ATOM    123  H   UNL     1     146.918 165.320 191.739  0.00  0.00    +0.034 HD
ENDBRANCH 118 120
ENDBRANCH 117 118
ENDBRANCH  97 117
ENDBRANCH  91  97
ENDBRANCH  89  91
BRANCH  89 124
ATOM    124  O   UNL     1     150.622 165.425 192.046  0.00  0.00    -0.460 OA
BRANCH 124 125
ATOM    125  C   UNL     1     149.987 164.891 193.133  0.00  0.00    +0.324 C 
ATOM    126  O   UNL     1     149.288 163.885 193.106  0.00  0.00    -0.249 OA
BRANCH 125 127
ATOM    127  C   UNL     1     150.305 165.728 194.386  0.00  0.00    +0.105 C 
ATOM    128  H   UNL     1     149.721 166.657 194.345  0.00  0.00    +0.058 HD
BRANCH 127 129
ATOM    129  C   UNL     1     151.793 166.078 194.289  0.00  0.00    -0.039 C 
ATOM    130  H   UNL     1     151.938 167.112 193.957  0.00  0.00    +0.025 HD
ATOM    131  H   UNL     1     152.319 165.415 193.594  0.00  0.00    +0.025 HD
ATOM    132  H   UNL     1     152.282 165.981 195.265  0.00  0.00    +0.025 HD
ENDBRANCH 127 129
BRANCH 127 133
ATOM    133  N   UNL     1     149.950 164.978 195.626  0.00  0.00    -0.296 NA
BRANCH 133 134
ATOM    134  C   UNL     1     151.128 164.426 196.300  0.00  0.00    -0.012 C 
ATOM    135  H   UNL     1     152.043 164.895 195.920  0.00  0.00    +0.039 HD
ATOM    136  H   UNL     1     151.212 163.344 196.156  0.00  0.00    +0.039 HD
ATOM    137  H   UNL     1     151.108 164.640 197.372  0.00  0.00    +0.039 HD
ENDBRANCH 133 134
BRANCH 133 138
ATOM    138  C   UNL     1     149.213 165.832 196.568  0.00  0.00    -0.012 C 
ATOM    139  H   UNL     1     149.737 165.885 197.529  0.00  0.00    +0.039 HD
ATOM    140  H   UNL     1     149.091 166.851 196.186  0.00  0.00    +0.039 HD
ATOM    141  H   UNL     1     148.222 165.425 196.791  0.00  0.00    +0.039 HD
ENDBRANCH 133 138
ENDBRANCH 127 133
ENDBRANCH 125 127
ENDBRANCH 124 125
ENDBRANCH  89 124
ENDBRANCH  86  89
ENDBRANCH  83  86
ENDBRANCH  77  83
ENDBRANCH  75  77
BRANCH  75 142
ATOM    142  O   UNL     1     153.580 166.707 190.220  0.00  0.00    -0.391 OA
ATOM    143  H   UNL     1     154.241 167.294 190.622  0.00  0.00    +0.210 HD
ENDBRANCH  75 142
ENDBRANCH  69  75
ENDBRANCH  14  69
BRANCH  25 144
ATOM    144  O   UNL     1     151.267 170.064 179.550  0.00  0.00    -0.391 OA
ATOM    145  H   UNL     1     150.685 169.312 179.741  0.00  0.00    +0.210 HD
ENDBRANCH  25 144
BRANCH  23 146
ATOM    146  O   UNL     1     151.434 167.248 180.251  0.00  0.00    -0.460 OA
BRANCH 146 147
ATOM    147  C   UNL     1     150.255 166.583 180.145  0.00  0.00    +0.327 C 
ATOM    148  O   UNL     1     149.703 165.984 181.065  0.00  0.00    -0.249 OA
BRANCH 147 149
ATOM    149  C   UNL     1     149.645 166.732 178.743  0.00  0.00    +0.131 C 
ATOM    150  H   UNL     1     150.388 167.299 178.163  0.00  0.00    +0.060 HD
BRANCH 149 151
ATOM    151  C   UNL     1     148.397 167.644 178.848  0.00  0.00    +0.073 C 
ATOM    152  H   UNL     1     147.855 167.654 177.892  0.00  0.00    +0.058 HD
ATOM    153  H   UNL     1     147.722 167.241 179.614  0.00  0.00    +0.058 HD
BRANCH 151 154
ATOM    154  O   UNL     1     148.727 168.991 179.214  0.00  0.00    -0.381 OA
BRANCH 154 155
ATOM    155  C   UNL     1     147.691 169.893 178.847  0.00  0.00    +0.037 C 
ATOM    156  H   UNL     1     146.718 169.496 179.147  0.00  0.00    +0.052 HD
ATOM    157  H   UNL     1     147.859 170.874 179.302  0.00  0.00    +0.052 HD
ATOM    158  H   UNL     1     147.703 170.004 177.760  0.00  0.00    +0.052 HD
ENDBRANCH 154 155
ENDBRANCH 151 154
ENDBRANCH 149 151
BRANCH 149 159
ATOM    159  N   UNL     1     149.443 165.395 178.099  0.00  0.00    -0.294 NA
BRANCH 159 160
ATOM    160  C   UNL     1     149.962 165.377 176.727  0.00  0.00    -0.012 C 
ATOM    161  H   UNL     1     150.988 164.994 176.680  0.00  0.00    +0.039 HD
ATOM    162  H   UNL     1     149.956 166.386 176.298  0.00  0.00    +0.039 HD
ATOM    163  H   UNL     1     149.332 164.772 176.068  0.00  0.00    +0.039 HD
ENDBRANCH 159 160
BRANCH 159 164
ATOM    164  C   UNL     1     148.035 164.996 178.094  0.00  0.00    -0.012 C 
ATOM    165  H   UNL     1     147.574 165.195 179.070  0.00  0.00    +0.039 HD
ATOM    166  H   UNL     1     147.453 165.575 177.370  0.00  0.00    +0.039 HD
ATOM    167  H   UNL     1     147.910 163.931 177.869  0.00  0.00    +0.039 HD
ENDBRANCH 159 164
ENDBRANCH 149 159
ENDBRANCH 147 149
ENDBRANCH 146 147
ENDBRANCH  23 146
BRANCH   4 168
ATOM    168  O   UNL     1     155.431 172.545 182.997  0.00  0.00    -0.376 OA
BRANCH 168 169
ATOM    169  C   UNL     1     155.785 173.310 184.144  0.00  0.00    +0.037 C 
ATOM    170  H   UNL     1     154.975 173.222 184.871  0.00  0.00    +0.052 HD
ATOM    171  H   UNL     1     155.894 174.367 183.888  0.00  0.00    +0.052 HD
ATOM    172  H   UNL     1     156.702 172.932 184.600  0.00  0.00    +0.052 HD
ENDBRANCH 168 169
ENDBRANCH   4 168
BRANCH  10 173
ATOM    173  O   UNL     1     158.935 166.994 182.824  0.00  0.00    -0.376 OA
BRANCH 173 174
ATOM    174  C   UNL     1     157.914 167.190 181.856  0.00  0.00    +0.037 C 
ATOM    175  H   UNL     1     157.729 168.255 181.705  0.00  0.00    +0.052 HD
ATOM    176  H   UNL     1     156.994 166.729 182.227  0.00  0.00    +0.052 HD
ATOM    177  H   UNL     1     158.183 166.708 180.912  0.00  0.00    +0.052 HD
ENDBRANCH 173 174
ENDBRANCH  10 173
TORSDOF 45
ENDMDL
MODEL 6
REMARK VINA RESULT:      -4.7      5.128      9.037
REMARK  Name = Aplyronine A_conf3
REMARK  45 active torsions:
REMARK  status: ('A' for Active; 'I' for Inactive)
REMARK    1  A    between atoms: C_1  and  C_2
REMARK    2  A    between atoms: C_5  and  O_75
REMARK    3  A    between atoms: C_6  and  C_74
REMARK    4  A    between atoms: C_9  and  C_73
REMARK    5  A    between atoms: C_11  and  O_71
REMARK    6  A    between atoms: C_15  and  C_39
REMARK    7  A    between atoms: C_24  and  O_29
REMARK    8  A    between atoms: C_25  and  C_28
REMARK    9  A    between atoms: C_26  and  O_27
REMARK   10  A    between atoms: O_29  and  C_30
REMARK   11  A    between atoms: C_30  and  C_32
REMARK   12  A    between atoms: C_32  and  C_33
REMARK   13  A    between atoms: C_32  and  N_36
REMARK   14  A    between atoms: C_33  and  O_34
REMARK   15  A    between atoms: O_34  and  C_35
REMARK   16  A    between atoms: N_36  and  C_37
REMARK   17  A    between atoms: N_36  and  C_38
REMARK   18  A    between atoms: C_39  and  C_40
REMARK   19  A    between atoms: C_39  and  C_41
REMARK   20  A    between atoms: C_41  and  C_42
REMARK   21  A    between atoms: C_41  and  O_70
REMARK   22  A    between atoms: C_42  and  C_43
REMARK   23  A    between atoms: C_42  and  C_44
REMARK   24  A    between atoms: C_44  and  C_45
REMARK   25  A    between atoms: C_45  and  C_46
REMARK   26  A    between atoms: C_46  and  C_47
REMARK   27  A    between atoms: C_46  and  O_62
REMARK   28  A    between atoms: C_47  and  C_48
REMARK   29  A    between atoms: C_47  and  C_49
REMARK   30  A    between atoms: C_49  and  C_50
REMARK   31  A    between atoms: C_49  and  O_58
REMARK   32  A    between atoms: C_50  and  C_51
REMARK   33  A    between atoms: C_50  and  C_52
REMARK   34  A    between atoms: C_53  and  N_54
REMARK   35  A    between atoms: N_54  and  C_55
REMARK   36  A    between atoms: O_58  and  C_59
REMARK   37  A    between atoms: C_59  and  C_61
REMARK   38  A    between atoms: O_62  and  C_63
REMARK   39  A    between atoms: C_63  and  C_65
REMARK   40  A    between atoms: C_65  and  C_66
REMARK   41  A    between atoms: C_65  and  N_67
REMARK   42  A    between atoms: N_67  and  C_68
REMARK   43  A    between atoms: N_67  and  C_69
REMARK   44  A    between atoms: O_71  and  C_72
REMARK   45  A    between atoms: O_75  and  C_76
REMARK                            x       y       z     vdW  Elec       q    Type
REMARK                         _______ _______ _______ _____ _____    ______ ____
ROOT
ATOM      1  C   UNL     1     145.924 165.330 189.203  0.00  0.00    -0.017 C 
ATOM      2  C   UNL     1     146.783 164.076 189.479  0.00  0.00    -0.045 C 
ATOM      3  C   UNL     1     148.124 164.041 188.723  0.00  0.00    -0.022 C 
ATOM      4  C   UNL     1     148.358 162.786 187.844  0.00  0.00    +0.079 C 
ATOM      5  C   UNL     1     148.754 161.507 188.589  0.00  0.00    -0.048 C 
ATOM      6  C   UNL     1     149.854 160.825 188.198  0.00  0.00    -0.082 C 
ATOM      7  C   UNL     1     150.388 159.524 188.731  0.00  0.00    -0.032 C 
ATOM      8  C   UNL     1     151.421 159.649 189.870  0.00  0.00    -0.038 C 
ATOM      9  C   UNL     1     152.666 160.486 189.482  0.00  0.00    -0.020 C 
ATOM     10  C   UNL     1     152.487 161.996 189.714  0.00  0.00    +0.077 C 
ATOM     11  C   UNL     1     153.708 162.753 189.264  0.00  0.00    -0.059 C 
ATOM     12  C   UNL     1     153.828 163.393 188.089  0.00  0.00    -0.082 C 
ATOM     13  C   UNL     1     155.020 164.257 187.756  0.00  0.00    +0.003 C 
ATOM     14  C   UNL     1     154.669 165.656 187.194  0.00  0.00    +0.112 C 
ATOM     15  O   UNL     1     153.509 166.189 187.883  0.00  0.00    -0.458 OA
ATOM     16  C   UNL     1     153.623 166.573 189.174  0.00  0.00    +0.332 C 
ATOM     17  O   UNL     1     154.626 166.579 189.863  0.00  0.00    -0.246 OA
ATOM     18  C   UNL     1     152.264 166.967 189.585  0.00  0.00    +0.022 C 
ATOM     19  C   UNL     1     151.896 167.109 190.865  0.00  0.00    -0.055 C 
ATOM     20  C   UNL     1     150.530 167.457 191.169  0.00  0.00    -0.065 C 
ATOM     21  C   UNL     1     150.036 167.737 192.383  0.00  0.00    -0.081 C 
ATOM     22  C   UNL     1     148.627 168.213 192.685  0.00  0.00    +0.003 C 
ATOM     23  C   UNL     1     147.549 168.193 191.562  0.00  0.00    +0.111 C 
ATOM     24  C   UNL     1     147.078 166.744 191.185  0.00  0.00    +0.020 C 
ATOM     25  C   UNL     1     146.502 166.674 189.738  0.00  0.00    +0.064 C 
ATOM     26  H   UNL     1     145.873 165.446 188.110  0.00  0.00    +0.032 HD
ATOM     27  H   UNL     1     146.186 163.198 189.218  0.00  0.00    +0.027 HD
ATOM     28  H   UNL     1     146.978 163.983 190.552  0.00  0.00    +0.027 HD
ATOM     29  H   UNL     1     148.175 164.910 188.056  0.00  0.00    +0.029 HD
ATOM     30  H   UNL     1     148.951 164.154 189.435  0.00  0.00    +0.029 HD
ATOM     31  H   UNL     1     149.172 163.063 187.159  0.00  0.00    +0.064 HD
ATOM     32  H   UNL     1     150.439 161.221 187.365  0.00  0.00    +0.057 HD
ATOM     33  H   UNL     1     150.840 158.986 187.887  0.00  0.00    +0.031 HD
ATOM     34  H   UNL     1     149.560 158.881 189.055  0.00  0.00    +0.031 HD
ATOM     35  H   UNL     1     150.931 160.104 190.741  0.00  0.00    +0.030 HD
ATOM     36  H   UNL     1     152.934 160.287 188.436  0.00  0.00    +0.030 HD
ATOM     37  H   UNL     1     153.516 160.153 190.095  0.00  0.00    +0.030 HD
ATOM     38  H   UNL     1     151.607 162.373 189.188  0.00  0.00    +0.064 HD
ATOM     39  H   UNL     1     154.515 162.811 189.994  0.00  0.00    +0.059 HD
ATOM     40  H   UNL     1     153.035 163.337 187.347  0.00  0.00    +0.057 HD
ATOM     41  H   UNL     1     155.701 163.715 187.096  0.00  0.00    +0.034 HD
ATOM     42  H   UNL     1     155.593 164.417 188.680  0.00  0.00    +0.034 HD
ATOM     43  H   UNL     1     155.521 166.322 187.387  0.00  0.00    +0.074 HD
ATOM     44  H   UNL     1     151.556 167.122 188.776  0.00  0.00    +0.069 HD
ATOM     45  H   UNL     1     152.606 166.966 191.674  0.00  0.00    +0.062 HD
ATOM     46  H   UNL     1     149.888 167.529 190.295  0.00  0.00    +0.061 HD
ATOM     47  H   UNL     1     150.696 167.683 193.246  0.00  0.00    +0.057 HD
ATOM     48  H   UNL     1     148.262 167.650 193.550  0.00  0.00    +0.034 HD
ATOM     49  H   UNL     1     148.734 169.251 193.027  0.00  0.00    +0.034 HD
ATOM     50  H   UNL     1     146.667 168.744 191.918  0.00  0.00    +0.074 HD
ATOM     51  H   UNL     1     147.949 166.079 191.210  0.00  0.00    +0.036 HD
ATOM     52  H   UNL     1     147.337 166.915 189.069  0.00  0.00    +0.060 HD
ENDROOT
BRANCH   1  53
ATOM     53  C   UNL     1     144.464 165.061 189.609  0.00  0.00    -0.060 C 
ATOM     54  H   UNL     1     144.412 164.787 190.669  0.00  0.00    +0.023 HD
ATOM     55  H   UNL     1     144.041 164.220 189.053  0.00  0.00    +0.023 HD
ATOM     56  H   UNL     1     143.819 165.928 189.467  0.00  0.00    +0.023 HD
ENDBRANCH   1  53
BRANCH   5  57
ATOM     57  C   UNL     1     147.859 161.046 189.707  0.00  0.00    -0.041 C 
ATOM     58  H   UNL     1     147.321 161.893 190.142  0.00  0.00    +0.028 HD
ATOM     59  H   UNL     1     147.133 160.313 189.338  0.00  0.00    +0.028 HD
ATOM     60  H   UNL     1     148.399 160.571 190.529  0.00  0.00    +0.028 HD
ENDBRANCH   5  57
BRANCH  24  61
ATOM     61  C   UNL     1     146.098 166.250 192.259  0.00  0.00    -0.057 C 
ATOM     62  H   UNL     1     146.579 165.564 192.963  0.00  0.00    +0.023 HD
ATOM     63  H   UNL     1     145.690 167.082 192.839  0.00  0.00    +0.023 HD
ATOM     64  H   UNL     1     145.270 165.694 191.816  0.00  0.00    +0.023 HD
ENDBRANCH  24  61
BRANCH   8  65
ATOM     65  C   UNL     1     151.865 158.241 190.286  0.00  0.00    -0.062 C 
ATOM     66  H   UNL     1     151.383 157.931 191.219  0.00  0.00    +0.023 HD
ATOM     67  H   UNL     1     152.950 158.200 190.432  0.00  0.00    +0.023 HD
ATOM     68  H   UNL     1     151.609 157.509 189.511  0.00  0.00    +0.023 HD
ENDBRANCH   8  65
BRANCH  14  69
ATOM     69  C   UNL     1     154.328 165.760 185.667  0.00  0.00    +0.020 C 
ATOM     70  H   UNL     1     154.878 164.963 185.146  0.00  0.00    +0.036 HD
BRANCH  69  71
ATOM     71  C   UNL     1     152.823 165.452 185.510  0.00  0.00    -0.057 C 
ATOM     72  H   UNL     1     152.404 164.982 186.404  0.00  0.00    +0.023 HD
ATOM     73  H   UNL     1     152.646 164.789 184.656  0.00  0.00    +0.023 HD
ATOM     74  H   UNL     1     152.233 166.361 185.351  0.00  0.00    +0.023 HD
ENDBRANCH  69  71
BRANCH  69  75
ATOM     75  C   UNL     1     154.727 167.130 185.056  0.00  0.00    +0.064 C 
ATOM     76  H   UNL     1     153.803 167.656 184.782  0.00  0.00    +0.060 HD
BRANCH  75  77
ATOM     77  C   UNL     1     155.646 167.095 183.806  0.00  0.00    -0.017 C 
ATOM     78  H   UNL     1     156.482 167.778 183.996  0.00  0.00    +0.032 HD
BRANCH  77  79
ATOM     79  C   UNL     1     156.314 165.716 183.648  0.00  0.00    -0.060 C 
ATOM     80  H   UNL     1     156.810 165.375 184.559  0.00  0.00    +0.023 HD
ATOM     81  H   UNL     1     157.075 165.752 182.859  0.00  0.00    +0.023 HD
ATOM     82  H   UNL     1     155.576 164.960 183.358  0.00  0.00    +0.023 HD
ENDBRANCH  77  79
BRANCH  77  83
ATOM     83  C   UNL     1     154.998 167.565 182.478  0.00  0.00    -0.045 C 
ATOM     84  H   UNL     1     153.946 167.782 182.706  0.00  0.00    +0.027 HD
ATOM     85  H   UNL     1     154.984 166.735 181.763  0.00  0.00    +0.027 HD
BRANCH  83  86
ATOM     86  C   UNL     1     155.625 168.783 181.790  0.00  0.00    -0.015 C 
ATOM     87  H   UNL     1     155.148 168.952 180.820  0.00  0.00    +0.030 HD
ATOM     88  H   UNL     1     156.671 168.581 181.543  0.00  0.00    +0.030 HD
BRANCH  86  89
ATOM     89  C   UNL     1     155.579 170.063 182.655  0.00  0.00    +0.109 C 
ATOM     90  H   UNL     1     155.176 169.808 183.646  0.00  0.00    +0.074 HD
BRANCH  89  91
ATOM     91  C   UNL     1     154.738 171.263 182.121  0.00  0.00    +0.031 C 
ATOM     92  H   UNL     1     154.016 171.463 182.926  0.00  0.00    +0.037 HD
BRANCH  91  93
ATOM     93  C   UNL     1     153.928 170.847 180.888  0.00  0.00    -0.056 C 
ATOM     94  H   UNL     1     153.429 169.883 181.041  0.00  0.00    +0.023 HD
ATOM     95  H   UNL     1     154.556 170.767 179.996  0.00  0.00    +0.023 HD
ATOM     96  H   UNL     1     153.132 171.567 180.683  0.00  0.00    +0.023 HD
ENDBRANCH  91  93
BRANCH  91  97
ATOM     97  C   UNL     1     155.542 172.579 181.885  0.00  0.00    +0.115 C 
ATOM     98  H   UNL     1     156.607 172.348 182.025  0.00  0.00    +0.074 HD
BRANCH  97  99
ATOM     99  C   UNL     1     155.358 173.281 180.499  0.00  0.00    +0.013 C 
ATOM    100  H   UNL     1     154.586 172.715 179.958  0.00  0.00    +0.038 HD
BRANCH  99 101
ATOM    101  C   UNL     1     156.593 173.189 179.594  0.00  0.00    -0.056 C 
ATOM    102  H   UNL     1     156.319 173.374 178.549  0.00  0.00    +0.024 HD
ATOM    103  H   UNL     1     157.041 172.192 179.644  0.00  0.00    +0.024 HD
ATOM    104  H   UNL     1     157.357 173.925 179.863  0.00  0.00    +0.024 HD
ENDBRANCH  99 101
BRANCH  99 105
ATOM    105  C   UNL     1     154.872 174.714 180.594  0.00  0.00    -0.064 C 
ATOM    106  C   UNL     1     154.993 175.579 179.575  0.00  0.00    -0.005 C 
ATOM    107  H   UNL     1     154.453 175.020 181.545  0.00  0.00    +0.059 HD
ATOM    108  H   UNL     1     155.442 175.225 178.647  0.00  0.00    +0.078 HD
BRANCH 106 109
ATOM    109  N   UNL     1     154.600 176.908 179.542  0.00  0.00    -0.284 N 
ATOM    110  C   UNL     1     155.405 177.992 179.861  0.00  0.00    +0.206 C 
ATOM    111  O   UNL     1     155.069 179.172 179.861  0.00  0.00    -0.279 OA
ATOM    112  H   UNL     1     156.429 177.715 180.144  0.00  0.00    +0.126 HD
BRANCH 109 113
ATOM    113  C   UNL     1     153.214 177.177 179.168  0.00  0.00    +0.007 C 
ATOM    114  H   UNL     1     153.020 176.943 178.117  0.00  0.00    +0.043 HD
ATOM    115  H   UNL     1     152.547 176.569 179.789  0.00  0.00    +0.043 HD
ATOM    116  H   UNL     1     153.004 178.238 179.332  0.00  0.00    +0.043 HD
ENDBRANCH 109 113
ENDBRANCH 106 109
ENDBRANCH  99 105
ENDBRANCH  97  99
BRANCH  97 117
ATOM    117  O   UNL     1     155.141 173.535 182.902  0.00  0.00    -0.461 OA
BRANCH 117 118
ATOM    118  C   UNL     1     155.978 173.695 183.962  0.00  0.00    +0.304 C 
ATOM    119  O   UNL     1     155.790 173.265 185.091  0.00  0.00    -0.251 OA
BRANCH 118 120
ATOM    120  C   UNL     1     157.185 174.476 183.543  0.00  0.00    +0.033 C 
ATOM    121  H   UNL     1     157.689 174.868 184.431  0.00  0.00    +0.034 HD
ATOM    122  H   UNL     1     157.882 173.824 183.009  0.00  0.00    +0.034 HD
ATOM    123  H   UNL     1     156.881 175.315 182.912  0.00  0.00    +0.034 HD
ENDBRANCH 118 120
ENDBRANCH 117 118
ENDBRANCH  97 117
ENDBRANCH  91  97
ENDBRANCH  89  91
BRANCH  89 124
ATOM    124  O   UNL     1     156.939 170.528 182.855  0.00  0.00    -0.460 OA
BRANCH 124 125
ATOM    125  C   UNL     1     157.424 170.434 184.129  0.00  0.00    +0.324 C 
ATOM    126  O   UNL     1     156.744 170.174 185.115  0.00  0.00    -0.249 OA
BRANCH 125 127
ATOM    127  C   UNL     1     158.945 170.677 184.129  0.00  0.00    +0.105 C 
ATOM    128  H   UNL     1     159.206 171.266 185.018  0.00  0.00    +0.058 HD
BRANCH 127 129
ATOM    129  C   UNL     1     159.233 171.520 182.881  0.00  0.00    -0.039 C 
ATOM    130  H   UNL     1     160.241 171.331 182.497  0.00  0.00    +0.025 HD
ATOM    131  H   UNL     1     159.136 172.591 183.087  0.00  0.00    +0.025 HD
ATOM    132  H   UNL     1     158.530 171.277 182.076  0.00  0.00    +0.025 HD
ENDBRANCH 127 129
BRANCH 127 133
ATOM    133  N   UNL     1     159.688 169.384 184.158  0.00  0.00    -0.296 NA
BRANCH 133 134
ATOM    134  C   UNL     1     161.009 169.487 183.534  0.00  0.00    -0.012 C 
ATOM    135  H   UNL     1     161.278 170.536 183.373  0.00  0.00    +0.039 HD
ATOM    136  H   UNL     1     161.048 168.970 182.570  0.00  0.00    +0.039 HD
ATOM    137  H   UNL     1     161.787 169.078 184.186  0.00  0.00    +0.039 HD
ENDBRANCH 133 134
BRANCH 133 138
ATOM    138  C   UNL     1     159.841 168.893 185.534  0.00  0.00    -0.012 C 
ATOM    139  H   UNL     1     160.578 169.496 186.077  0.00  0.00    +0.039 HD
ATOM    140  H   UNL     1     158.896 168.925 186.087  0.00  0.00    +0.039 HD
ATOM    141  H   UNL     1     160.220 167.867 185.557  0.00  0.00    +0.039 HD
ENDBRANCH 133 138
ENDBRANCH 127 133
ENDBRANCH 125 127
ENDBRANCH 124 125
ENDBRANCH  89 124
ENDBRANCH  86  89
ENDBRANCH  83  86
ENDBRANCH  77  83
ENDBRANCH  75  77
BRANCH  75 142
ATOM    142  O   UNL     1     155.357 167.895 186.085  0.00  0.00    -0.391 OA
ATOM    143  H   UNL     1     154.877 167.740 186.915  0.00  0.00    +0.210 HD
ENDBRANCH  75 142
ENDBRANCH  69  75
ENDBRANCH  14  69
BRANCH  25 144
ATOM    144  O   UNL     1     145.544 167.718 189.534  0.00  0.00    -0.391 OA
ATOM    145  H   UNL     1     144.675 167.397 189.822  0.00  0.00    +0.210 HD
ENDBRANCH  25 144
BRANCH  23 146
ATOM    146  O   UNL     1     148.075 168.858 190.398  0.00  0.00    -0.460 OA
BRANCH 146 147
ATOM    147  C   UNL     1     147.518 170.037 190.021  0.00  0.00    +0.327 C 
ATOM    148  O   UNL     1     147.031 170.261 188.916  0.00  0.00    -0.249 OA
BRANCH 147 149
ATOM    149  C   UNL     1     147.497 171.047 191.178  0.00  0.00    +0.131 C 
ATOM    150  H   UNL     1     147.556 170.441 192.094  0.00  0.00    +0.060 HD
BRANCH 149 151
ATOM    151  C   UNL     1     146.107 171.731 191.206  0.00  0.00    +0.073 C 
ATOM    152  H   UNL     1     146.042 172.421 192.058  0.00  0.00    +0.058 HD
ATOM    153  H   UNL     1     145.979 172.318 190.287  0.00  0.00    +0.058 HD
BRANCH 151 154
ATOM    154  O   UNL     1     145.030 170.787 191.283  0.00  0.00    -0.381 OA
BRANCH 154 155
ATOM    155  C   UNL     1     143.910 171.222 190.523  0.00  0.00    +0.037 C 
ATOM    156  H   UNL     1     143.823 170.636 189.604  0.00  0.00    +0.052 HD
ATOM    157  H   UNL     1     142.993 171.141 191.114  0.00  0.00    +0.052 HD
ATOM    158  H   UNL     1     144.064 172.270 190.255  0.00  0.00    +0.052 HD
ENDBRANCH 154 155
ENDBRANCH 151 154
ENDBRANCH 149 151
BRANCH 149 159
ATOM    159  N   UNL     1     148.687 171.956 191.121  0.00  0.00    -0.294 NA
BRANCH 159 160
ATOM    160  C   UNL     1     149.609 171.704 192.233  0.00  0.00    -0.012 C 
ATOM    161  H   UNL     1     149.250 172.141 193.173  0.00  0.00    +0.039 HD
ATOM    162  H   UNL     1     150.599 172.125 192.019  0.00  0.00    +0.039 HD
ATOM    163  H   UNL     1     149.770 170.633 192.386  0.00  0.00    +0.039 HD
ENDBRANCH 159 160
BRANCH 159 164
ATOM    164  C   UNL     1     148.300 173.368 191.118  0.00  0.00    -0.012 C 
ATOM    165  H   UNL     1     148.691 173.873 190.226  0.00  0.00    +0.039 HD
ATOM    166  H   UNL     1     147.212 173.488 191.071  0.00  0.00    +0.039 HD
ATOM    167  H   UNL     1     148.671 173.899 192.001  0.00  0.00    +0.039 HD
ENDBRANCH 159 164
ENDBRANCH 149 159
ENDBRANCH 147 149
ENDBRANCH 146 147
ENDBRANCH  23 146
BRANCH   4 168
ATOM    168  O   UNL     1     147.179 162.566 187.053  0.00  0.00    -0.376 OA
BRANCH 168 169
ATOM    169  C   UNL     1     147.182 163.288 185.826  0.00  0.00    +0.037 C 
ATOM    170  H   UNL     1     146.155 163.592 185.612  0.00  0.00    +0.052 HD
ATOM    171  H   UNL     1     147.524 162.655 185.004  0.00  0.00    +0.052 HD
ATOM    172  H   UNL     1     147.800 164.185 185.900  0.00  0.00    +0.052 HD
ENDBRANCH 168 169
ENDBRANCH   4 168
BRANCH  10 173
ATOM    173  O   UNL     1     152.317 162.193 191.125  0.00  0.00    -0.376 OA
BRANCH 173 174
ATOM    174  C   UNL     1     151.336 163.170 191.440  0.00  0.00    +0.037 C 
ATOM    175  H   UNL     1     150.402 162.959 190.914  0.00  0.00    +0.052 HD
ATOM    176  H   UNL     1     151.705 164.146 191.110  0.00  0.00    +0.052 HD
ATOM    177  H   UNL     1     151.168 163.213 192.520  0.00  0.00    +0.052 HD
ENDBRANCH 173 174
ENDBRANCH  10 173
TORSDOF 45
ENDMDL
MODEL 7
REMARK VINA RESULT:      -4.6      7.339     12.388
REMARK  Name = Aplyronine A_conf3
REMARK  45 active torsions:
REMARK  status: ('A' for Active; 'I' for Inactive)
REMARK    1  A    between atoms: C_1  and  C_2
REMARK    2  A    between atoms: C_5  and  O_75
REMARK    3  A    between atoms: C_6  and  C_74
REMARK    4  A    between atoms: C_9  and  C_73
REMARK    5  A    between atoms: C_11  and  O_71
REMARK    6  A    between atoms: C_15  and  C_39
REMARK    7  A    between atoms: C_24  and  O_29
REMARK    8  A    between atoms: C_25  and  C_28
REMARK    9  A    between atoms: C_26  and  O_27
REMARK   10  A    between atoms: O_29  and  C_30
REMARK   11  A    between atoms: C_30  and  C_32
REMARK   12  A    between atoms: C_32  and  C_33
REMARK   13  A    between atoms: C_32  and  N_36
REMARK   14  A    between atoms: C_33  and  O_34
REMARK   15  A    between atoms: O_34  and  C_35
REMARK   16  A    between atoms: N_36  and  C_37
REMARK   17  A    between atoms: N_36  and  C_38
REMARK   18  A    between atoms: C_39  and  C_40
REMARK   19  A    between atoms: C_39  and  C_41
REMARK   20  A    between atoms: C_41  and  C_42
REMARK   21  A    between atoms: C_41  and  O_70
REMARK   22  A    between atoms: C_42  and  C_43
REMARK   23  A    between atoms: C_42  and  C_44
REMARK   24  A    between atoms: C_44  and  C_45
REMARK   25  A    between atoms: C_45  and  C_46
REMARK   26  A    between atoms: C_46  and  C_47
REMARK   27  A    between atoms: C_46  and  O_62
REMARK   28  A    between atoms: C_47  and  C_48
REMARK   29  A    between atoms: C_47  and  C_49
REMARK   30  A    between atoms: C_49  and  C_50
REMARK   31  A    between atoms: C_49  and  O_58
REMARK   32  A    between atoms: C_50  and  C_51
REMARK   33  A    between atoms: C_50  and  C_52
REMARK   34  A    between atoms: C_53  and  N_54
REMARK   35  A    between atoms: N_54  and  C_55
REMARK   36  A    between atoms: O_58  and  C_59
REMARK   37  A    between atoms: C_59  and  C_61
REMARK   38  A    between atoms: O_62  and  C_63
REMARK   39  A    between atoms: C_63  and  C_65
REMARK   40  A    between atoms: C_65  and  C_66
REMARK   41  A    between atoms: C_65  and  N_67
REMARK   42  A    between atoms: N_67  and  C_68
REMARK   43  A    between atoms: N_67  and  C_69
REMARK   44  A    between atoms: O_71  and  C_72
REMARK   45  A    between atoms: O_75  and  C_76
REMARK                            x       y       z     vdW  Elec       q    Type
REMARK                         _______ _______ _______ _____ _____    ______ ____
ROOT
ATOM      1  C   UNL     1     145.605 178.899 184.913  0.00  0.00    -0.017 C 
ATOM      2  C   UNL     1     144.341 178.026 184.741  0.00  0.00    -0.045 C 
ATOM      3  C   UNL     1     144.270 176.811 185.684  0.00  0.00    -0.022 C 
ATOM      4  C   UNL     1     144.101 175.437 184.986  0.00  0.00    +0.079 C 
ATOM      5  C   UNL     1     142.695 175.111 184.474  0.00  0.00    -0.048 C 
ATOM      6  C   UNL     1     142.115 173.942 184.827  0.00  0.00    -0.082 C 
ATOM      7  C   UNL     1     140.787 173.387 184.393  0.00  0.00    -0.032 C 
ATOM      8  C   UNL     1     139.592 173.738 185.305  0.00  0.00    -0.038 C 
ATOM      9  C   UNL     1     139.782 173.273 186.772  0.00  0.00    -0.020 C 
ATOM     10  C   UNL     1     140.527 174.296 187.647  0.00  0.00    +0.077 C 
ATOM     11  C   UNL     1     140.726 173.759 189.040  0.00  0.00    -0.059 C 
ATOM     12  C   UNL     1     141.860 173.201 189.495  0.00  0.00    -0.082 C 
ATOM     13  C   UNL     1     142.049 172.817 190.942  0.00  0.00    +0.003 C 
ATOM     14  C   UNL     1     143.372 173.310 191.577  0.00  0.00    +0.112 C 
ATOM     15  O   UNL     1     143.685 174.642 191.095  0.00  0.00    -0.458 OA
ATOM     16  C   UNL     1     142.930 175.688 191.497  0.00  0.00    +0.332 C 
ATOM     17  O   UNL     1     142.003 175.676 192.286  0.00  0.00    -0.246 OA
ATOM     18  C   UNL     1     143.450 176.852 190.761  0.00  0.00    +0.022 C 
ATOM     19  C   UNL     1     142.781 178.006 190.641  0.00  0.00    -0.055 C 
ATOM     20  C   UNL     1     143.356 179.075 189.864  0.00  0.00    -0.065 C 
ATOM     21  C   UNL     1     142.864 180.316 189.739  0.00  0.00    -0.081 C 
ATOM     22  C   UNL     1     143.531 181.471 189.014  0.00  0.00    +0.003 C 
ATOM     23  C   UNL     1     144.791 181.208 188.138  0.00  0.00    +0.111 C 
ATOM     24  C   UNL     1     144.468 180.438 186.810  0.00  0.00    +0.020 C 
ATOM     25  C   UNL     1     145.710 179.673 186.261  0.00  0.00    +0.064 C 
ATOM     26  H   UNL     1     146.468 178.215 184.898  0.00  0.00    +0.032 HD
ATOM     27  H   UNL     1     144.306 177.691 183.700  0.00  0.00    +0.027 HD
ATOM     28  H   UNL     1     143.443 178.635 184.878  0.00  0.00    +0.027 HD
ATOM     29  H   UNL     1     145.200 176.761 186.264  0.00  0.00    +0.029 HD
ATOM     30  H   UNL     1     143.464 176.957 186.413  0.00  0.00    +0.029 HD
ATOM     31  H   UNL     1     144.384 174.694 185.745  0.00  0.00    +0.064 HD
ATOM     32  H   UNL     1     142.668 173.269 185.486  0.00  0.00    +0.057 HD
ATOM     33  H   UNL     1     140.892 172.295 184.334  0.00  0.00    +0.031 HD
ATOM     34  H   UNL     1     140.566 173.698 183.364  0.00  0.00    +0.031 HD
ATOM     35  H   UNL     1     139.440 174.824 185.282  0.00  0.00    +0.030 HD
ATOM     36  H   UNL     1     140.297 172.305 186.789  0.00  0.00    +0.030 HD
ATOM     37  H   UNL     1     138.790 173.112 187.218  0.00  0.00    +0.030 HD
ATOM     38  H   UNL     1     141.494 174.556 187.212  0.00  0.00    +0.064 HD
ATOM     39  H   UNL     1     139.886 173.901 189.718  0.00  0.00    +0.059 HD
ATOM     40  H   UNL     1     142.705 173.046 188.827  0.00  0.00    +0.057 HD
ATOM     41  H   UNL     1     141.921 171.738 191.061  0.00  0.00    +0.034 HD
ATOM     42  H   UNL     1     141.229 173.262 191.523  0.00  0.00    +0.034 HD
ATOM     43  H   UNL     1     143.228 173.362 192.664  0.00  0.00    +0.074 HD
ATOM     44  H   UNL     1     144.421 176.715 190.293  0.00  0.00    +0.069 HD
ATOM     45  H   UNL     1     141.816 178.148 191.119  0.00  0.00    +0.062 HD
ATOM     46  H   UNL     1     144.298 178.817 189.388  0.00  0.00    +0.061 HD
ATOM     47  H   UNL     1     141.932 180.567 190.241  0.00  0.00    +0.057 HD
ATOM     48  H   UNL     1     142.766 181.972 188.411  0.00  0.00    +0.034 HD
ATOM     49  H   UNL     1     143.811 182.188 189.797  0.00  0.00    +0.034 HD
ATOM     50  H   UNL     1     145.228 182.177 187.860  0.00  0.00    +0.074 HD
ATOM     51  H   UNL     1     143.702 179.683 187.023  0.00  0.00    +0.036 HD
ATOM     52  H   UNL     1     145.952 178.911 187.012  0.00  0.00    +0.060 HD
ENDROOT
BRANCH   1  53
ATOM     53  C   UNL     1     145.809 179.771 183.662  0.00  0.00    -0.060 C 
ATOM     54  H   UNL     1     145.969 179.136 182.782  0.00  0.00    +0.023 HD
ATOM     55  H   UNL     1     146.699 180.401 183.752  0.00  0.00    +0.023 HD
ATOM     56  H   UNL     1     144.953 180.411 183.447  0.00  0.00    +0.023 HD
ENDBRANCH   1  53
BRANCH   5  57
ATOM     57  C   UNL     1     142.041 176.105 183.554  0.00  0.00    -0.041 C 
ATOM     58  H   UNL     1     141.986 177.089 184.029  0.00  0.00    +0.028 HD
ATOM     59  H   UNL     1     142.605 176.190 182.619  0.00  0.00    +0.028 HD
ATOM     60  H   UNL     1     141.017 175.838 183.283  0.00  0.00    +0.028 HD
ENDBRANCH   5  57
BRANCH  24  61
ATOM     61  C   UNL     1     143.863 181.427 185.803  0.00  0.00    -0.057 C 
ATOM     62  H   UNL     1     142.963 181.908 186.196  0.00  0.00    +0.023 HD
ATOM     63  H   UNL     1     144.573 182.218 185.545  0.00  0.00    +0.023 HD
ATOM     64  H   UNL     1     143.557 180.922 184.884  0.00  0.00    +0.023 HD
ENDBRANCH  24  61
BRANCH   8  65
ATOM     65  C   UNL     1     138.327 173.090 184.727  0.00  0.00    -0.062 C 
ATOM     66  H   UNL     1     137.873 173.723 183.958  0.00  0.00    +0.023 HD
ATOM     67  H   UNL     1     137.582 172.918 185.512  0.00  0.00    +0.023 HD
ATOM     68  H   UNL     1     138.560 172.120 184.275  0.00  0.00    +0.023 HD
ENDBRANCH   8  65
BRANCH  14  69
ATOM     69  C   UNL     1     144.664 172.460 191.314  0.00  0.00    +0.020 C 
ATOM     70  H   UNL     1     144.667 171.625 192.029  0.00  0.00    +0.036 HD
BRANCH  69  71
ATOM     71  C   UNL     1     144.534 171.850 189.902  0.00  0.00    -0.057 C 
ATOM     72  H   UNL     1     144.960 172.499 189.133  0.00  0.00    +0.023 HD
ATOM     73  H   UNL     1     143.483 171.662 189.652  0.00  0.00    +0.023 HD
ATOM     74  H   UNL     1     145.069 170.898 189.815  0.00  0.00    +0.023 HD
ENDBRANCH  69  71
BRANCH  69  75
ATOM     75  C   UNL     1     145.968 173.283 191.494  0.00  0.00    +0.064 C 
ATOM     76  H   UNL     1     145.898 174.168 190.849  0.00  0.00    +0.060 HD
BRANCH  75  77
ATOM     77  C   UNL     1     147.300 172.557 191.166  0.00  0.00    -0.017 C 
ATOM     78  H   UNL     1     147.230 172.197 190.132  0.00  0.00    +0.032 HD
BRANCH  77  79
ATOM     79  C   UNL     1     148.480 173.546 191.141  0.00  0.00    -0.060 C 
ATOM     80  H   UNL     1     148.168 174.579 190.973  0.00  0.00    +0.023 HD
ATOM     81  H   UNL     1     149.177 173.284 190.337  0.00  0.00    +0.023 HD
ATOM     82  H   UNL     1     149.037 173.508 192.084  0.00  0.00    +0.023 HD
ENDBRANCH  77  79
BRANCH  77  83
ATOM     83  C   UNL     1     147.623 171.313 192.035  0.00  0.00    -0.045 C 
ATOM     84  H   UNL     1     146.675 170.999 192.491  0.00  0.00    +0.027 HD
ATOM     85  H   UNL     1     148.273 171.606 192.867  0.00  0.00    +0.027 HD
BRANCH  83  86
ATOM     86  C   UNL     1     148.260 170.114 191.324  0.00  0.00    -0.015 C 
ATOM     87  H   UNL     1     149.051 170.456 190.649  0.00  0.00    +0.030 HD
ATOM     88  H   UNL     1     147.532 169.636 190.663  0.00  0.00    +0.030 HD
BRANCH  86  89
ATOM     89  C   UNL     1     148.795 169.040 192.298  0.00  0.00    +0.109 C 
ATOM     90  H   UNL     1     148.537 169.333 193.326  0.00  0.00    +0.074 HD
BRANCH  89  91
ATOM     91  C   UNL     1     150.328 168.753 192.282  0.00  0.00    +0.031 C 
ATOM     92  H   UNL     1     150.597 168.679 193.345  0.00  0.00    +0.037 HD
BRANCH  91  93
ATOM     93  C   UNL     1     151.095 169.951 191.710  0.00  0.00    -0.056 C 
ATOM     94  H   UNL     1     151.159 169.902 190.617  0.00  0.00    +0.023 HD
ATOM     95  H   UNL     1     152.112 170.011 192.108  0.00  0.00    +0.023 HD
ATOM     96  H   UNL     1     150.581 170.888 191.938  0.00  0.00    +0.023 HD
ENDBRANCH  91  93
BRANCH  91  97
ATOM     97  C   UNL     1     150.740 167.408 191.607  0.00  0.00    +0.115 C 
ATOM     98  H   UNL     1     149.876 166.732 191.658  0.00  0.00    +0.074 HD
BRANCH  97  99
ATOM     99  C   UNL     1     151.232 167.484 190.123  0.00  0.00    +0.013 C 
ATOM    100  H   UNL     1     151.240 168.548 189.847  0.00  0.00    +0.038 HD
BRANCH  99 101
ATOM    101  C   UNL     1     150.265 166.842 189.121  0.00  0.00    -0.056 C 
ATOM    102  H   UNL     1     149.528 167.576 188.773  0.00  0.00    +0.024 HD
ATOM    103  H   UNL     1     149.713 166.017 189.583  0.00  0.00    +0.024 HD
ATOM    104  H   UNL     1     150.782 166.459 188.236  0.00  0.00    +0.024 HD
ENDBRANCH  99 101
BRANCH  99 105
ATOM    105  C   UNL     1     152.641 166.963 189.914  0.00  0.00    -0.064 C 
ATOM    106  C   UNL     1     153.237 166.978 188.713  0.00  0.00    -0.005 C 
ATOM    107  H   UNL     1     153.133 166.539 190.781  0.00  0.00    +0.059 HD
ATOM    108  H   UNL     1     152.689 167.397 187.869  0.00  0.00    +0.078 HD
BRANCH 106 109
ATOM    109  N   UNL     1     154.508 166.525 188.392  0.00  0.00    -0.284 N 
ATOM    110  C   UNL     1     155.466 166.109 189.305  0.00  0.00    +0.206 C 
ATOM    111  O   UNL     1     156.602 165.728 189.043  0.00  0.00    -0.279 OA
ATOM    112  H   UNL     1     155.131 166.153 190.349  0.00  0.00    +0.126 HD
BRANCH 109 113
ATOM    113  C   UNL     1     154.868 166.517 186.977  0.00  0.00    +0.007 C 
ATOM    114  H   UNL     1     155.192 165.527 186.641  0.00  0.00    +0.043 HD
ATOM    115  H   UNL     1     153.999 166.819 186.381  0.00  0.00    +0.043 HD
ATOM    116  H   UNL     1     155.688 167.224 186.817  0.00  0.00    +0.043 HD
ENDBRANCH 109 113
ENDBRANCH 106 109
ENDBRANCH  99 105
ENDBRANCH  97  99
BRANCH  97 117
ATOM    117  O   UNL     1     151.823 166.832 192.385  0.00  0.00    -0.461 OA
BRANCH 117 118
ATOM    118  C   UNL     1     151.474 166.060 193.449  0.00  0.00    +0.304 C 
ATOM    119  O   UNL     1     151.907 166.176 194.587  0.00  0.00    -0.251 OA
BRANCH 118 120
ATOM    120  C   UNL     1     150.463 165.040 193.027  0.00  0.00    +0.033 C 
ATOM    121  H   UNL     1     149.610 165.546 192.563  0.00  0.00    +0.034 HD
ATOM    122  H   UNL     1     150.905 164.362 192.292  0.00  0.00    +0.034 HD
ATOM    123  H   UNL     1     150.110 164.486 193.900  0.00  0.00    +0.034 HD
ENDBRANCH 118 120
ENDBRANCH 117 118
ENDBRANCH  97 117
ENDBRANCH  91  97
ENDBRANCH  89  91
BRANCH  89 124
ATOM    124  O   UNL     1     148.107 167.792 192.025  0.00  0.00    -0.460 OA
BRANCH 124 125
ATOM    125  C   UNL     1     147.416 167.246 193.072  0.00  0.00    +0.324 C 
ATOM    126  O   UNL     1     147.577 167.554 194.247  0.00  0.00    -0.249 OA
BRANCH 125 127
ATOM    127  C   UNL     1     146.401 166.215 192.546  0.00  0.00    +0.105 C 
ATOM    128  H   UNL     1     146.306 165.409 193.285  0.00  0.00    +0.058 HD
BRANCH 127 129
ATOM    129  C   UNL     1     147.015 165.638 191.266  0.00  0.00    -0.039 C 
ATOM    130  H   UNL     1     147.820 166.278 190.888  0.00  0.00    +0.025 HD
ATOM    131  H   UNL     1     146.266 165.521 190.476  0.00  0.00    +0.025 HD
ATOM    132  H   UNL     1     147.450 164.649 191.453  0.00  0.00    +0.025 HD
ENDBRANCH 127 129
BRANCH 127 133
ATOM    133  N   UNL     1     145.067 166.848 192.333  0.00  0.00    -0.296 NA
BRANCH 133 134
ATOM    134  C   UNL     1     144.530 166.578 190.997  0.00  0.00    -0.012 C 
ATOM    135  H   UNL     1     145.318 166.664 190.240  0.00  0.00    +0.039 HD
ATOM    136  H   UNL     1     143.723 167.270 190.732  0.00  0.00    +0.039 HD
ATOM    137  H   UNL     1     144.155 165.553 190.920  0.00  0.00    +0.039 HD
ENDBRANCH 133 134
BRANCH 133 138
ATOM    138  C   UNL     1     144.099 166.397 193.341  0.00  0.00    -0.012 C 
ATOM    139  H   UNL     1     144.310 166.862 194.311  0.00  0.00    +0.039 HD
ATOM    140  H   UNL     1     143.070 166.641 193.059  0.00  0.00    +0.039 HD
ATOM    141  H   UNL     1     144.164 165.317 193.509  0.00  0.00    +0.039 HD
ENDBRANCH 133 138
ENDBRANCH 127 133
ENDBRANCH 125 127
ENDBRANCH 124 125
ENDBRANCH  89 124
ENDBRANCH  86  89
ENDBRANCH  83  86
ENDBRANCH  77  83
ENDBRANCH  75  77
BRANCH  75 142
ATOM    142  O   UNL     1     146.003 173.747 192.845  0.00  0.00    -0.391 OA
ATOM    143  H   UNL     1     146.723 173.285 193.305  0.00  0.00    +0.210 HD
ENDBRANCH  75 142
ENDBRANCH  69  75
ENDBRANCH  14  69
BRANCH  25 144
ATOM    144  O   UNL     1     146.851 180.538 186.224  0.00  0.00    -0.391 OA
ATOM    145  H   UNL     1     147.204 180.617 187.124  0.00  0.00    +0.210 HD
ENDBRANCH  25 144
BRANCH  23 146
ATOM    146  O   UNL     1     145.753 180.468 188.914  0.00  0.00    -0.460 OA
BRANCH 146 147
ATOM    147  C   UNL     1     146.851 181.121 189.373  0.00  0.00    +0.327 C 
ATOM    148  O   UNL     1     147.868 180.574 189.790  0.00  0.00    -0.249 OA
BRANCH 147 149
ATOM    149  C   UNL     1     146.702 182.644 189.235  0.00  0.00    +0.131 C 
ATOM    150  H   UNL     1     145.755 182.795 188.696  0.00  0.00    +0.060 HD
BRANCH 149 151
ATOM    151  C   UNL     1     147.818 183.162 188.294  0.00  0.00    +0.073 C 
ATOM    152  H   UNL     1     148.156 184.155 188.619  0.00  0.00    +0.058 HD
ATOM    153  H   UNL     1     148.677 182.480 188.348  0.00  0.00    +0.058 HD
BRANCH 151 154
ATOM    154  O   UNL     1     147.396 183.234 186.925  0.00  0.00    -0.381 OA
BRANCH 154 155
ATOM    155  C   UNL     1     148.436 183.727 186.091  0.00  0.00    +0.037 C 
ATOM    156  H   UNL     1     148.625 184.783 186.303  0.00  0.00    +0.052 HD
ATOM    157  H   UNL     1     149.348 183.141 186.231  0.00  0.00    +0.052 HD
ATOM    158  H   UNL     1     148.114 183.632 185.050  0.00  0.00    +0.052 HD
ENDBRANCH 154 155
ENDBRANCH 151 154
ENDBRANCH 149 151
BRANCH 149 159
ATOM    159  N   UNL     1     146.605 183.299 190.579  0.00  0.00    -0.294 NA
BRANCH 159 160
ATOM    160  C   UNL     1     145.444 184.192 190.658  0.00  0.00    -0.012 C 
ATOM    161  H   UNL     1     145.735 185.225 190.887  0.00  0.00    +0.039 HD
ATOM    162  H   UNL     1     144.748 183.855 191.436  0.00  0.00    +0.039 HD
ATOM    163  H   UNL     1     144.871 184.189 189.726  0.00  0.00    +0.039 HD
ENDBRANCH 159 160
BRANCH 159 164
ATOM    164  C   UNL     1     147.819 184.044 190.915  0.00  0.00    -0.012 C 
ATOM    165  H   UNL     1     147.566 184.994 191.404  0.00  0.00    +0.039 HD
ATOM    166  H   UNL     1     148.441 183.500 191.634  0.00  0.00    +0.039 HD
ATOM    167  H   UNL     1     148.424 184.267 190.029  0.00  0.00    +0.039 HD
ENDBRANCH 159 164
ENDBRANCH 149 159
ENDBRANCH 147 149
ENDBRANCH 146 147
ENDBRANCH  23 146
BRANCH   4 168
ATOM    168  O   UNL     1     145.061 175.355 183.919  0.00  0.00    -0.376 OA
BRANCH 168 169
ATOM    169  C   UNL     1     146.345 174.918 184.349  0.00  0.00    +0.037 C 
ATOM    170  H   UNL     1     146.317 173.830 184.441  0.00  0.00    +0.052 HD
ATOM    171  H   UNL     1     146.588 175.333 185.330  0.00  0.00    +0.052 HD
ATOM    172  H   UNL     1     147.114 175.183 183.621  0.00  0.00    +0.052 HD
ENDBRANCH 168 169
ENDBRANCH   4 168
BRANCH  10 173
ATOM    173  O   UNL     1     139.706 175.471 187.720  0.00  0.00    -0.376 OA
BRANCH 173 174
ATOM    174  C   UNL     1     140.427 176.633 188.107  0.00  0.00    +0.037 C 
ATOM    175  H   UNL     1     139.780 177.513 188.077  0.00  0.00    +0.052 HD
ATOM    176  H   UNL     1     141.245 176.782 187.397  0.00  0.00    +0.052 HD
ATOM    177  H   UNL     1     140.855 176.505 189.105  0.00  0.00    +0.052 HD
ENDBRANCH 173 174
ENDBRANCH  10 173
TORSDOF 45
ENDMDL
MODEL 8
REMARK VINA RESULT:      -4.5      2.686      7.310
REMARK  Name = Aplyronine A_conf3
REMARK  45 active torsions:
REMARK  status: ('A' for Active; 'I' for Inactive)
REMARK    1  A    between atoms: C_1  and  C_2
REMARK    2  A    between atoms: C_5  and  O_75
REMARK    3  A    between atoms: C_6  and  C_74
REMARK    4  A    between atoms: C_9  and  C_73
REMARK    5  A    between atoms: C_11  and  O_71
REMARK    6  A    between atoms: C_15  and  C_39
REMARK    7  A    between atoms: C_24  and  O_29
REMARK    8  A    between atoms: C_25  and  C_28
REMARK    9  A    between atoms: C_26  and  O_27
REMARK   10  A    between atoms: O_29  and  C_30
REMARK   11  A    between atoms: C_30  and  C_32
REMARK   12  A    between atoms: C_32  and  C_33
REMARK   13  A    between atoms: C_32  and  N_36
REMARK   14  A    between atoms: C_33  and  O_34
REMARK   15  A    between atoms: O_34  and  C_35
REMARK   16  A    between atoms: N_36  and  C_37
REMARK   17  A    between atoms: N_36  and  C_38
REMARK   18  A    between atoms: C_39  and  C_40
REMARK   19  A    between atoms: C_39  and  C_41
REMARK   20  A    between atoms: C_41  and  C_42
REMARK   21  A    between atoms: C_41  and  O_70
REMARK   22  A    between atoms: C_42  and  C_43
REMARK   23  A    between atoms: C_42  and  C_44
REMARK   24  A    between atoms: C_44  and  C_45
REMARK   25  A    between atoms: C_45  and  C_46
REMARK   26  A    between atoms: C_46  and  C_47
REMARK   27  A    between atoms: C_46  and  O_62
REMARK   28  A    between atoms: C_47  and  C_48
REMARK   29  A    between atoms: C_47  and  C_49
REMARK   30  A    between atoms: C_49  and  C_50
REMARK   31  A    between atoms: C_49  and  O_58
REMARK   32  A    between atoms: C_50  and  C_51
REMARK   33  A    between atoms: C_50  and  C_52
REMARK   34  A    between atoms: C_53  and  N_54
REMARK   35  A    between atoms: N_54  and  C_55
REMARK   36  A    between atoms: O_58  and  C_59
REMARK   37  A    between atoms: C_59  and  C_61
REMARK   38  A    between atoms: O_62  and  C_63
REMARK   39  A    between atoms: C_63  and  C_65
REMARK   40  A    between atoms: C_65  and  C_66
REMARK   41  A    between atoms: C_65  and  N_67
REMARK   42  A    between atoms: N_67  and  C_68
REMARK   43  A    between atoms: N_67  and  C_69
REMARK   44  A    between atoms: O_71  and  C_72
REMARK   45  A    between atoms: O_75  and  C_76
REMARK                            x       y       z     vdW  Elec       q    Type
REMARK                         _______ _______ _______ _____ _____    ______ ____
ROOT
ATOM      1  C   UNL     1     141.728 164.498 187.448  0.00  0.00    -0.017 C 
ATOM      2  C   UNL     1     142.402 165.776 186.900  0.00  0.00    -0.045 C 
ATOM      3  C   UNL     1     143.845 165.998 187.389  0.00  0.00    -0.022 C 
ATOM      4  C   UNL     1     144.108 167.357 188.086  0.00  0.00    +0.079 C 
ATOM      5  C   UNL     1     144.243 168.572 187.163  0.00  0.00    -0.048 C 
ATOM      6  C   UNL     1     145.324 169.376 187.278  0.00  0.00    -0.082 C 
ATOM      7  C   UNL     1     145.629 170.647 186.535  0.00  0.00    -0.032 C 
ATOM      8  C   UNL     1     146.453 170.477 185.242  0.00  0.00    -0.038 C 
ATOM      9  C   UNL     1     147.822 169.786 185.472  0.00  0.00    -0.020 C 
ATOM     10  C   UNL     1     147.750 168.251 185.422  0.00  0.00    +0.077 C 
ATOM     11  C   UNL     1     149.098 167.645 185.708  0.00  0.00    -0.059 C 
ATOM     12  C   UNL     1     149.483 167.150 186.897  0.00  0.00    -0.082 C 
ATOM     13  C   UNL     1     150.791 166.423 187.085  0.00  0.00    +0.003 C 
ATOM     14  C   UNL     1     150.681 165.072 187.833  0.00  0.00    +0.112 C 
ATOM     15  O   UNL     1     149.475 164.378 187.423  0.00  0.00    -0.458 OA
ATOM     16  C   UNL     1     149.396 163.863 186.176  0.00  0.00    +0.332 C 
ATOM     17  O   UNL     1     150.259 163.858 185.317  0.00  0.00    -0.246 OA
ATOM     18  C   UNL     1     148.031 163.322 186.061  0.00  0.00    +0.022 C 
ATOM     19  C   UNL     1     147.459 163.012 184.890  0.00  0.00    -0.055 C 
ATOM     20  C   UNL     1     146.101 162.528 184.878  0.00  0.00    -0.065 C 
ATOM     21  C   UNL     1     145.431 162.078 183.808  0.00  0.00    -0.081 C 
ATOM     22  C   UNL     1     144.043 161.463 183.818  0.00  0.00    +0.003 C 
ATOM     23  C   UNL     1     143.182 161.525 185.113  0.00  0.00    +0.111 C 
ATOM     24  C   UNL     1     142.647 162.966 185.430  0.00  0.00    +0.020 C 
ATOM     25  C   UNL     1     142.330 163.151 186.945  0.00  0.00    +0.064 C 
ATOM     26  H   UNL     1     141.881 164.500 188.538  0.00  0.00    +0.032 HD
ATOM     27  H   UNL     1     141.779 166.629 187.182  0.00  0.00    +0.027 HD
ATOM     28  H   UNL     1     142.395 165.764 185.806  0.00  0.00    +0.027 HD
ATOM     29  H   UNL     1     144.095 165.214 188.115  0.00  0.00    +0.029 HD
ATOM     30  H   UNL     1     144.541 165.871 186.551  0.00  0.00    +0.029 HD
ATOM     31  H   UNL     1     145.051 167.221 188.633  0.00  0.00    +0.064 HD
ATOM     32  H   UNL     1     146.080 169.121 188.023  0.00  0.00    +0.057 HD
ATOM     33  H   UNL     1     146.168 171.309 187.226  0.00  0.00    +0.031 HD
ATOM     34  H   UNL     1     144.699 171.185 186.310  0.00  0.00    +0.031 HD
ATOM     35  H   UNL     1     145.864 169.892 184.524  0.00  0.00    +0.030 HD
ATOM     36  H   UNL     1     148.248 170.120 186.427  0.00  0.00    +0.030 HD
ATOM     37  H   UNL     1     148.515 170.114 184.684  0.00  0.00    +0.030 HD
ATOM     38  H   UNL     1     147.016 167.868 186.134  0.00  0.00    +0.064 HD
ATOM     39  H   UNL     1     149.766 167.568 184.852  0.00  0.00    +0.059 HD
ATOM     40  H   UNL     1     148.830 167.227 187.763  0.00  0.00    +0.057 HD
ATOM     41  H   UNL     1     151.523 167.085 187.554  0.00  0.00    +0.034 HD
ATOM     42  H   UNL     1     151.207 166.206 186.090  0.00  0.00    +0.034 HD
ATOM     43  H   UNL     1     151.546 164.456 187.550  0.00  0.00    +0.074 HD
ATOM     44  H   UNL     1     147.494 163.204 186.998  0.00  0.00    +0.069 HD
ATOM     45  H   UNL     1     147.999 163.118 183.955  0.00  0.00    +0.062 HD
ATOM     46  H   UNL     1     145.632 162.504 185.858  0.00  0.00    +0.061 HD
ATOM     47  H   UNL     1     145.922 162.086 182.837  0.00  0.00    +0.057 HD
ATOM     48  H   UNL     1     143.480 161.898 182.985  0.00  0.00    +0.034 HD
ATOM     49  H   UNL     1     144.187 160.406 183.561  0.00  0.00    +0.034 HD
ATOM     50  H   UNL     1     142.308 160.872 184.980  0.00  0.00    +0.074 HD
ATOM     51  H   UNL     1     143.433 163.689 185.183  0.00  0.00    +0.036 HD
ATOM     52  H   UNL     1     143.288 163.051 187.470  0.00  0.00    +0.060 HD
ENDROOT
BRANCH   1  53
ATOM     53  C   UNL     1     140.201 164.607 187.295  0.00  0.00    -0.060 C 
ATOM     54  H   UNL     1     139.709 163.787 187.832  0.00  0.00    +0.023 HD
ATOM     55  H   UNL     1     139.894 164.517 186.249  0.00  0.00    +0.023 HD
ATOM     56  H   UNL     1     139.801 165.539 187.693  0.00  0.00    +0.023 HD
ENDBRANCH   1  53
BRANCH   5  57
ATOM     57  C   UNL     1     143.125 168.836 186.191  0.00  0.00    -0.041 C 
ATOM     58  H   UNL     1     142.495 167.949 186.082  0.00  0.00    +0.028 HD
ATOM     59  H   UNL     1     142.509 169.674 186.535  0.00  0.00    +0.028 HD
ATOM     60  H   UNL     1     143.473 169.090 185.187  0.00  0.00    +0.028 HD
ENDBRANCH   5  57
BRANCH  24  61
ATOM     61  C   UNL     1     141.452 163.261 184.513  0.00  0.00    -0.057 C 
ATOM     62  H   UNL     1     140.499 163.060 185.011  0.00  0.00    +0.023 HD
ATOM     63  H   UNL     1     141.443 164.306 184.195  0.00  0.00    +0.023 HD
ATOM     64  H   UNL     1     141.467 162.626 183.624  0.00  0.00    +0.023 HD
ENDBRANCH  24  61
BRANCH   8  65
ATOM     65  C   UNL     1     146.681 171.860 184.620  0.00  0.00    -0.062 C 
ATOM     66  H   UNL     1     147.166 171.781 183.642  0.00  0.00    +0.023 HD
ATOM     67  H   UNL     1     147.312 172.481 185.265  0.00  0.00    +0.023 HD
ATOM     68  H   UNL     1     145.729 172.387 184.485  0.00  0.00    +0.023 HD
ENDBRANCH   8  65
BRANCH  14  69
ATOM     69  C   UNL     1     150.624 165.112 189.399  0.00  0.00    +0.020 C 
ATOM     70  H   UNL     1     150.381 166.141 189.699  0.00  0.00    +0.036 HD
BRANCH  69  71
ATOM     71  C   UNL     1     149.444 164.219 189.840  0.00  0.00    -0.057 C 
ATOM     72  H   UNL     1     149.712 163.568 190.677  0.00  0.00    +0.023 HD
ATOM     73  H   UNL     1     149.098 163.591 189.011  0.00  0.00    +0.023 HD
ATOM     74  H   UNL     1     148.589 164.810 190.187  0.00  0.00    +0.023 HD
ENDBRANCH  69  71
BRANCH  69  75
ATOM     75  C   UNL     1     151.968 164.698 190.058  0.00  0.00    +0.064 C 
ATOM     76  H   UNL     1     151.737 164.230 191.024  0.00  0.00    +0.060 HD
BRANCH  75  77
ATOM     77  C   UNL     1     152.998 165.831 190.310  0.00  0.00    -0.017 C 
ATOM     78  H   UNL     1     153.500 165.611 191.260  0.00  0.00    +0.032 HD
BRANCH  77  79
ATOM     79  C   UNL     1     154.131 165.792 189.268  0.00  0.00    -0.060 C 
ATOM     80  H   UNL     1     153.973 165.039 188.493  0.00  0.00    +0.023 HD
ATOM     81  H   UNL     1     155.086 165.560 189.755  0.00  0.00    +0.023 HD
ATOM     82  H   UNL     1     154.240 166.767 188.779  0.00  0.00    +0.023 HD
ENDBRANCH  77  79
BRANCH  77  83
ATOM     83  C   UNL     1     152.409 167.259 190.453  0.00  0.00    -0.045 C 
ATOM     84  H   UNL     1     151.607 167.340 189.709  0.00  0.00    +0.027 HD
ATOM     85  H   UNL     1     153.164 167.997 190.161  0.00  0.00    +0.027 HD
BRANCH  83  86
ATOM     86  C   UNL     1     151.859 167.650 191.830  0.00  0.00    -0.015 C 
ATOM     87  H   UNL     1     152.516 168.390 192.298  0.00  0.00    +0.030 HD
ATOM     88  H   UNL     1     151.893 166.793 192.508  0.00  0.00    +0.030 HD
BRANCH  86  89
ATOM     89  C   UNL     1     150.402 168.161 191.781  0.00  0.00    +0.109 C 
ATOM     90  H   UNL     1     149.851 167.593 191.018  0.00  0.00    +0.074 HD
BRANCH  89  91
ATOM     91  C   UNL     1     150.179 169.673 191.469  0.00  0.00    +0.031 C 
ATOM     92  H   UNL     1     150.419 169.763 190.400  0.00  0.00    +0.037 HD
BRANCH  91  93
ATOM     93  C   UNL     1     151.192 170.536 192.229  0.00  0.00    -0.056 C 
ATOM     94  H   UNL     1     150.818 171.554 192.382  0.00  0.00    +0.023 HD
ATOM     95  H   UNL     1     152.148 170.600 191.702  0.00  0.00    +0.023 HD
ATOM     96  H   UNL     1     151.376 170.131 193.227  0.00  0.00    +0.023 HD
ENDBRANCH  91  93
BRANCH  91  97
ATOM     97  C   UNL     1     148.713 170.176 191.656  0.00  0.00    +0.115 C 
ATOM     98  H   UNL     1     148.284 169.639 192.513  0.00  0.00    +0.074 HD
BRANCH  97  99
ATOM     99  C   UNL     1     148.516 171.713 191.875  0.00  0.00    +0.013 C 
ATOM    100  H   UNL     1     149.449 172.199 191.555  0.00  0.00    +0.038 HD
BRANCH  99 101
ATOM    101  C   UNL     1     148.371 172.110 193.349  0.00  0.00    -0.056 C 
ATOM    102  H   UNL     1     149.116 171.590 193.963  0.00  0.00    +0.024 HD
ATOM    103  H   UNL     1     147.382 171.837 193.733  0.00  0.00    +0.024 HD
ATOM    104  H   UNL     1     148.517 173.183 193.503  0.00  0.00    +0.024 HD
ENDBRANCH  99 101
BRANCH  99 105
ATOM    105  C   UNL     1     147.397 172.314 191.047  0.00  0.00    -0.064 C 
ATOM    106  C   UNL     1     146.195 172.597 191.570  0.00  0.00    -0.005 C 
ATOM    107  H   UNL     1     147.605 172.470 189.995  0.00  0.00    +0.059 HD
ATOM    108  H   UNL     1     146.032 172.401 192.630  0.00  0.00    +0.078 HD
BRANCH 106 109
ATOM    109  N   UNL     1     145.094 173.136 190.920  0.00  0.00    -0.284 N 
ATOM    110  C   UNL     1     144.152 173.974 191.497  0.00  0.00    +0.206 C 
ATOM    111  O   UNL     1     143.159 174.440 190.945  0.00  0.00    -0.279 OA
ATOM    112  H   UNL     1     144.351 174.205 192.551  0.00  0.00    +0.126 HD
BRANCH 109 113
ATOM    113  C   UNL     1     144.904 172.758 189.521  0.00  0.00    +0.007 C 
ATOM    114  H   UNL     1     143.911 173.033 189.154  0.00  0.00    +0.043 HD
ATOM    115  H   UNL     1     145.656 173.263 188.905  0.00  0.00    +0.043 HD
ATOM    116  H   UNL     1     145.021 171.674 189.430  0.00  0.00    +0.043 HD
ENDBRANCH 109 113
ENDBRANCH 106 109
ENDBRANCH  99 105
ENDBRANCH  97  99
BRANCH  97 117
ATOM    117  O   UNL     1     147.963 169.817 190.465  0.00  0.00    -0.461 OA
BRANCH 117 118
ATOM    118  C   UNL     1     147.008 168.859 190.605  0.00  0.00    +0.304 C 
ATOM    119  O   UNL     1     145.995 168.956 191.284  0.00  0.00    -0.251 OA
BRANCH 118 120
ATOM    120  C   UNL     1     147.371 167.656 189.792  0.00  0.00    +0.033 C 
ATOM    121  H   UNL     1     146.906 167.732 188.805  0.00  0.00    +0.034 HD
ATOM    122  H   UNL     1     148.456 167.611 189.660  0.00  0.00    +0.034 HD
ATOM    123  H   UNL     1     147.005 166.752 190.285  0.00  0.00    +0.034 HD
ENDBRANCH 118 120
ENDBRANCH 117 118
ENDBRANCH  97 117
ENDBRANCH  91  97
ENDBRANCH  89  91
BRANCH  89 124
ATOM    124  O   UNL     1     149.775 167.875 193.059  0.00  0.00    -0.460 OA
BRANCH 124 125
ATOM    125  C   UNL     1     149.310 166.600 193.227  0.00  0.00    +0.324 C 
ATOM    126  O   UNL     1     148.355 166.123 192.626  0.00  0.00    -0.249 OA
BRANCH 125 127
ATOM    127  C   UNL     1     150.180 165.859 194.259  0.00  0.00    +0.105 C 
ATOM    128  H   UNL     1     150.969 166.539 194.606  0.00  0.00    +0.058 HD
BRANCH 127 129
ATOM    129  C   UNL     1     150.830 164.697 193.501  0.00  0.00    -0.039 C 
ATOM    130  H   UNL     1     151.411 164.057 194.174  0.00  0.00    +0.025 HD
ATOM    131  H   UNL     1     151.494 165.056 192.707  0.00  0.00    +0.025 HD
ATOM    132  H   UNL     1     150.070 164.064 193.029  0.00  0.00    +0.025 HD
ENDBRANCH 127 129
BRANCH 127 133
ATOM    133  N   UNL     1     149.358 165.422 195.426  0.00  0.00    -0.296 NA
BRANCH 133 134
ATOM    134  C   UNL     1     150.180 164.900 196.521  0.00  0.00    -0.012 C 
ATOM    135  H   UNL     1     151.239 165.114 196.342  0.00  0.00    +0.039 HD
ATOM    136  H   UNL     1     150.064 163.818 196.640  0.00  0.00    +0.039 HD
ATOM    137  H   UNL     1     149.934 165.388 197.468  0.00  0.00    +0.039 HD
ENDBRANCH 133 134
BRANCH 133 138
ATOM    138  C   UNL     1     148.527 166.523 195.930  0.00  0.00    -0.012 C 
ATOM    139  H   UNL     1     149.091 167.463 195.925  0.00  0.00    +0.039 HD
ATOM    140  H   UNL     1     147.623 166.662 195.328  0.00  0.00    +0.039 HD
ATOM    141  H   UNL     1     148.228 166.361 196.970  0.00  0.00    +0.039 HD
ENDBRANCH 133 138
ENDBRANCH 127 133
ENDBRANCH 125 127
ENDBRANCH 124 125
ENDBRANCH  89 124
ENDBRANCH  86  89
ENDBRANCH  83  86
ENDBRANCH  77  83
ENDBRANCH  75  77
BRANCH  75 142
ATOM    142  O   UNL     1     152.562 163.694 189.233  0.00  0.00    -0.391 OA
ATOM    143  H   UNL     1     152.385 162.828 189.636  0.00  0.00    +0.210 HD
ENDBRANCH  75 142
ENDBRANCH  69  75
ENDBRANCH  14  69
BRANCH  25 144
ATOM    144  O   UNL     1     141.527 162.065 187.422  0.00  0.00    -0.391 OA
ATOM    145  H   UNL     1     140.822 162.428 187.981  0.00  0.00    +0.210 HD
ENDBRANCH  25 144
BRANCH  23 146
ATOM    146  O   UNL     1     143.965 161.036 186.218  0.00  0.00    -0.460 OA
BRANCH 146 147
ATOM    147  C   UNL     1     143.826 159.735 186.582  0.00  0.00    +0.327 C 
ATOM    148  O   UNL     1     143.136 158.912 185.987  0.00  0.00    -0.249 OA
BRANCH 147 149
ATOM    149  C   UNL     1     144.705 159.390 187.793  0.00  0.00    +0.131 C 
ATOM    150  H   UNL     1     144.038 159.461 188.664  0.00  0.00    +0.060 HD
BRANCH 149 151
ATOM    151  C   UNL     1     145.760 160.511 187.968  0.00  0.00    +0.073 C 
ATOM    152  H   UNL     1     146.772 160.083 187.958  0.00  0.00    +0.058 HD
ATOM    153  H   UNL     1     145.681 161.211 187.127  0.00  0.00    +0.058 HD
BRANCH 151 154
ATOM    154  O   UNL     1     145.577 161.255 189.181  0.00  0.00    -0.381 OA
BRANCH 154 155
ATOM    155  C   UNL     1     145.564 162.654 188.930  0.00  0.00    +0.037 C 
ATOM    156  H   UNL     1     144.537 163.008 188.803  0.00  0.00    +0.052 HD
ATOM    157  H   UNL     1     146.055 163.193 189.745  0.00  0.00    +0.052 HD
ATOM    158  H   UNL     1     146.114 162.841 188.003  0.00  0.00    +0.052 HD
ENDBRANCH 154 155
ENDBRANCH 151 154
ENDBRANCH 149 151
BRANCH 149 159
ATOM    159  N   UNL     1     145.230 157.990 187.696  0.00  0.00    -0.294 NA
BRANCH 159 160
ATOM    160  C   UNL     1     145.058 157.264 188.959  0.00  0.00    -0.012 C 
ATOM    161  H   UNL     1     146.010 156.877 189.343  0.00  0.00    +0.039 HD
ATOM    162  H   UNL     1     144.375 156.416 188.828  0.00  0.00    +0.039 HD
ATOM    163  H   UNL     1     144.602 157.896 189.726  0.00  0.00    +0.039 HD
ENDBRANCH 159 160
BRANCH 159 164
ATOM    164  C   UNL     1     146.639 157.958 187.301  0.00  0.00    -0.012 C 
ATOM    165  H   UNL     1     147.100 158.944 187.439  0.00  0.00    +0.039 HD
ATOM    166  H   UNL     1     147.218 157.272 187.927  0.00  0.00    +0.039 HD
ATOM    167  H   UNL     1     146.766 157.666 186.252  0.00  0.00    +0.039 HD
ENDBRANCH 159 164
ENDBRANCH 149 159
ENDBRANCH 147 149
ENDBRANCH 146 147
ENDBRANCH  23 146
BRANCH   4 168
ATOM    168  O   UNL     1     143.070 167.572 189.057  0.00  0.00    -0.376 OA
BRANCH 168 169
ATOM    169  C   UNL     1     143.331 166.944 190.308  0.00  0.00    +0.037 C 
ATOM    170  H   UNL     1     142.396 166.507 190.666  0.00  0.00    +0.052 HD
ATOM    171  H   UNL     1     143.665 167.676 191.047  0.00  0.00    +0.052 HD
ATOM    172  H   UNL     1     144.068 166.146 190.201  0.00  0.00    +0.052 HD
ENDBRANCH 168 169
ENDBRANCH   4 168
BRANCH  10 173
ATOM    173  O   UNL     1     147.355 167.886 184.091  0.00  0.00    -0.376 OA
BRANCH 173 174
ATOM    174  C   UNL     1     147.650 166.535 183.770  0.00  0.00    +0.037 C 
ATOM    175  H   UNL     1     147.406 165.880 184.609  0.00  0.00    +0.052 HD
ATOM    176  H   UNL     1     148.723 166.455 183.571  0.00  0.00    +0.052 HD
ATOM    177  H   UNL     1     147.110 166.226 182.871  0.00  0.00    +0.052 HD
ENDBRANCH 173 174
ENDBRANCH  10 173
TORSDOF 45
ENDMDL
MODEL 9
REMARK VINA RESULT:      -4.5      1.815      2.754
REMARK  Name = Aplyronine A_conf3
REMARK  45 active torsions:
REMARK  status: ('A' for Active; 'I' for Inactive)
REMARK    1  A    between atoms: C_1  and  C_2
REMARK    2  A    between atoms: C_5  and  O_75
REMARK    3  A    between atoms: C_6  and  C_74
REMARK    4  A    between atoms: C_9  and  C_73
REMARK    5  A    between atoms: C_11  and  O_71
REMARK    6  A    between atoms: C_15  and  C_39
REMARK    7  A    between atoms: C_24  and  O_29
REMARK    8  A    between atoms: C_25  and  C_28
REMARK    9  A    between atoms: C_26  and  O_27
REMARK   10  A    between atoms: O_29  and  C_30
REMARK   11  A    between atoms: C_30  and  C_32
REMARK   12  A    between atoms: C_32  and  C_33
REMARK   13  A    between atoms: C_32  and  N_36
REMARK   14  A    between atoms: C_33  and  O_34
REMARK   15  A    between atoms: O_34  and  C_35
REMARK   16  A    between atoms: N_36  and  C_37
REMARK   17  A    between atoms: N_36  and  C_38
REMARK   18  A    between atoms: C_39  and  C_40
REMARK   19  A    between atoms: C_39  and  C_41
REMARK   20  A    between atoms: C_41  and  C_42
REMARK   21  A    between atoms: C_41  and  O_70
REMARK   22  A    between atoms: C_42  and  C_43
REMARK   23  A    between atoms: C_42  and  C_44
REMARK   24  A    between atoms: C_44  and  C_45
REMARK   25  A    between atoms: C_45  and  C_46
REMARK   26  A    between atoms: C_46  and  C_47
REMARK   27  A    between atoms: C_46  and  O_62
REMARK   28  A    between atoms: C_47  and  C_48
REMARK   29  A    between atoms: C_47  and  C_49
REMARK   30  A    between atoms: C_49  and  C_50
REMARK   31  A    between atoms: C_49  and  O_58
REMARK   32  A    between atoms: C_50  and  C_51
REMARK   33  A    between atoms: C_50  and  C_52
REMARK   34  A    between atoms: C_53  and  N_54
REMARK   35  A    between atoms: N_54  and  C_55
REMARK   36  A    between atoms: O_58  and  C_59
REMARK   37  A    between atoms: C_59  and  C_61
REMARK   38  A    between atoms: O_62  and  C_63
REMARK   39  A    between atoms: C_63  and  C_65
REMARK   40  A    between atoms: C_65  and  C_66
REMARK   41  A    between atoms: C_65  and  N_67
REMARK   42  A    between atoms: N_67  and  C_68
REMARK   43  A    between atoms: N_67  and  C_69
REMARK   44  A    between atoms: O_71  and  C_72
REMARK   45  A    between atoms: O_75  and  C_76
REMARK                            x       y       z     vdW  Elec       q    Type
REMARK                         _______ _______ _______ _____ _____    ______ ____
ROOT
ATOM      1  C   UNL     1     147.853 167.740 185.987  0.00  0.00    -0.017 C 
ATOM      2  C   UNL     1     147.749 166.544 185.014  0.00  0.00    -0.045 C 
ATOM      3  C   UNL     1     148.085 165.178 185.641  0.00  0.00    -0.022 C 
ATOM      4  C   UNL     1     149.205 164.378 184.929  0.00  0.00    +0.079 C 
ATOM      5  C   UNL     1     148.807 163.674 183.628  0.00  0.00    -0.048 C 
ATOM      6  C   UNL     1     149.072 162.356 183.480  0.00  0.00    -0.082 C 
ATOM      7  C   UNL     1     148.837 161.483 182.278  0.00  0.00    -0.032 C 
ATOM      8  C   UNL     1     147.477 160.754 182.245  0.00  0.00    -0.038 C 
ATOM      9  C   UNL     1     147.238 159.845 183.478  0.00  0.00    -0.020 C 
ATOM     10  C   UNL     1     146.616 160.584 184.674  0.00  0.00    +0.077 C 
ATOM     11  C   UNL     1     146.463 159.659 185.852  0.00  0.00    -0.059 C 
ATOM     12  C   UNL     1     147.309 159.594 186.894  0.00  0.00    -0.082 C 
ATOM     13  C   UNL     1     147.026 158.752 188.114  0.00  0.00    +0.003 C 
ATOM     14  C   UNL     1     147.209 159.486 189.465  0.00  0.00    +0.112 C 
ATOM     15  O   UNL     1     146.733 160.852 189.353  0.00  0.00    -0.458 OA
ATOM     16  C   UNL     1     145.407 161.086 189.237  0.00  0.00    +0.332 C 
ATOM     17  O   UNL     1     144.503 160.271 189.260  0.00  0.00    -0.246 OA
ATOM     18  C   UNL     1     145.281 162.542 189.052  0.00  0.00    +0.022 C 
ATOM     19  C   UNL     1     144.170 163.131 188.591  0.00  0.00    -0.055 C 
ATOM     20  C   UNL     1     144.158 164.560 188.404  0.00  0.00    -0.065 C 
ATOM     21  C   UNL     1     143.099 165.305 188.056  0.00  0.00    -0.081 C 
ATOM     22  C   UNL     1     143.062 166.820 187.971  0.00  0.00    +0.003 C 
ATOM     23  C   UNL     1     144.387 167.630 188.077  0.00  0.00    +0.111 C 
ATOM     24  C   UNL     1     145.299 167.489 186.809  0.00  0.00    +0.020 C 
ATOM     25  C   UNL     1     146.798 167.769 187.133  0.00  0.00    +0.064 C 
ATOM     26  H   UNL     1     148.830 167.657 186.488  0.00  0.00    +0.032 HD
ATOM     27  H   UNL     1     148.417 166.740 184.170  0.00  0.00    +0.027 HD
ATOM     28  H   UNL     1     146.745 166.499 184.581  0.00  0.00    +0.027 HD
ATOM     29  H   UNL     1     148.415 165.337 186.675  0.00  0.00    +0.029 HD
ATOM     30  H   UNL     1     147.176 164.567 185.702  0.00  0.00    +0.029 HD
ATOM     31  H   UNL     1     149.525 163.621 185.659  0.00  0.00    +0.064 HD
ATOM     32  H   UNL     1     149.553 161.829 184.306  0.00  0.00    +0.057 HD
ATOM     33  H   UNL     1     149.648 160.744 182.247  0.00  0.00    +0.031 HD
ATOM     34  H   UNL     1     148.962 162.068 181.357  0.00  0.00    +0.031 HD
ATOM     35  H   UNL     1     146.678 161.503 182.182  0.00  0.00    +0.030 HD
ATOM     36  H   UNL     1     148.180 159.364 183.771  0.00  0.00    +0.030 HD
ATOM     37  H   UNL     1     146.549 159.039 183.188  0.00  0.00    +0.030 HD
ATOM     38  H   UNL     1     147.220 161.448 184.960  0.00  0.00    +0.064 HD
ATOM     39  H   UNL     1     145.560 159.050 185.852  0.00  0.00    +0.059 HD
ATOM     40  H   UNL     1     148.219 160.189 186.904  0.00  0.00    +0.057 HD
ATOM     41  H   UNL     1     147.608 157.829 188.075  0.00  0.00    +0.034 HD
ATOM     42  H   UNL     1     145.977 158.425 188.066  0.00  0.00    +0.034 HD
ATOM     43  H   UNL     1     146.598 158.969 190.217  0.00  0.00    +0.074 HD
ATOM     44  H   UNL     1     146.165 163.124 189.297  0.00  0.00    +0.069 HD
ATOM     45  H   UNL     1     143.282 162.552 188.358  0.00  0.00    +0.062 HD
ATOM     46  H   UNL     1     145.109 165.041 188.619  0.00  0.00    +0.061 HD
ATOM     47  H   UNL     1     142.147 164.811 187.867  0.00  0.00    +0.057 HD
ATOM     48  H   UNL     1     142.543 167.089 187.045  0.00  0.00    +0.034 HD
ATOM     49  H   UNL     1     142.404 167.144 188.788  0.00  0.00    +0.034 HD
ATOM     50  H   UNL     1     144.134 168.695 188.184  0.00  0.00    +0.074 HD
ATOM     51  H   UNL     1     145.242 166.453 186.454  0.00  0.00    +0.036 HD
ATOM     52  H   UNL     1     147.109 166.982 187.830  0.00  0.00    +0.060 HD
ENDROOT
BRANCH   1  53
ATOM     53  C   UNL     1     147.962 169.051 185.190  0.00  0.00    -0.060 C 
ATOM     54  H   UNL     1     148.708 169.711 185.650  0.00  0.00    +0.023 HD
ATOM     55  H   UNL     1     147.018 169.604 185.194  0.00  0.00    +0.023 HD
ATOM     56  H   UNL     1     148.266 168.894 184.155  0.00  0.00    +0.023 HD
ENDBRANCH   1  53
BRANCH   5  57
ATOM     57  C   UNL     1     148.171 164.508 182.551  0.00  0.00    -0.041 C 
ATOM     58  H   UNL     1     147.107 164.655 182.757  0.00  0.00    +0.028 HD
ATOM     59  H   UNL     1     148.661 165.486 182.484  0.00  0.00    +0.028 HD
ATOM     60  H   UNL     1     148.230 164.055 181.558  0.00  0.00    +0.028 HD
ENDBRANCH   5  57
BRANCH  24  61
ATOM     61  C   UNL     1     144.736 168.383 185.695  0.00  0.00    -0.057 C 
ATOM     62  H   UNL     1     144.030 167.842 185.058  0.00  0.00    +0.023 HD
ATOM     63  H   UNL     1     144.210 169.248 186.106  0.00  0.00    +0.023 HD
ATOM     64  H   UNL     1     145.527 168.739 185.032  0.00  0.00    +0.023 HD
ENDBRANCH  24  61
BRANCH   8  65
ATOM     65  C   UNL     1     147.406 159.907 180.968  0.00  0.00    -0.062 C 
ATOM     66  H   UNL     1     147.764 158.888 181.146  0.00  0.00    +0.023 HD
ATOM     67  H   UNL     1     148.014 160.349 180.171  0.00  0.00    +0.023 HD
ATOM     68  H   UNL     1     146.375 159.846 180.601  0.00  0.00    +0.023 HD
ENDBRANCH   8  65
BRANCH  14  69
ATOM     69  C   UNL     1     148.663 159.600 190.038  0.00  0.00    +0.020 C 
ATOM     70  H   UNL     1     148.638 159.272 191.087  0.00  0.00    +0.036 HD
BRANCH  69  71
ATOM     71  C   UNL     1     149.542 158.591 189.267  0.00  0.00    -0.057 C 
ATOM     72  H   UNL     1     150.426 158.295 189.838  0.00  0.00    +0.023 HD
ATOM     73  H   UNL     1     149.873 159.011 188.310  0.00  0.00    +0.023 HD
ATOM     74  H   UNL     1     149.004 157.660 189.051  0.00  0.00    +0.023 HD
ENDBRANCH  69  71
BRANCH  69  75
ATOM     75  C   UNL     1     149.220 161.048 189.976  0.00  0.00    +0.064 C 
ATOM     76  H   UNL     1     148.365 161.737 190.000  0.00  0.00    +0.060 HD
BRANCH  75  77
ATOM     77  C   UNL     1     150.090 161.408 188.742  0.00  0.00    -0.017 C 
ATOM     78  H   UNL     1     150.292 160.475 188.202  0.00  0.00    +0.032 HD
BRANCH  77  79
ATOM     79  C   UNL     1     149.298 162.263 187.736  0.00  0.00    -0.060 C 
ATOM     80  H   UNL     1     148.815 161.669 186.957  0.00  0.00    +0.023 HD
ATOM     81  H   UNL     1     149.966 162.973 187.233  0.00  0.00    +0.023 HD
ATOM     82  H   UNL     1     148.524 162.846 188.247  0.00  0.00    +0.023 HD
ENDBRANCH  77  79
BRANCH  77  83
ATOM     83  C   UNL     1     151.474 162.036 189.052  0.00  0.00    -0.045 C 
ATOM     84  H   UNL     1     152.194 161.207 189.070  0.00  0.00    +0.027 HD
ATOM     85  H   UNL     1     151.469 162.451 190.066  0.00  0.00    +0.027 HD
BRANCH  83  86
ATOM     86  C   UNL     1     151.978 163.118 188.090  0.00  0.00    -0.015 C 
ATOM     87  H   UNL     1     151.343 163.151 187.199  0.00  0.00    +0.030 HD
ATOM     88  H   UNL     1     152.966 162.851 187.705  0.00  0.00    +0.030 HD
BRANCH  86  89
ATOM     89  C   UNL     1     152.083 164.514 188.743  0.00  0.00    +0.109 C 
ATOM     90  H   UNL     1     152.647 164.426 189.682  0.00  0.00    +0.074 HD
BRANCH  89  91
ATOM     91  C   UNL     1     150.751 165.252 189.083  0.00  0.00    +0.031 C 
ATOM     92  H   UNL     1     149.975 164.490 188.922  0.00  0.00    +0.037 HD
BRANCH  91  93
ATOM     93  C   UNL     1     150.486 166.378 188.079  0.00  0.00    -0.056 C 
ATOM     94  H   UNL     1     149.692 166.109 187.373  0.00  0.00    +0.023 HD
ATOM     95  H   UNL     1     151.382 166.628 187.503  0.00  0.00    +0.023 HD
ATOM     96  H   UNL     1     150.142 167.282 188.588  0.00  0.00    +0.023 HD
ENDBRANCH  91  93
BRANCH  91  97
ATOM     97  C   UNL     1     150.624 165.734 190.562  0.00  0.00    +0.115 C 
ATOM     98  H   UNL     1     150.098 166.698 190.554  0.00  0.00    +0.074 HD
BRANCH  97  99
ATOM     99  C   UNL     1     149.896 164.772 191.559  0.00  0.00    +0.013 C 
ATOM    100  H   UNL     1     150.452 163.823 191.545  0.00  0.00    +0.038 HD
BRANCH  99 101
ATOM    101  C   UNL     1     148.480 164.384 191.116  0.00  0.00    -0.056 C 
ATOM    102  H   UNL     1     148.309 164.676 190.073  0.00  0.00    +0.024 HD
ATOM    103  H   UNL     1     147.726 164.893 191.726  0.00  0.00    +0.024 HD
ATOM    104  H   UNL     1     148.308 163.306 191.183  0.00  0.00    +0.024 HD
ENDBRANCH  99 101
BRANCH  99 105
ATOM    105  C   UNL     1     149.892 165.261 192.995  0.00  0.00    -0.064 C 
ATOM    106  C   UNL     1     150.590 164.646 193.960  0.00  0.00    -0.005 C 
ATOM    107  H   UNL     1     149.261 166.115 193.212  0.00  0.00    +0.059 HD
ATOM    108  H   UNL     1     151.192 163.777 193.691  0.00  0.00    +0.078 HD
BRANCH 106 109
ATOM    109  N   UNL     1     150.659 164.986 195.303  0.00  0.00    -0.284 N 
ATOM    110  C   UNL     1     150.200 166.173 195.855  0.00  0.00    +0.206 C 
ATOM    111  O   UNL     1     150.274 166.502 197.035  0.00  0.00    -0.279 OA
ATOM    112  H   UNL     1     149.744 166.854 195.125  0.00  0.00    +0.126 HD
BRANCH 109 113
ATOM    113  C   UNL     1     151.297 164.022 196.196  0.00  0.00    +0.007 C 
ATOM    114  H   UNL     1     151.321 163.017 195.764  0.00  0.00    +0.043 HD
ATOM    115  H   UNL     1     152.327 164.340 196.395  0.00  0.00    +0.043 HD
ATOM    116  H   UNL     1     150.735 163.984 197.134  0.00  0.00    +0.043 HD
ENDBRANCH 109 113
ENDBRANCH 106 109
ENDBRANCH  99 105
ENDBRANCH  97  99
BRANCH  97 117
ATOM    117  O   UNL     1     151.965 165.945 191.078  0.00  0.00    -0.461 OA
BRANCH 117 118
ATOM    118  C   UNL     1     152.371 167.235 191.228  0.00  0.00    +0.304 C 
ATOM    119  O   UNL     1     152.426 168.073 190.339  0.00  0.00    -0.251 OA
BRANCH 118 120
ATOM    120  C   UNL     1     152.739 167.489 192.656  0.00  0.00    +0.033 C 
ATOM    121  H   UNL     1     152.218 168.383 193.011  0.00  0.00    +0.034 HD
ATOM    122  H   UNL     1     152.433 166.642 193.275  0.00  0.00    +0.034 HD
ATOM    123  H   UNL     1     153.817 167.655 192.736  0.00  0.00    +0.034 HD
ENDBRANCH 118 120
ENDBRANCH 117 118
ENDBRANCH  97 117
ENDBRANCH  91  97
ENDBRANCH  89  91
BRANCH  89 124
ATOM    124  O   UNL     1     152.853 165.374 187.862  0.00  0.00    -0.460 OA
BRANCH 124 125
ATOM    125  C   UNL     1     154.162 165.025 187.677  0.00  0.00    +0.324 C 
ATOM    126  O   UNL     1     154.698 164.892 186.583  0.00  0.00    -0.249 OA
BRANCH 125 127
ATOM    127  C   UNL     1     154.854 164.850 189.041  0.00  0.00    +0.105 C 
ATOM    128  H   UNL     1     154.085 164.668 189.804  0.00  0.00    +0.058 HD
BRANCH 127 129
ATOM    129  C   UNL     1     155.534 166.190 189.340  0.00  0.00    -0.039 C 
ATOM    130  H   UNL     1     156.098 166.552 188.473  0.00  0.00    +0.025 HD
ATOM    131  H   UNL     1     156.219 166.114 190.191  0.00  0.00    +0.025 HD
ATOM    132  H   UNL     1     154.791 166.959 189.586  0.00  0.00    +0.025 HD
ENDBRANCH 127 129
BRANCH 127 133
ATOM    133  N   UNL     1     155.800 163.696 189.010  0.00  0.00    -0.296 NA
BRANCH 133 134
ATOM    134  C   UNL     1     157.143 164.065 189.466  0.00  0.00    -0.012 C 
ATOM    135  H   UNL     1     157.783 163.179 189.534  0.00  0.00    +0.039 HD
ATOM    136  H   UNL     1     157.124 164.551 190.447  0.00  0.00    +0.039 HD
ATOM    137  H   UNL     1     157.634 164.732 188.751  0.00  0.00    +0.039 HD
ENDBRANCH 133 134
BRANCH 133 138
ATOM    138  C   UNL     1     155.303 162.582 189.829  0.00  0.00    -0.012 C 
ATOM    139  H   UNL     1     154.208 162.596 189.872  0.00  0.00    +0.039 HD
ATOM    140  H   UNL     1     155.619 161.611 189.432  0.00  0.00    +0.039 HD
ATOM    141  H   UNL     1     155.644 162.659 190.866  0.00  0.00    +0.039 HD
ENDBRANCH 133 138
ENDBRANCH 127 133
ENDBRANCH 125 127
ENDBRANCH 124 125
ENDBRANCH  89 124
ENDBRANCH  86  89
ENDBRANCH  83  86
ENDBRANCH  77  83
ENDBRANCH  75  77
BRANCH  75 142
ATOM    142  O   UNL     1     149.976 161.272 191.168  0.00  0.00    -0.391 OA
ATOM    143  H   UNL     1     149.430 161.005 191.927  0.00  0.00    +0.210 HD
ENDBRANCH  75 142
ENDBRANCH  69  75
ENDBRANCH  14  69
BRANCH  25 144
ATOM    144  O   UNL     1     146.928 168.992 187.866  0.00  0.00    -0.391 OA
ATOM    145  H   UNL     1     146.682 168.824 188.789  0.00  0.00    +0.210 HD
ENDBRANCH  25 144
BRANCH  23 146
ATOM    146  O   UNL     1     145.104 167.202 189.250  0.00  0.00    -0.460 OA
BRANCH 146 147
ATOM    147  C   UNL     1     145.146 168.035 190.321  0.00  0.00    +0.327 C 
ATOM    148  O   UNL     1     145.570 169.187 190.296  0.00  0.00    -0.249 OA
BRANCH 147 149
ATOM    149  C   UNL     1     144.524 167.387 191.567  0.00  0.00    +0.131 C 
ATOM    150  H   UNL     1     144.595 168.150 192.356  0.00  0.00    +0.060 HD
BRANCH 149 151
ATOM    151  C   UNL     1     145.436 166.218 192.018  0.00  0.00    +0.073 C 
ATOM    152  H   UNL     1     144.835 165.430 192.492  0.00  0.00    +0.058 HD
ATOM    153  H   UNL     1     145.924 165.784 191.136  0.00  0.00    +0.058 HD
BRANCH 151 154
ATOM    154  O   UNL     1     146.461 166.639 192.929  0.00  0.00    -0.381 OA
BRANCH 154 155
ATOM    155  C   UNL     1     146.430 165.875 194.128  0.00  0.00    +0.037 C 
ATOM    156  H   UNL     1     145.622 166.221 194.778  0.00  0.00    +0.052 HD
ATOM    157  H   UNL     1     146.307 164.812 193.900  0.00  0.00    +0.052 HD
ATOM    158  H   UNL     1     147.381 166.015 194.648  0.00  0.00    +0.052 HD
ENDBRANCH 154 155
ENDBRANCH 151 154
ENDBRANCH 149 151
BRANCH 149 159
ATOM    159  N   UNL     1     143.081 167.057 191.338  0.00  0.00    -0.294 NA
BRANCH 159 160
ATOM    160  C   UNL     1     142.257 168.268 191.270  0.00  0.00    -0.012 C 
ATOM    161  H   UNL     1     141.202 168.039 191.077  0.00  0.00    +0.039 HD
ATOM    162  H   UNL     1     142.612 168.933 190.473  0.00  0.00    +0.039 HD
ATOM    163  H   UNL     1     142.324 168.852 192.193  0.00  0.00    +0.039 HD
ENDBRANCH 159 160
BRANCH 159 164
ATOM    164  C   UNL     1     142.552 166.164 192.371  0.00  0.00    -0.012 C 
ATOM    165  H   UNL     1     141.558 166.496 192.696  0.00  0.00    +0.039 HD
ATOM    166  H   UNL     1     142.412 165.146 191.992  0.00  0.00    +0.039 HD
ATOM    167  H   UNL     1     143.202 166.122 193.252  0.00  0.00    +0.039 HD
ENDBRANCH 159 164
ENDBRANCH 149 159
ENDBRANCH 147 149
ENDBRANCH 146 147
ENDBRANCH  23 146
BRANCH   4 168
ATOM    168  O   UNL     1     150.316 165.263 184.706  0.00  0.00    -0.376 OA
BRANCH 168 169
ATOM    169  C   UNL     1     151.575 164.600 184.719  0.00  0.00    +0.037 C 
ATOM    170  H   UNL     1     151.392 163.528 184.616  0.00  0.00    +0.052 HD
ATOM    171  H   UNL     1     152.091 164.764 185.668  0.00  0.00    +0.052 HD
ATOM    172  H   UNL     1     152.199 164.926 183.884  0.00  0.00    +0.052 HD
ENDBRANCH 168 169
ENDBRANCH   4 168
BRANCH  10 173
ATOM    173  O   UNL     1     145.313 161.031 184.268  0.00  0.00    -0.376 OA
BRANCH 173 174
ATOM    174  C   UNL     1     144.347 159.991 184.249  0.00  0.00    +0.037 C 
ATOM    175  H   UNL     1     144.111 159.668 185.265  0.00  0.00    +0.052 HD
ATOM    176  H   UNL     1     144.768 159.139 183.706  0.00  0.00    +0.052 HD
ATOM    177  H   UNL     1     143.442 160.316 183.728  0.00  0.00    +0.052 HD
ENDBRANCH 173 174
ENDBRANCH  10 173
TORSDOF 45
ENDMDL
MODEL 10
REMARK VINA RESULT:      -4.5      7.908     13.368
REMARK  Name = Aplyronine A_conf3
REMARK  45 active torsions:
REMARK  status: ('A' for Active; 'I' for Inactive)
REMARK    1  A    between atoms: C_1  and  C_2
REMARK    2  A    between atoms: C_5  and  O_75
REMARK    3  A    between atoms: C_6  and  C_74
REMARK    4  A    between atoms: C_9  and  C_73
REMARK    5  A    between atoms: C_11  and  O_71
REMARK    6  A    between atoms: C_15  and  C_39
REMARK    7  A    between atoms: C_24  and  O_29
REMARK    8  A    between atoms: C_25  and  C_28
REMARK    9  A    between atoms: C_26  and  O_27
REMARK   10  A    between atoms: O_29  and  C_30
REMARK   11  A    between atoms: C_30  and  C_32
REMARK   12  A    between atoms: C_32  and  C_33
REMARK   13  A    between atoms: C_32  and  N_36
REMARK   14  A    between atoms: C_33  and  O_34
REMARK   15  A    between atoms: O_34  and  C_35
REMARK   16  A    between atoms: N_36  and  C_37
REMARK   17  A    between atoms: N_36  and  C_38
REMARK   18  A    between atoms: C_39  and  C_40
REMARK   19  A    between atoms: C_39  and  C_41
REMARK   20  A    between atoms: C_41  and  C_42
REMARK   21  A    between atoms: C_41  and  O_70
REMARK   22  A    between atoms: C_42  and  C_43
REMARK   23  A    between atoms: C_42  and  C_44
REMARK   24  A    between atoms: C_44  and  C_45
REMARK   25  A    between atoms: C_45  and  C_46
REMARK   26  A    between atoms: C_46  and  C_47
REMARK   27  A    between atoms: C_46  and  O_62
REMARK   28  A    between atoms: C_47  and  C_48
REMARK   29  A    between atoms: C_47  and  C_49
REMARK   30  A    between atoms: C_49  and  C_50
REMARK   31  A    between atoms: C_49  and  O_58
REMARK   32  A    between atoms: C_50  and  C_51
REMARK   33  A    between atoms: C_50  and  C_52
REMARK   34  A    between atoms: C_53  and  N_54
REMARK   35  A    between atoms: N_54  and  C_55
REMARK   36  A    between atoms: O_58  and  C_59
REMARK   37  A    between atoms: C_59  and  C_61
REMARK   38  A    between atoms: O_62  and  C_63
REMARK   39  A    between atoms: C_63  and  C_65
REMARK   40  A    between atoms: C_65  and  C_66
REMARK   41  A    between atoms: C_65  and  N_67
REMARK   42  A    between atoms: N_67  and  C_68
REMARK   43  A    between atoms: N_67  and  C_69
REMARK   44  A    between atoms: O_71  and  C_72
REMARK   45  A    between atoms: O_75  and  C_76
REMARK                            x       y       z     vdW  Elec       q    Type
REMARK                         _______ _______ _______ _____ _____    ______ ____
ROOT
ATOM      1  C   UNL     1     145.785 178.139 184.783  0.00  0.00    -0.017 C 
ATOM      2  C   UNL     1     144.338 177.622 184.622  0.00  0.00    -0.045 C 
ATOM      3  C   UNL     1     143.827 176.773 185.800  0.00  0.00    -0.022 C 
ATOM      4  C   UNL     1     143.315 175.358 185.427  0.00  0.00    +0.079 C 
ATOM      5  C   UNL     1     141.925 175.293 184.787  0.00  0.00    -0.048 C 
ATOM      6  C   UNL     1     140.993 174.462 185.308  0.00  0.00    -0.082 C 
ATOM      7  C   UNL     1     139.602 174.185 184.810  0.00  0.00    -0.032 C 
ATOM      8  C   UNL     1     138.494 175.076 185.411  0.00  0.00    -0.038 C 
ATOM      9  C   UNL     1     138.411 174.993 186.956  0.00  0.00    -0.020 C 
ATOM     10  C   UNL     1     139.349 175.978 187.674  0.00  0.00    +0.077 C 
ATOM     11  C   UNL     1     139.259 175.806 189.167  0.00  0.00    -0.059 C 
ATOM     12  C   UNL     1     140.132 175.111 189.917  0.00  0.00    -0.082 C 
ATOM     13  C   UNL     1     140.073 175.097 191.424  0.00  0.00    +0.003 C 
ATOM     14  C   UNL     1     141.424 175.373 192.129  0.00  0.00    +0.112 C 
ATOM     15  O   UNL     1     142.160 176.390 191.403  0.00  0.00    -0.458 OA
ATOM     16  C   UNL     1     141.721 177.668 191.423  0.00  0.00    +0.332 C 
ATOM     17  O   UNL     1     140.769 178.119 192.033  0.00  0.00    -0.246 OA
ATOM     18  C   UNL     1     142.627 178.407 190.527  0.00  0.00    +0.022 C 
ATOM     19  C   UNL     1     142.346 179.620 190.034  0.00  0.00    -0.055 C 
ATOM     20  C   UNL     1     143.279 180.245 189.129  0.00  0.00    -0.065 C 
ATOM     21  C   UNL     1     143.193 181.490 188.639  0.00  0.00    -0.081 C 
ATOM     22  C   UNL     1     144.234 182.183 187.779  0.00  0.00    +0.003 C 
ATOM     23  C   UNL     1     145.427 181.366 187.203  0.00  0.00    +0.111 C 
ATOM     24  C   UNL     1     145.004 180.381 186.058  0.00  0.00    +0.020 C 
ATOM     25  C   UNL     1     146.002 179.192 185.911  0.00  0.00    +0.064 C 
ATOM     26  H   UNL     1     146.402 177.273 185.068  0.00  0.00    +0.032 HD
ATOM     27  H   UNL     1     144.293 177.039 183.697  0.00  0.00    +0.027 HD
ATOM     28  H   UNL     1     143.655 178.462 184.466  0.00  0.00    +0.027 HD
ATOM     29  H   UNL     1     144.646 176.636 186.517  0.00  0.00    +0.029 HD
ATOM     30  H   UNL     1     143.042 177.321 186.336  0.00  0.00    +0.029 HD
ATOM     31  H   UNL     1     143.296 174.801 186.374  0.00  0.00    +0.064 HD
ATOM     32  H   UNL     1     141.261 173.871 186.186  0.00  0.00    +0.057 HD
ATOM     33  H   UNL     1     139.381 173.132 185.027  0.00  0.00    +0.031 HD
ATOM     34  H   UNL     1     139.573 174.253 183.715  0.00  0.00    +0.031 HD
ATOM     35  H   UNL     1     138.676 176.115 185.108  0.00  0.00    +0.030 HD
ATOM     36  H   UNL     1     138.609 173.965 187.283  0.00  0.00    +0.030 HD
ATOM     37  H   UNL     1     137.382 175.230 187.263  0.00  0.00    +0.030 HD
ATOM     38  H   UNL     1     140.383 175.843 187.350  0.00  0.00    +0.064 HD
ATOM     39  H   UNL     1     138.446 176.345 189.650  0.00  0.00    +0.059 HD
ATOM     40  H   UNL     1     140.945 174.561 189.448  0.00  0.00    +0.057 HD
ATOM     41  H   UNL     1     139.618 174.167 191.772  0.00  0.00    +0.034 HD
ATOM     42  H   UNL     1     139.377 175.886 191.745  0.00  0.00    +0.034 HD
ATOM     43  H   UNL     1     141.209 175.755 193.136  0.00  0.00    +0.074 HD
ATOM     44  H   UNL     1     143.549 177.894 190.265  0.00  0.00    +0.069 HD
ATOM     45  H   UNL     1     141.431 180.138 190.304  0.00  0.00    +0.062 HD
ATOM     46  H   UNL     1     144.138 179.626 188.884  0.00  0.00    +0.061 HD
ATOM     47  H   UNL     1     142.339 182.106 188.912  0.00  0.00    +0.057 HD
ATOM     48  H   UNL     1     143.708 182.687 186.961  0.00  0.00    +0.034 HD
ATOM     49  H   UNL     1     144.648 182.984 188.406  0.00  0.00    +0.034 HD
ATOM     50  H   UNL     1     146.156 182.071 186.778  0.00  0.00    +0.074 HD
ATOM     51  H   UNL     1     144.032 179.945 186.318  0.00  0.00    +0.036 HD
ATOM     52  H   UNL     1     145.940 178.627 186.848  0.00  0.00    +0.060 HD
ENDROOT
BRANCH   1  53
ATOM     53  C   UNL     1     146.347 178.552 183.412  0.00  0.00    -0.060 C 
ATOM     54  H   UNL     1     146.555 179.629 183.399  0.00  0.00    +0.023 HD
ATOM     55  H   UNL     1     145.627 178.367 182.610  0.00  0.00    +0.023 HD
ATOM     56  H   UNL     1     147.278 178.041 183.165  0.00  0.00    +0.023 HD
ENDBRANCH   1  53
BRANCH   5  57
ATOM     57  C   UNL     1     141.679 176.137 183.567  0.00  0.00    -0.041 C 
ATOM     58  H   UNL     1     140.614 176.368 183.468  0.00  0.00    +0.028 HD
ATOM     59  H   UNL     1     142.244 177.074 183.629  0.00  0.00    +0.028 HD
ATOM     60  H   UNL     1     141.974 175.650 182.635  0.00  0.00    +0.028 HD
ENDBRANCH   5  57
BRANCH  24  61
ATOM     61  C   UNL     1     144.810 181.183 184.764  0.00  0.00    -0.057 C 
ATOM     62  H   UNL     1     144.226 180.627 184.024  0.00  0.00    +0.023 HD
ATOM     63  H   UNL     1     144.290 182.125 184.953  0.00  0.00    +0.023 HD
ATOM     64  H   UNL     1     145.768 181.404 184.286  0.00  0.00    +0.023 HD
ENDBRANCH  24  61
BRANCH   8  65
ATOM     65  C   UNL     1     137.147 174.657 184.806  0.00  0.00    -0.062 C 
ATOM     66  H   UNL     1     136.760 173.754 185.287  0.00  0.00    +0.023 HD
ATOM     67  H   UNL     1     137.245 174.458 183.733  0.00  0.00    +0.023 HD
ATOM     68  H   UNL     1     136.404 175.453 184.928  0.00  0.00    +0.023 HD
ENDBRANCH   8  65
BRANCH  14  69
ATOM     69  C   UNL     1     142.419 174.172 192.283  0.00  0.00    +0.020 C 
ATOM     70  H   UNL     1     143.007 174.339 193.197  0.00  0.00    +0.036 HD
BRANCH  69  71
ATOM     71  C   UNL     1     141.574 172.900 192.513  0.00  0.00    -0.057 C 
ATOM     72  H   UNL     1     141.206 172.476 191.574  0.00  0.00    +0.023 HD
ATOM     73  H   UNL     1     140.713 173.113 193.157  0.00  0.00    +0.023 HD
ATOM     74  H   UNL     1     142.154 172.102 192.990  0.00  0.00    +0.023 HD
ENDBRANCH  69  71
BRANCH  69  75
ATOM     75  C   UNL     1     143.388 174.038 191.077  0.00  0.00    +0.064 C 
ATOM     76  H   UNL     1     142.953 174.590 190.235  0.00  0.00    +0.060 HD
BRANCH  75  77
ATOM     77  C   UNL     1     143.703 172.598 190.594  0.00  0.00    -0.017 C 
ATOM     78  H   UNL     1     142.992 171.924 191.087  0.00  0.00    +0.032 HD
BRANCH  77  79
ATOM     79  C   UNL     1     143.394 172.437 189.093  0.00  0.00    -0.060 C 
ATOM     80  H   UNL     1     142.685 171.633 188.887  0.00  0.00    +0.023 HD
ATOM     81  H   UNL     1     144.313 172.207 188.540  0.00  0.00    +0.023 HD
ATOM     82  H   UNL     1     142.987 173.366 188.681  0.00  0.00    +0.023 HD
ENDBRANCH  77  79
BRANCH  77  83
ATOM     83  C   UNL     1     145.117 172.062 190.941  0.00  0.00    -0.045 C 
ATOM     84  H   UNL     1     144.970 171.229 191.641  0.00  0.00    +0.027 HD
ATOM     85  H   UNL     1     145.671 172.826 191.496  0.00  0.00    +0.027 HD
BRANCH  83  86
ATOM     86  C   UNL     1     145.988 171.588 189.772  0.00  0.00    -0.015 C 
ATOM     87  H   UNL     1     146.675 172.385 189.470  0.00  0.00    +0.030 HD
ATOM     88  H   UNL     1     145.370 171.416 188.886  0.00  0.00    +0.030 HD
BRANCH  86  89
ATOM     89  C   UNL     1     146.759 170.284 190.075  0.00  0.00    +0.109 C 
ATOM     90  H   UNL     1     147.744 170.333 189.591  0.00  0.00    +0.074 HD
BRANCH  89  91
ATOM     91  C   UNL     1     146.103 168.940 189.630  0.00  0.00    +0.031 C 
ATOM     92  H   UNL     1     146.955 168.259 189.496  0.00  0.00    +0.037 HD
BRANCH  91  93
ATOM     93  C   UNL     1     145.435 169.094 188.259  0.00  0.00    -0.056 C 
ATOM     94  H   UNL     1     145.763 168.315 187.562  0.00  0.00    +0.023 HD
ATOM     95  H   UNL     1     145.652 170.067 187.808  0.00  0.00    +0.023 HD
ATOM     96  H   UNL     1     144.350 168.988 188.340  0.00  0.00    +0.023 HD
ENDBRANCH  91  93
BRANCH  91  97
ATOM     97  C   UNL     1     145.152 168.290 190.683  0.00  0.00    +0.115 C 
ATOM     98  H   UNL     1     145.335 168.784 191.647  0.00  0.00    +0.074 HD
BRANCH  97  99
ATOM     99  C   UNL     1     143.619 168.339 190.376  0.00  0.00    +0.013 C 
ATOM    100  H   UNL     1     143.501 168.920 189.450  0.00  0.00    +0.038 HD
BRANCH  99 101
ATOM    101  C   UNL     1     142.808 169.121 191.416  0.00  0.00    -0.056 C 
ATOM    102  H   UNL     1     141.854 168.620 191.617  0.00  0.00    +0.024 HD
ATOM    103  H   UNL     1     142.578 170.129 191.056  0.00  0.00    +0.024 HD
ATOM    104  H   UNL     1     143.335 169.207 192.371  0.00  0.00    +0.024 HD
ENDBRANCH  99 101
BRANCH  99 105
ATOM    105  C   UNL     1     142.996 166.978 190.127  0.00  0.00    -0.064 C 
ATOM    106  C   UNL     1     142.613 166.581 188.904  0.00  0.00    -0.005 C 
ATOM    107  H   UNL     1     142.839 166.353 190.997  0.00  0.00    +0.059 HD
ATOM    108  H   UNL     1     142.776 167.259 188.066  0.00  0.00    +0.078 HD
BRANCH 106 109
ATOM    109  N   UNL     1     142.027 165.375 188.551  0.00  0.00    -0.284 N 
ATOM    110  C   UNL     1     142.420 164.127 189.010  0.00  0.00    +0.206 C 
ATOM    111  O   UNL     1     141.930 163.048 188.690  0.00  0.00    -0.279 OA
ATOM    112  H   UNL     1     143.259 164.158 189.716  0.00  0.00    +0.126 HD
BRANCH 109 113
ATOM    113  C   UNL     1     140.926 165.433 187.593  0.00  0.00    +0.007 C 
ATOM    114  H   UNL     1     140.374 166.376 187.659  0.00  0.00    +0.043 HD
ATOM    115  H   UNL     1     141.325 165.334 186.577  0.00  0.00    +0.043 HD
ATOM    116  H   UNL     1     140.235 164.611 187.799  0.00  0.00    +0.043 HD
ENDBRANCH 109 113
ENDBRANCH 106 109
ENDBRANCH  99 105
ENDBRANCH  97  99
BRANCH  97 117
ATOM    117  O   UNL     1     145.516 166.889 190.807  0.00  0.00    -0.461 OA
BRANCH 117 118
ATOM    118  C   UNL     1     146.194 166.527 191.929  0.00  0.00    +0.304 C 
ATOM    119  O   UNL     1     145.893 166.832 193.075  0.00  0.00    -0.251 OA
BRANCH 118 120
ATOM    120  C   UNL     1     147.373 165.682 191.559  0.00  0.00    +0.033 C 
ATOM    121  H   UNL     1     147.643 165.873 190.517  0.00  0.00    +0.034 HD
ATOM    122  H   UNL     1     148.227 165.940 192.191  0.00  0.00    +0.034 HD
ATOM    123  H   UNL     1     147.119 164.624 191.668  0.00  0.00    +0.034 HD
ENDBRANCH 118 120
ENDBRANCH 117 118
ENDBRANCH  97 117
ENDBRANCH  91  97
ENDBRANCH  89  91
BRANCH  89 124
ATOM    124  O   UNL     1     146.990 170.212 191.506  0.00  0.00    -0.460 OA
BRANCH 124 125
ATOM    125  C   UNL     1     148.278 169.967 191.894  0.00  0.00    +0.324 C 
ATOM    126  O   UNL     1     148.666 168.919 192.397  0.00  0.00    -0.249 OA
BRANCH 125 127
ATOM    127  C   UNL     1     149.160 171.191 191.580  0.00  0.00    +0.105 C 
ATOM    128  H   UNL     1     149.160 171.354 190.494  0.00  0.00    +0.058 HD
BRANCH 127 129
ATOM    129  C   UNL     1     150.577 170.808 192.019  0.00  0.00    -0.039 C 
ATOM    130  H   UNL     1     151.200 170.536 191.160  0.00  0.00    +0.025 HD
ATOM    131  H   UNL     1     150.569 169.967 192.720  0.00  0.00    +0.025 HD
ATOM    132  H   UNL     1     151.070 171.648 192.522  0.00  0.00    +0.025 HD
ENDBRANCH 127 129
BRANCH 127 133
ATOM    133  N   UNL     1     148.634 172.409 192.262  0.00  0.00    -0.296 NA
BRANCH 133 134
ATOM    134  C   UNL     1     149.413 172.761 193.452  0.00  0.00    -0.012 C 
ATOM    135  H   UNL     1     149.860 171.866 193.897  0.00  0.00    +0.039 HD
ATOM    136  H   UNL     1     148.798 173.253 194.213  0.00  0.00    +0.039 HD
ATOM    137  H   UNL     1     150.251 173.416 193.197  0.00  0.00    +0.039 HD
ENDBRANCH 133 134
BRANCH 133 138
ATOM    138  C   UNL     1     148.608 173.558 191.346  0.00  0.00    -0.012 C 
ATOM    139  H   UNL     1     149.354 173.433 190.553  0.00  0.00    +0.039 HD
ATOM    140  H   UNL     1     147.626 173.685 190.877  0.00  0.00    +0.039 HD
ATOM    141  H   UNL     1     148.869 174.489 191.858  0.00  0.00    +0.039 HD
ENDBRANCH 133 138
ENDBRANCH 127 133
ENDBRANCH 125 127
ENDBRANCH 124 125
ENDBRANCH  89 124
ENDBRANCH  86  89
ENDBRANCH  83  86
ENDBRANCH  77  83
ENDBRANCH  75  77
BRANCH  75 142
ATOM    142  O   UNL     1     144.607 174.696 191.428  0.00  0.00    -0.391 OA
ATOM    143  H   UNL     1     145.327 174.296 190.912  0.00  0.00    +0.210 HD
ENDBRANCH  75 142
ENDBRANCH  69  75
ENDBRANCH  14  69
BRANCH  25 144
ATOM    144  O   UNL     1     147.348 179.678 185.854  0.00  0.00    -0.391 OA
ATOM    145  H   UNL     1     147.446 180.384 186.512  0.00  0.00    +0.210 HD
ENDBRANCH  25 144
BRANCH  23 146
ATOM    146  O   UNL     1     146.054 180.636 188.275  0.00  0.00    -0.460 OA
BRANCH 146 147
ATOM    147  C   UNL     1     147.155 181.171 188.861  0.00  0.00    +0.327 C 
ATOM    148  O   UNL     1     147.879 180.582 189.660  0.00  0.00    -0.249 OA
BRANCH 147 149
ATOM    149  C   UNL     1     147.439 182.589 188.345  0.00  0.00    +0.131 C 
ATOM    150  H   UNL     1     146.730 182.744 187.519  0.00  0.00    +0.060 HD
BRANCH 149 151
ATOM    151  C   UNL     1     148.851 182.605 187.707  0.00  0.00    +0.073 C 
ATOM    152  H   UNL     1     149.117 183.626 187.403  0.00  0.00    +0.058 HD
ATOM    153  H   UNL     1     149.584 182.272 188.452  0.00  0.00    +0.058 HD
BRANCH 151 154
ATOM    154  O   UNL     1     148.950 181.735 186.570  0.00  0.00    -0.381 OA
BRANCH 154 155
ATOM    155  C   UNL     1     149.939 182.194 185.656  0.00  0.00    +0.037 C 
ATOM    156  H   UNL     1     150.750 181.466 185.576  0.00  0.00    +0.052 HD
ATOM    157  H   UNL     1     149.494 182.379 184.674  0.00  0.00    +0.052 HD
ATOM    158  H   UNL     1     150.349 183.133 186.039  0.00  0.00    +0.052 HD
ENDBRANCH 154 155
ENDBRANCH 151 154
ENDBRANCH 149 151
BRANCH 149 159
ATOM    159  N   UNL     1     147.177 183.612 189.409  0.00  0.00    -0.294 NA
BRANCH 159 160
ATOM    160  C   UNL     1     146.244 183.106 190.421  0.00  0.00    -0.012 C 
ATOM    161  H   UNL     1     145.202 183.149 190.079  0.00  0.00    +0.039 HD
ATOM    162  H   UNL     1     146.322 183.690 191.346  0.00  0.00    +0.039 HD
ATOM    163  H   UNL     1     146.477 182.074 190.702  0.00  0.00    +0.039 HD
ENDBRANCH 159 160
BRANCH 159 164
ATOM    164  C   UNL     1     146.662 184.863 188.852  0.00  0.00    -0.012 C 
ATOM    165  H   UNL     1     146.361 185.548 189.655  0.00  0.00    +0.039 HD
ATOM    166  H   UNL     1     147.429 185.398 188.282  0.00  0.00    +0.039 HD
ATOM    167  H   UNL     1     145.795 184.699 188.201  0.00  0.00    +0.039 HD
ENDBRANCH 159 164
ENDBRANCH 149 159
ENDBRANCH 147 149
ENDBRANCH 146 147
ENDBRANCH  23 146
BRANCH   4 168
ATOM    168  O   UNL     1     144.293 174.737 184.577  0.00  0.00    -0.376 OA
BRANCH 168 169
ATOM    169  C   UNL     1     145.345 174.104 185.297  0.00  0.00    +0.037 C 
ATOM    170  H   UNL     1     146.293 174.481 184.908  0.00  0.00    +0.052 HD
ATOM    171  H   UNL     1     145.324 173.022 185.144  0.00  0.00    +0.052 HD
ATOM    172  H   UNL     1     145.289 174.340 186.361  0.00  0.00    +0.052 HD
ENDBRANCH 168 169
ENDBRANCH   4 168
BRANCH  10 173
ATOM    173  O   UNL     1     138.915 177.304 187.336  0.00  0.00    -0.376 OA
BRANCH 173 174
ATOM    174  C   UNL     1     139.429 178.300 188.208  0.00  0.00    +0.037 C 
ATOM    175  H   UNL     1     139.123 179.294 187.877  0.00  0.00    +0.052 HD
ATOM    176  H   UNL     1     140.521 178.249 188.182  0.00  0.00    +0.052 HD
ATOM    177  H   UNL     1     139.101 178.118 189.235  0.00  0.00    +0.052 HD
ENDBRANCH 173 174
ENDBRANCH  10 173
TORSDOF 45
ENDMDL
