MODEL 1
REMARK VINA RESULT:      -5.4      0.000      0.000
REMARK  Name = Aplyronine A_conf1
REMARK  45 active torsions:
REMARK  status: ('A' for Active; 'I' for Inactive)
REMARK    1  A    between atoms: C_1  and  C_2
REMARK    2  A    between atoms: C_5  and  O_75
REMARK    3  A    between atoms: C_6  and  C_74
REMARK    4  A    between atoms: C_9  and  C_73
REMARK    5  A    between atoms: C_11  and  O_71
REMARK    6  A    between atoms: C_15  and  C_39
REMARK    7  A    between atoms: C_24  and  O_29
REMARK    8  A    between atoms: C_25  and  C_28
REMARK    9  A    between atoms: C_26  and  O_27
REMARK   10  A    between atoms: O_29  and  C_30
REMARK   11  A    between atoms: C_30  and  C_32
REMARK   12  A    between atoms: C_32  and  C_33
REMARK   13  A    between atoms: C_32  and  N_36
REMARK   14  A    between atoms: C_33  and  O_34
REMARK   15  A    between atoms: O_34  and  C_35
REMARK   16  A    between atoms: N_36  and  C_37
REMARK   17  A    between atoms: N_36  and  C_38
REMARK   18  A    between atoms: C_39  and  C_40
REMARK   19  A    between atoms: C_39  and  C_41
REMARK   20  A    between atoms: C_41  and  C_42
REMARK   21  A    between atoms: C_41  and  O_70
REMARK   22  A    between atoms: C_42  and  C_43
REMARK   23  A    between atoms: C_42  and  C_44
REMARK   24  A    between atoms: C_44  and  C_45
REMARK   25  A    between atoms: C_45  and  C_46
REMARK   26  A    between atoms: C_46  and  C_47
REMARK   27  A    between atoms: C_46  and  O_62
REMARK   28  A    between atoms: C_47  and  C_48
REMARK   29  A    between atoms: C_47  and  C_49
REMARK   30  A    between atoms: C_49  and  C_50
REMARK   31  A    between atoms: C_49  and  O_58
REMARK   32  A    between atoms: C_50  and  C_51
REMARK   33  A    between atoms: C_50  and  C_52
REMARK   34  A    between atoms: C_53  and  N_54
REMARK   35  A    between atoms: N_54  and  C_55
REMARK   36  A    between atoms: O_58  and  C_59
REMARK   37  A    between atoms: C_59  and  C_61
REMARK   38  A    between atoms: O_62  and  C_63
REMARK   39  A    between atoms: C_63  and  C_65
REMARK   40  A    between atoms: C_65  and  C_66
REMARK   41  A    between atoms: C_65  and  N_67
REMARK   42  A    between atoms: N_67  and  C_68
REMARK   43  A    between atoms: N_67  and  C_69
REMARK   44  A    between atoms: O_71  and  C_72
REMARK   45  A    between atoms: O_75  and  C_76
REMARK                            x       y       z     vdW  Elec       q    Type
REMARK                         _______ _______ _______ _____ _____    ______ ____
ROOT
ATOM      1  C   UNL     1     159.499 156.324 191.913  0.00  0.00    -0.017 C 
ATOM      2  C   UNL     1     158.022 156.709 191.692  0.00  0.00    -0.045 C 
ATOM      3  C   UNL     1     156.970 155.598 191.898  0.00  0.00    -0.022 C 
ATOM      4  C   UNL     1     157.092 154.281 191.101  0.00  0.00    +0.079 C 
ATOM      5  C   UNL     1     157.154 154.360 189.572  0.00  0.00    -0.048 C 
ATOM      6  C   UNL     1     156.664 155.404 188.868  0.00  0.00    -0.082 C 
ATOM      7  C   UNL     1     156.629 155.576 187.372  0.00  0.00    -0.032 C 
ATOM      8  C   UNL     1     157.787 156.436 186.834  0.00  0.00    -0.038 C 
ATOM      9  C   UNL     1     157.786 157.920 187.284  0.00  0.00    -0.020 C 
ATOM     10  C   UNL     1     156.503 158.718 186.970  0.00  0.00    +0.077 C 
ATOM     11  C   UNL     1     156.791 160.199 187.035  0.00  0.00    -0.059 C 
ATOM     12  C   UNL     1     156.594 161.060 186.021  0.00  0.00    -0.082 C 
ATOM     13  C   UNL     1     156.855 162.550 186.076  0.00  0.00    +0.003 C 
ATOM     14  C   UNL     1     156.001 163.379 187.077  0.00  0.00    +0.112 C 
ATOM     15  O   UNL     1     156.549 163.059 188.381  0.00  0.00    -0.458 OA
ATOM     16  C   UNL     1     156.823 164.088 189.221  0.00  0.00    +0.332 C 
ATOM     17  O   UNL     1     156.415 165.234 189.133  0.00  0.00    -0.246 OA
ATOM     18  C   UNL     1     157.768 163.651 190.270  0.00  0.00    +0.022 C 
ATOM     19  C   UNL     1     158.771 162.819 189.955  0.00  0.00    -0.055 C 
ATOM     20  C   UNL     1     159.846 162.415 190.825  0.00  0.00    -0.065 C 
ATOM     21  C   UNL     1     159.704 161.876 192.043  0.00  0.00    -0.081 C 
ATOM     22  C   UNL     1     160.890 161.351 192.821  0.00  0.00    +0.003 C 
ATOM     23  C   UNL     1     160.787 159.859 193.227  0.00  0.00    +0.111 C 
ATOM     24  C   UNL     1     160.296 158.869 192.123  0.00  0.00    +0.020 C 
ATOM     25  C   UNL     1     160.267 157.425 192.701  0.00  0.00    +0.064 C 
ATOM     26  H   UNL     1     159.539 155.442 192.567  0.00  0.00    +0.032 HD
ATOM     27  H   UNL     1     157.898 157.169 190.708  0.00  0.00    +0.027 HD
ATOM     28  H   UNL     1     157.748 157.495 192.409  0.00  0.00    +0.027 HD
ATOM     29  H   UNL     1     156.981 155.352 192.967  0.00  0.00    +0.029 HD
ATOM     30  H   UNL     1     155.982 156.037 191.703  0.00  0.00    +0.029 HD
ATOM     31  H   UNL     1     156.196 153.683 191.323  0.00  0.00    +0.064 HD
ATOM     32  H   UNL     1     156.207 156.235 189.398  0.00  0.00    +0.057 HD
ATOM     33  H   UNL     1     155.661 156.006 187.091  0.00  0.00    +0.031 HD
ATOM     34  H   UNL     1     156.637 154.601 186.877  0.00  0.00    +0.031 HD
ATOM     35  H   UNL     1     158.726 156.002 187.208  0.00  0.00    +0.030 HD
ATOM     36  H   UNL     1     158.647 158.409 186.810  0.00  0.00    +0.030 HD
ATOM     37  H   UNL     1     157.974 157.954 188.365  0.00  0.00    +0.030 HD
ATOM     38  H   UNL     1     156.125 158.440 185.980  0.00  0.00    +0.064 HD
ATOM     39  H   UNL     1     157.166 160.560 187.991  0.00  0.00    +0.059 HD
ATOM     40  H   UNL     1     156.204 160.688 185.076  0.00  0.00    +0.057 HD
ATOM     41  H   UNL     1     156.736 162.943 185.060  0.00  0.00    +0.034 HD
ATOM     42  H   UNL     1     157.919 162.688 186.313  0.00  0.00    +0.034 HD
ATOM     43  H   UNL     1     156.189 164.440 186.865  0.00  0.00    +0.074 HD
ATOM     44  H   UNL     1     157.672 164.127 191.239  0.00  0.00    +0.069 HD
ATOM     45  H   UNL     1     158.872 162.456 188.933  0.00  0.00    +0.062 HD
ATOM     46  H   UNL     1     160.838 162.484 190.378  0.00  0.00    +0.061 HD
ATOM     47  H   UNL     1     158.725 161.763 192.504  0.00  0.00    +0.057 HD
ATOM     48  H   UNL     1     160.984 161.970 193.724  0.00  0.00    +0.034 HD
ATOM     49  H   UNL     1     161.814 161.496 192.250  0.00  0.00    +0.034 HD
ATOM     50  H   UNL     1     161.791 159.535 193.535  0.00  0.00    +0.074 HD
ATOM     51  H   UNL     1     159.270 159.148 191.858  0.00  0.00    +0.036 HD
ATOM     52  H   UNL     1     159.785 157.459 193.684  0.00  0.00    +0.060 HD
ENDROOT
BRANCH   1  53
ATOM     53  C   UNL     1     160.192 155.911 190.606  0.00  0.00    -0.060 C 
ATOM     54  H   UNL     1     160.944 156.643 190.313  0.00  0.00    +0.023 HD
ATOM     55  H   UNL     1     159.490 155.839 189.772  0.00  0.00    +0.023 HD
ATOM     56  H   UNL     1     160.708 154.954 190.701  0.00  0.00    +0.023 HD
ENDBRANCH   1  53
BRANCH   5  57
ATOM     57  C   UNL     1     157.764 153.140 188.921  0.00  0.00    -0.041 C 
ATOM     58  H   UNL     1     157.561 153.062 187.850  0.00  0.00    +0.028 HD
ATOM     59  H   UNL     1     158.853 153.147 189.028  0.00  0.00    +0.028 HD
ATOM     60  H   UNL     1     157.373 152.229 189.387  0.00  0.00    +0.028 HD
ENDBRANCH   5  57
BRANCH  24  61
ATOM     61  C   UNL     1     161.171 158.976 190.866  0.00  0.00    -0.057 C 
ATOM     62  H   UNL     1     160.849 159.803 190.229  0.00  0.00    +0.023 HD
ATOM     63  H   UNL     1     161.152 158.055 190.272  0.00  0.00    +0.023 HD
ATOM     64  H   UNL     1     162.217 159.183 191.101  0.00  0.00    +0.023 HD
ENDBRANCH  24  61
BRANCH   8  65
ATOM     65  C   UNL     1     157.846 156.333 185.306  0.00  0.00    -0.062 C 
ATOM     66  H   UNL     1     156.893 156.613 184.846  0.00  0.00    +0.023 HD
ATOM     67  H   UNL     1     158.626 156.987 184.899  0.00  0.00    +0.023 HD
ATOM     68  H   UNL     1     158.078 155.309 184.996  0.00  0.00    +0.023 HD
ENDBRANCH   8  65
BRANCH  14  69
ATOM     69  C   UNL     1     154.477 163.097 187.004  0.00  0.00    +0.020 C 
ATOM     70  H   UNL     1     154.308 162.377 186.200  0.00  0.00    +0.036 HD
BRANCH  69  71
ATOM     71  C   UNL     1     153.948 162.399 188.268  0.00  0.00    -0.057 C 
ATOM     72  H   UNL     1     154.559 161.527 188.527  0.00  0.00    +0.023 HD
ATOM     73  H   UNL     1     153.974 163.068 189.133  0.00  0.00    +0.023 HD
ATOM     74  H   UNL     1     152.919 162.052 188.128  0.00  0.00    +0.023 HD
ENDBRANCH  69  71
BRANCH  69  75
ATOM     75  C   UNL     1     153.619 164.368 186.733  0.00  0.00    +0.064 C 
ATOM     76  H   UNL     1     154.213 165.030 186.090  0.00  0.00    +0.060 HD
BRANCH  75  77
ATOM     77  C   UNL     1     153.251 165.151 188.028  0.00  0.00    -0.017 C 
ATOM     78  H   UNL     1     153.873 164.749 188.837  0.00  0.00    +0.032 HD
BRANCH  77  79
ATOM     79  C   UNL     1     153.644 166.630 187.900  0.00  0.00    -0.060 C 
ATOM     80  H   UNL     1     152.787 167.300 188.005  0.00  0.00    +0.023 HD
ATOM     81  H   UNL     1     154.093 166.821 186.919  0.00  0.00    +0.023 HD
ATOM     82  H   UNL     1     154.385 166.903 188.658  0.00  0.00    +0.023 HD
ENDBRANCH  77  79
BRANCH  77  83
ATOM     83  C   UNL     1     151.782 165.014 188.515  0.00  0.00    -0.045 C 
ATOM     84  H   UNL     1     151.246 164.417 187.769  0.00  0.00    +0.027 HD
ATOM     85  H   UNL     1     151.302 165.999 188.507  0.00  0.00    +0.027 HD
BRANCH  83  86
ATOM     86  C   UNL     1     151.564 164.379 189.899  0.00  0.00    -0.015 C 
ATOM     87  H   UNL     1     151.134 163.381 189.767  0.00  0.00    +0.030 HD
ATOM     88  H   UNL     1     152.529 164.279 190.403  0.00  0.00    +0.030 HD
BRANCH  86  89
ATOM     89  C   UNL     1     150.637 165.219 190.808  0.00  0.00    +0.109 C 
ATOM     90  H   UNL     1     149.623 164.806 190.739  0.00  0.00    +0.074 HD
BRANCH  89  91
ATOM     91  C   UNL     1     150.580 166.713 190.366  0.00  0.00    +0.031 C 
ATOM     92  H   UNL     1     150.817 166.718 189.293  0.00  0.00    +0.037 HD
BRANCH  91  93
ATOM     93  C   UNL     1     151.632 167.565 191.092  0.00  0.00    -0.056 C 
ATOM     94  H   UNL     1     152.006 167.066 191.990  0.00  0.00    +0.023 HD
ATOM     95  H   UNL     1     151.222 168.538 191.389  0.00  0.00    +0.023 HD
ATOM     96  H   UNL     1     152.508 167.746 190.463  0.00  0.00    +0.023 HD
ENDBRANCH  91  93
BRANCH  91  97
ATOM     97  C   UNL     1     149.149 167.312 190.561  0.00  0.00    +0.115 C 
ATOM     98  H   UNL     1     148.478 166.487 190.838  0.00  0.00    +0.074 HD
BRANCH  97  99
ATOM     99  C   UNL     1     149.065 168.402 191.675  0.00  0.00    +0.013 C 
ATOM    100  H   UNL     1     150.073 168.539 192.085  0.00  0.00    +0.038 HD
BRANCH  99 101
ATOM    101  C   UNL     1     148.185 167.973 192.857  0.00  0.00    -0.056 C 
ATOM    102  H   UNL     1     147.784 168.852 193.376  0.00  0.00    +0.024 HD
ATOM    103  H   UNL     1     147.331 167.365 192.539  0.00  0.00    +0.024 HD
ATOM    104  H   UNL     1     148.769 167.400 193.586  0.00  0.00    +0.024 HD
ENDBRANCH  99 101
BRANCH  99 105
ATOM    105  C   UNL     1     148.553 169.726 191.147  0.00  0.00    -0.064 C 
ATOM    106  C   UNL     1     148.123 170.717 191.943  0.00  0.00    -0.005 C 
ATOM    107  H   UNL     1     148.569 169.839 190.067  0.00  0.00    +0.059 HD
ATOM    108  H   UNL     1     148.115 170.574 193.023  0.00  0.00    +0.078 HD
BRANCH 106 109
ATOM    109  N   UNL     1     147.668 171.957 191.518  0.00  0.00    -0.284 N 
ATOM    110  C   UNL     1     146.314 172.138 191.240  0.00  0.00    +0.206 C 
ATOM    111  O   UNL     1     145.426 171.298 191.341  0.00  0.00    -0.279 OA
ATOM    112  H   UNL     1     146.085 173.163 190.902  0.00  0.00    +0.126 HD
BRANCH 109 113
ATOM    113  C   UNL     1     148.575 173.083 191.364  0.00  0.00    +0.007 C 
ATOM    114  H   UNL     1     148.677 173.601 192.323  0.00  0.00    +0.043 HD
ATOM    115  H   UNL     1     149.569 172.753 191.044  0.00  0.00    +0.043 HD
ATOM    116  H   UNL     1     148.182 173.769 190.604  0.00  0.00    +0.043 HD
ENDBRANCH 109 113
ENDBRANCH 106 109
ENDBRANCH  99 105
ENDBRANCH  97  99
BRANCH  97 117
ATOM    117  O   UNL     1     148.734 167.887 189.293  0.00  0.00    -0.461 OA
BRANCH 117 118
ATOM    118  C   UNL     1     147.835 167.175 188.557  0.00  0.00    +0.304 C 
ATOM    119  O   UNL     1     147.968 166.015 188.196  0.00  0.00    -0.251 OA
BRANCH 118 120
ATOM    120  C   UNL     1     146.616 168.000 188.288  0.00  0.00    +0.033 C 
ATOM    121  H   UNL     1     146.904 169.008 187.974  0.00  0.00    +0.034 HD
ATOM    122  H   UNL     1     146.046 167.543 187.474  0.00  0.00    +0.034 HD
ATOM    123  H   UNL     1     145.993 168.035 189.183  0.00  0.00    +0.034 HD
ENDBRANCH 118 120
ENDBRANCH 117 118
ENDBRANCH  97 117
ENDBRANCH  91  97
ENDBRANCH  89  91
BRANCH  89 124
ATOM    124  O   UNL     1     151.136 165.166 192.161  0.00  0.00    -0.460 OA
BRANCH 124 125
ATOM    125  C   UNL     1     150.271 164.806 193.150  0.00  0.00    +0.324 C 
ATOM    126  O   UNL     1     149.431 163.915 193.042  0.00  0.00    -0.249 OA
BRANCH 125 127
ATOM    127  C   UNL     1     150.407 165.683 194.410  0.00  0.00    +0.105 C 
ATOM    128  H   UNL     1     149.802 166.583 194.236  0.00  0.00    +0.058 HD
BRANCH 127 129
ATOM    129  C   UNL     1     151.881 166.096 194.487  0.00  0.00    -0.039 C 
ATOM    130  H   UNL     1     152.537 165.221 194.495  0.00  0.00    +0.025 HD
ATOM    131  H   UNL     1     152.152 166.710 193.621  0.00  0.00    +0.025 HD
ATOM    132  H   UNL     1     152.094 166.698 195.376  0.00  0.00    +0.025 HD
ENDBRANCH 127 129
BRANCH 127 133
ATOM    133  N   UNL     1     149.903 165.004 195.644  0.00  0.00    -0.296 NA
BRANCH 133 134
ATOM    134  C   UNL     1     149.215 165.956 196.527  0.00  0.00    -0.012 C 
ATOM    135  H   UNL     1     148.482 166.555 195.980  0.00  0.00    +0.039 HD
ATOM    136  H   UNL     1     149.920 166.636 197.019  0.00  0.00    +0.039 HD
ATOM    137  H   UNL     1     148.654 165.420 197.302  0.00  0.00    +0.039 HD
ENDBRANCH 133 134
BRANCH 133 138
ATOM    138  C   UNL     1     150.980 164.353 196.397  0.00  0.00    -0.012 C 
ATOM    139  H   UNL     1     151.208 164.912 197.313  0.00  0.00    +0.039 HD
ATOM    140  H   UNL     1     150.685 163.351 196.728  0.00  0.00    +0.039 HD
ATOM    141  H   UNL     1     151.902 164.274 195.806  0.00  0.00    +0.039 HD
ENDBRANCH 133 138
ENDBRANCH 127 133
ENDBRANCH 125 127
ENDBRANCH 124 125
ENDBRANCH  89 124
ENDBRANCH  86  89
ENDBRANCH  83  86
ENDBRANCH  77  83
ENDBRANCH  75  77
BRANCH  75 142
ATOM    142  O   UNL     1     152.455 164.064 185.977  0.00  0.00    -0.391 OA
ATOM    143  H   UNL     1     152.709 163.444 185.271  0.00  0.00    +0.210 HD
ENDBRANCH  75 142
ENDBRANCH  69  75
ENDBRANCH  14  69
BRANCH  25 144
ATOM    144  O   UNL     1     161.611 156.996 192.956  0.00  0.00    -0.391 OA
ATOM    145  H   UNL     1     162.204 157.534 192.407  0.00  0.00    +0.210 HD
ENDBRANCH  25 144
BRANCH  23 146
ATOM    146  O   UNL     1     159.875 159.786 194.358  0.00  0.00    -0.460 OA
BRANCH 146 147
ATOM    147  C   UNL     1     160.461 159.505 195.564  0.00  0.00    +0.327 C 
ATOM    148  O   UNL     1     161.423 158.756 195.714  0.00  0.00    -0.249 OA
BRANCH 147 149
ATOM    149  C   UNL     1     159.730 160.227 196.707  0.00  0.00    +0.131 C 
ATOM    150  H   UNL     1     160.276 160.013 197.635  0.00  0.00    +0.060 HD
BRANCH 149 151
ATOM    151  C   UNL     1     158.339 159.585 196.857  0.00  0.00    +0.073 C 
ATOM    152  H   UNL     1     157.633 160.319 197.262  0.00  0.00    +0.058 HD
ATOM    153  H   UNL     1     157.953 159.224 195.898  0.00  0.00    +0.058 HD
BRANCH 151 154
ATOM    154  O   UNL     1     158.425 158.500 197.791  0.00  0.00    -0.381 OA
BRANCH 154 155
ATOM    155  C   UNL     1     158.411 158.964 199.135  0.00  0.00    +0.037 C 
ATOM    156  H   UNL     1     159.252 159.637 199.320  0.00  0.00    +0.052 HD
ATOM    157  H   UNL     1     158.505 158.099 199.799  0.00  0.00    +0.052 HD
ATOM    158  H   UNL     1     157.467 159.469 199.358  0.00  0.00    +0.052 HD
ENDBRANCH 154 155
ENDBRANCH 151 154
ENDBRANCH 149 151
BRANCH 149 159
ATOM    159  N   UNL     1     159.627 161.707 196.510  0.00  0.00    -0.294 NA
BRANCH 159 160
ATOM    160  C   UNL     1     158.597 162.291 197.366  0.00  0.00    -0.012 C 
ATOM    161  H   UNL     1     158.358 163.323 197.099  0.00  0.00    +0.039 HD
ATOM    162  H   UNL     1     158.919 162.264 198.408  0.00  0.00    +0.039 HD
ATOM    163  H   UNL     1     157.672 161.706 197.320  0.00  0.00    +0.039 HD
ENDBRANCH 159 160
BRANCH 159 164
ATOM    164  C   UNL     1     160.899 162.412 196.665  0.00  0.00    -0.012 C 
ATOM    165  H   UNL     1     161.133 162.634 197.713  0.00  0.00    +0.039 HD
ATOM    166  H   UNL     1     160.872 163.365 196.126  0.00  0.00    +0.039 HD
ATOM    167  H   UNL     1     161.727 161.841 196.235  0.00  0.00    +0.039 HD
ENDBRANCH 159 164
ENDBRANCH 149 159
ENDBRANCH 147 149
ENDBRANCH 146 147
ENDBRANCH  23 146
BRANCH   4 168
ATOM    168  O   UNL     1     158.243 153.570 191.585  0.00  0.00    -0.376 OA
BRANCH 168 169
ATOM    169  C   UNL     1     158.046 152.984 192.866  0.00  0.00    +0.037 C 
ATOM    170  H   UNL     1     158.883 153.277 193.505  0.00  0.00    +0.052 HD
ATOM    171  H   UNL     1     158.037 151.895 192.780  0.00  0.00    +0.052 HD
ATOM    172  H   UNL     1     157.118 153.338 193.324  0.00  0.00    +0.052 HD
ENDBRANCH 168 169
ENDBRANCH   4 168
BRANCH  10 173
ATOM    173  O   UNL     1     155.529 158.398 187.969  0.00  0.00    -0.376 OA
BRANCH 173 174
ATOM    174  C   UNL     1     154.187 158.511 187.507  0.00  0.00    +0.037 C 
ATOM    175  H   UNL     1     154.164 158.225 186.452  0.00  0.00    +0.052 HD
ATOM    176  H   UNL     1     153.531 157.832 188.058  0.00  0.00    +0.052 HD
ATOM    177  H   UNL     1     153.828 159.542 187.594  0.00  0.00    +0.052 HD
ENDBRANCH 173 174
ENDBRANCH  10 173
TORSDOF 45
ENDMDL
MODEL 2
REMARK VINA RESULT:      -5.3      2.157      4.487
REMARK  Name = Aplyronine A_conf1
REMARK  45 active torsions:
REMARK  status: ('A' for Active; 'I' for Inactive)
REMARK    1  A    between atoms: C_1  and  C_2
REMARK    2  A    between atoms: C_5  and  O_75
REMARK    3  A    between atoms: C_6  and  C_74
REMARK    4  A    between atoms: C_9  and  C_73
REMARK    5  A    between atoms: C_11  and  O_71
REMARK    6  A    between atoms: C_15  and  C_39
REMARK    7  A    between atoms: C_24  and  O_29
REMARK    8  A    between atoms: C_25  and  C_28
REMARK    9  A    between atoms: C_26  and  O_27
REMARK   10  A    between atoms: O_29  and  C_30
REMARK   11  A    between atoms: C_30  and  C_32
REMARK   12  A    between atoms: C_32  and  C_33
REMARK   13  A    between atoms: C_32  and  N_36
REMARK   14  A    between atoms: C_33  and  O_34
REMARK   15  A    between atoms: O_34  and  C_35
REMARK   16  A    between atoms: N_36  and  C_37
REMARK   17  A    between atoms: N_36  and  C_38
REMARK   18  A    between atoms: C_39  and  C_40
REMARK   19  A    between atoms: C_39  and  C_41
REMARK   20  A    between atoms: C_41  and  C_42
REMARK   21  A    between atoms: C_41  and  O_70
REMARK   22  A    between atoms: C_42  and  C_43
REMARK   23  A    between atoms: C_42  and  C_44
REMARK   24  A    between atoms: C_44  and  C_45
REMARK   25  A    between atoms: C_45  and  C_46
REMARK   26  A    between atoms: C_46  and  C_47
REMARK   27  A    between atoms: C_46  and  O_62
REMARK   28  A    between atoms: C_47  and  C_48
REMARK   29  A    between atoms: C_47  and  C_49
REMARK   30  A    between atoms: C_49  and  C_50
REMARK   31  A    between atoms: C_49  and  O_58
REMARK   32  A    between atoms: C_50  and  C_51
REMARK   33  A    between atoms: C_50  and  C_52
REMARK   34  A    between atoms: C_53  and  N_54
REMARK   35  A    between atoms: N_54  and  C_55
REMARK   36  A    between atoms: O_58  and  C_59
REMARK   37  A    between atoms: C_59  and  C_61
REMARK   38  A    between atoms: O_62  and  C_63
REMARK   39  A    between atoms: C_63  and  C_65
REMARK   40  A    between atoms: C_65  and  C_66
REMARK   41  A    between atoms: C_65  and  N_67
REMARK   42  A    between atoms: N_67  and  C_68
REMARK   43  A    between atoms: N_67  and  C_69
REMARK   44  A    between atoms: O_71  and  C_72
REMARK   45  A    between atoms: O_75  and  C_76
REMARK                            x       y       z     vdW  Elec       q    Type
REMARK                         _______ _______ _______ _____ _____    ______ ____
ROOT
ATOM      1  C   UNL     1     159.688 157.152 191.482  0.00  0.00    -0.017 C 
ATOM      2  C   UNL     1     158.254 157.582 191.853  0.00  0.00    -0.045 C 
ATOM      3  C   UNL     1     157.408 156.574 192.659  0.00  0.00    -0.022 C 
ATOM      4  C   UNL     1     157.195 155.148 192.107  0.00  0.00    +0.079 C 
ATOM      5  C   UNL     1     156.593 154.994 190.706  0.00  0.00    -0.048 C 
ATOM      6  C   UNL     1     155.834 155.947 190.122  0.00  0.00    -0.082 C 
ATOM      7  C   UNL     1     155.158 155.896 188.777  0.00  0.00    -0.032 C 
ATOM      8  C   UNL     1     155.961 156.601 187.668  0.00  0.00    -0.038 C 
ATOM      9  C   UNL     1     156.132 158.133 187.834  0.00  0.00    -0.020 C 
ATOM     10  C   UNL     1     154.826 158.945 187.974  0.00  0.00    +0.077 C 
ATOM     11  C   UNL     1     155.094 160.401 187.676  0.00  0.00    -0.059 C 
ATOM     12  C   UNL     1     154.468 161.111 186.720  0.00  0.00    -0.082 C 
ATOM     13  C   UNL     1     154.707 162.576 186.422  0.00  0.00    +0.003 C 
ATOM     14  C   UNL     1     154.354 163.590 187.546  0.00  0.00    +0.112 C 
ATOM     15  O   UNL     1     155.412 163.439 188.524  0.00  0.00    -0.458 OA
ATOM     16  C   UNL     1     156.006 164.565 188.993  0.00  0.00    +0.332 C 
ATOM     17  O   UNL     1     155.583 165.705 188.907  0.00  0.00    -0.246 OA
ATOM     18  C   UNL     1     157.315 164.238 189.595  0.00  0.00    +0.022 C 
ATOM     19  C   UNL     1     158.098 163.314 189.019  0.00  0.00    -0.055 C 
ATOM     20  C   UNL     1     159.448 162.985 189.400  0.00  0.00    -0.065 C 
ATOM     21  C   UNL     1     159.850 162.642 190.631  0.00  0.00    -0.081 C 
ATOM     22  C   UNL     1     161.262 162.175 190.902  0.00  0.00    +0.003 C 
ATOM     23  C   UNL     1     161.365 160.767 191.544  0.00  0.00    +0.111 C 
ATOM     24  C   UNL     1     160.461 159.652 190.926  0.00  0.00    +0.020 C 
ATOM     25  C   UNL     1     160.704 158.315 191.682  0.00  0.00    +0.064 C 
ATOM     26  H   UNL     1     160.017 156.377 192.187  0.00  0.00    +0.032 HD
ATOM     27  H   UNL     1     157.712 157.896 190.956  0.00  0.00    +0.027 HD
ATOM     28  H   UNL     1     158.303 158.480 192.483  0.00  0.00    +0.027 HD
ATOM     29  H   UNL     1     157.880 156.490 193.647  0.00  0.00    +0.029 HD
ATOM     30  H   UNL     1     156.425 157.033 192.837  0.00  0.00    +0.029 HD
ATOM     31  H   UNL     1     156.489 154.640 192.780  0.00  0.00    +0.064 HD
ATOM     32  H   UNL     1     155.637 156.872 190.657  0.00  0.00    +0.057 HD
ATOM     33  H   UNL     1     154.158 156.332 188.871  0.00  0.00    +0.031 HD
ATOM     34  H   UNL     1     154.967 154.859 188.487  0.00  0.00    +0.031 HD
ATOM     35  H   UNL     1     156.976 156.176 187.670  0.00  0.00    +0.030 HD
ATOM     36  H   UNL     1     156.699 158.497 186.968  0.00  0.00    +0.030 HD
ATOM     37  H   UNL     1     156.765 158.317 188.712  0.00  0.00    +0.030 HD
ATOM     38  H   UNL     1     154.064 158.544 187.298  0.00  0.00    +0.064 HD
ATOM     39  H   UNL     1     155.838 160.879 188.310  0.00  0.00    +0.059 HD
ATOM     40  H   UNL     1     153.717 160.624 186.102  0.00  0.00    +0.057 HD
ATOM     41  H   UNL     1     154.158 162.818 185.504  0.00  0.00    +0.034 HD
ATOM     42  H   UNL     1     155.767 162.688 186.157  0.00  0.00    +0.034 HD
ATOM     43  H   UNL     1     154.417 164.596 187.109  0.00  0.00    +0.074 HD
ATOM     44  H   UNL     1     157.637 164.857 190.423  0.00  0.00    +0.069 HD
ATOM     45  H   UNL     1     157.756 162.797 188.123  0.00  0.00    +0.062 HD
ATOM     46  H   UNL     1     160.151 162.932 188.569  0.00  0.00    +0.061 HD
ATOM     47  H   UNL     1     159.165 162.653 191.476  0.00  0.00    +0.057 HD
ATOM     48  H   UNL     1     161.726 162.915 191.568  0.00  0.00    +0.034 HD
ATOM     49  H   UNL     1     161.849 162.181 189.977  0.00  0.00    +0.034 HD
ATOM     50  H   UNL     1     162.408 160.438 191.442  0.00  0.00    +0.074 HD
ATOM     51  H   UNL     1     159.417 159.945 191.082  0.00  0.00    +0.036 HD
ATOM     52  H   UNL     1     160.690 158.521 192.758  0.00  0.00    +0.060 HD
ENDROOT
BRANCH   1  53
ATOM     53  C   UNL     1     159.758 156.512 190.088  0.00  0.00    -0.060 C 
ATOM     54  H   UNL     1     160.781 156.228 189.838  0.00  0.00    +0.023 HD
ATOM     55  H   UNL     1     159.428 157.195 189.302  0.00  0.00    +0.023 HD
ATOM     56  H   UNL     1     159.158 155.602 190.025  0.00  0.00    +0.023 HD
ENDBRANCH   1  53
BRANCH   5  57
ATOM     57  C   UNL     1     156.882 153.659 190.059  0.00  0.00    -0.041 C 
ATOM     58  H   UNL     1     157.120 153.725 188.995  0.00  0.00    +0.028 HD
ATOM     59  H   UNL     1     157.740 153.175 190.536  0.00  0.00    +0.028 HD
ATOM     60  H   UNL     1     156.012 152.999 190.152  0.00  0.00    +0.028 HD
ENDBRANCH   5  57
BRANCH  24  61
ATOM     61  C   UNL     1     160.711 159.523 189.417  0.00  0.00    -0.057 C 
ATOM     62  H   UNL     1     160.847 158.479 189.126  0.00  0.00    +0.023 HD
ATOM     63  H   UNL     1     161.593 160.089 189.096  0.00  0.00    +0.023 HD
ATOM     64  H   UNL     1     159.869 159.881 188.822  0.00  0.00    +0.023 HD
ENDBRANCH  24  61
BRANCH   8  65
ATOM     65  C   UNL     1     155.360 156.268 186.298  0.00  0.00    -0.062 C 
ATOM     66  H   UNL     1     154.502 155.594 186.387  0.00  0.00    +0.023 HD
ATOM     67  H   UNL     1     155.028 157.178 185.784  0.00  0.00    +0.023 HD
ATOM     68  H   UNL     1     156.102 155.780 185.658  0.00  0.00    +0.023 HD
ENDBRANCH   8  65
BRANCH  14  69
ATOM     69  C   UNL     1     152.950 163.385 188.174  0.00  0.00    +0.020 C 
ATOM     70  H   UNL     1     152.593 162.395 187.881  0.00  0.00    +0.036 HD
BRANCH  69  71
ATOM     71  C   UNL     1     152.995 163.343 189.711  0.00  0.00    -0.057 C 
ATOM     72  H   UNL     1     152.005 163.529 190.143  0.00  0.00    +0.023 HD
ATOM     73  H   UNL     1     153.315 162.361 190.073  0.00  0.00    +0.023 HD
ATOM     74  H   UNL     1     153.677 164.100 190.108  0.00  0.00    +0.023 HD
ENDBRANCH  69  71
BRANCH  69  75
ATOM     75  C   UNL     1     151.904 164.451 187.729  0.00  0.00    +0.064 C 
ATOM     76  H   UNL     1     152.111 164.690 186.679  0.00  0.00    +0.060 HD
BRANCH  75  77
ATOM     77  C   UNL     1     151.982 165.771 188.552  0.00  0.00    -0.017 C 
ATOM     78  H   UNL     1     152.711 165.609 189.355  0.00  0.00    +0.032 HD
BRANCH  77  79
ATOM     79  C   UNL     1     152.553 166.912 187.697  0.00  0.00    -0.060 C 
ATOM     80  H   UNL     1     153.150 167.614 188.286  0.00  0.00    +0.023 HD
ATOM     81  H   UNL     1     151.742 167.480 187.229  0.00  0.00    +0.023 HD
ATOM     82  H   UNL     1     153.184 166.518 186.894  0.00  0.00    +0.023 HD
ENDBRANCH  77  79
BRANCH  77  83
ATOM     83  C   UNL     1     150.669 166.217 189.255  0.00  0.00    -0.045 C 
ATOM     84  H   UNL     1     150.207 165.318 189.679  0.00  0.00    +0.027 HD
ATOM     85  H   UNL     1     149.963 166.588 188.506  0.00  0.00    +0.027 HD
BRANCH  83  86
ATOM     86  C   UNL     1     150.799 167.272 190.366  0.00  0.00    -0.015 C 
ATOM     87  H   UNL     1     151.651 167.012 191.003  0.00  0.00    +0.030 HD
ATOM     88  H   UNL     1     150.988 168.248 189.913  0.00  0.00    +0.030 HD
BRANCH  86  89
ATOM     89  C   UNL     1     149.527 167.390 191.237  0.00  0.00    +0.109 C 
ATOM     90  H   UNL     1     149.831 167.393 192.290  0.00  0.00    +0.074 HD
BRANCH  89  91
ATOM     91  C   UNL     1     148.555 166.190 191.019  0.00  0.00    +0.031 C 
ATOM     92  H   UNL     1     149.027 165.556 190.255  0.00  0.00    +0.037 HD
BRANCH  91  93
ATOM     93  C   UNL     1     147.190 166.647 190.483  0.00  0.00    -0.056 C 
ATOM     94  H   UNL     1     147.098 167.738 190.493  0.00  0.00    +0.023 HD
ATOM     95  H   UNL     1     146.369 166.232 191.077  0.00  0.00    +0.023 HD
ATOM     96  H   UNL     1     147.042 166.344 189.444  0.00  0.00    +0.023 HD
ENDBRANCH  91  93
BRANCH  91  97
ATOM     97  C   UNL     1     148.386 165.348 192.326  0.00  0.00    +0.115 C 
ATOM     98  H   UNL     1     147.331 165.047 192.393  0.00  0.00    +0.074 HD
BRANCH  97  99
ATOM     99  C   UNL     1     149.263 164.058 192.364  0.00  0.00    +0.013 C 
ATOM    100  H   UNL     1     148.954 163.469 193.237  0.00  0.00    +0.038 HD
BRANCH  99 101
ATOM    101  C   UNL     1     150.754 164.361 192.569  0.00  0.00    -0.056 C 
ATOM    102  H   UNL     1     150.989 164.428 193.638  0.00  0.00    +0.024 HD
ATOM    103  H   UNL     1     151.397 163.582 192.143  0.00  0.00    +0.024 HD
ATOM    104  H   UNL     1     151.019 165.320 192.113  0.00  0.00    +0.024 HD
ENDBRANCH  99 101
BRANCH  99 105
ATOM    105  C   UNL     1     149.108 163.219 191.112  0.00  0.00    -0.064 C 
ATOM    106  C   UNL     1     148.995 161.883 191.133  0.00  0.00    -0.005 C 
ATOM    107  H   UNL     1     149.076 163.772 190.178  0.00  0.00    +0.059 HD
ATOM    108  H   UNL     1     149.034 161.354 192.085  0.00  0.00    +0.078 HD
BRANCH 106 109
ATOM    109  N   UNL     1     148.826 161.067 190.023  0.00  0.00    -0.284 N 
ATOM    110  C   UNL     1     147.648 160.337 189.874  0.00  0.00    +0.206 C 
ATOM    111  O   UNL     1     146.686 160.335 190.636  0.00  0.00    -0.279 OA
ATOM    112  H   UNL     1     147.643 159.723 188.958  0.00  0.00    +0.126 HD
BRANCH 109 113
ATOM    113  C   UNL     1     149.853 160.963 188.998  0.00  0.00    +0.007 C 
ATOM    114  H   UNL     1     149.596 160.153 188.308  0.00  0.00    +0.043 HD
ATOM    115  H   UNL     1     149.937 161.891 188.422  0.00  0.00    +0.043 HD
ATOM    116  H   UNL     1     150.822 160.765 189.469  0.00  0.00    +0.043 HD
ENDBRANCH 109 113
ENDBRANCH 106 109
ENDBRANCH  99 105
ENDBRANCH  97  99
BRANCH  97 117
ATOM    117  O   UNL     1     148.734 166.200 193.449  0.00  0.00    -0.461 OA
BRANCH 117 118
ATOM    118  C   UNL     1     148.134 165.925 194.641  0.00  0.00    +0.304 C 
ATOM    119  O   UNL     1     147.002 165.488 194.786  0.00  0.00    -0.251 OA
BRANCH 118 120
ATOM    120  C   UNL     1     149.081 166.187 195.770  0.00  0.00    +0.033 C 
ATOM    121  H   UNL     1     149.286 165.260 196.314  0.00  0.00    +0.034 HD
ATOM    122  H   UNL     1     150.026 166.559 195.367  0.00  0.00    +0.034 HD
ATOM    123  H   UNL     1     148.656 166.942 196.436  0.00  0.00    +0.034 HD
ENDBRANCH 118 120
ENDBRANCH 117 118
ENDBRANCH  97 117
ENDBRANCH  91  97
ENDBRANCH  89  91
BRANCH  89 124
ATOM    124  O   UNL     1     148.831 168.604 190.885  0.00  0.00    -0.460 OA
BRANCH 124 125
ATOM    125  C   UNL     1     148.638 169.538 191.859  0.00  0.00    +0.324 C 
ATOM    126  O   UNL     1     147.907 169.378 192.833  0.00  0.00    -0.249 OA
BRANCH 125 127
ATOM    127  C   UNL     1     149.386 170.856 191.577  0.00  0.00    +0.105 C 
ATOM    128  H   UNL     1     149.415 170.977 190.486  0.00  0.00    +0.058 HD
BRANCH 127 129
ATOM    129  C   UNL     1     150.819 170.652 192.082  0.00  0.00    -0.039 C 
ATOM    130  H   UNL     1     150.879 170.783 193.166  0.00  0.00    +0.025 HD
ATOM    131  H   UNL     1     151.166 169.640 191.847  0.00  0.00    +0.025 HD
ATOM    132  H   UNL     1     151.524 171.343 191.608  0.00  0.00    +0.025 HD
ENDBRANCH 127 129
BRANCH 127 133
ATOM    133  N   UNL     1     148.700 172.047 192.169  0.00  0.00    -0.296 NA
BRANCH 133 134
ATOM    134  C   UNL     1     148.496 173.094 191.158  0.00  0.00    -0.012 C 
ATOM    135  H   UNL     1     149.426 173.341 190.640  0.00  0.00    +0.039 HD
ATOM    136  H   UNL     1     148.091 174.011 191.600  0.00  0.00    +0.039 HD
ATOM    137  H   UNL     1     147.799 172.746 190.385  0.00  0.00    +0.039 HD
ENDBRANCH 133 134
BRANCH 133 138
ATOM    138  C   UNL     1     149.448 172.614 193.295  0.00  0.00    -0.012 C 
ATOM    139  H   UNL     1     149.427 173.710 193.264  0.00  0.00    +0.039 HD
ATOM    140  H   UNL     1     148.994 172.337 194.254  0.00  0.00    +0.039 HD
ATOM    141  H   UNL     1     150.496 172.292 193.293  0.00  0.00    +0.039 HD
ENDBRANCH 133 138
ENDBRANCH 127 133
ENDBRANCH 125 127
ENDBRANCH 124 125
ENDBRANCH  89 124
ENDBRANCH  86  89
ENDBRANCH  83  86
ENDBRANCH  77  83
ENDBRANCH  75  77
BRANCH  75 142
ATOM    142  O   UNL     1     150.584 163.926 187.736  0.00  0.00    -0.391 OA
ATOM    143  H   UNL     1     150.357 163.672 186.825  0.00  0.00    +0.210 HD
ENDBRANCH  75 142
ENDBRANCH  69  75
ENDBRANCH  14  69
BRANCH  25 144
ATOM    144  O   UNL     1     162.033 157.854 191.405  0.00  0.00    -0.391 OA
ATOM    145  H   UNL     1     162.586 158.064 192.175  0.00  0.00    +0.210 HD
ENDBRANCH  25 144
BRANCH  23 146
ATOM    146  O   UNL     1     161.028 160.914 192.951  0.00  0.00    -0.460 OA
BRANCH 146 147
ATOM    147  C   UNL     1     162.014 161.449 193.736  0.00  0.00    +0.327 C 
ATOM    148  O   UNL     1     163.189 161.088 193.722  0.00  0.00    -0.249 OA
BRANCH 147 149
ATOM    149  C   UNL     1     161.447 162.537 194.661  0.00  0.00    +0.131 C 
ATOM    150  H   UNL     1     162.092 162.585 195.549  0.00  0.00    +0.060 HD
BRANCH 149 151
ATOM    151  C   UNL     1     160.064 162.069 195.147  0.00  0.00    +0.073 C 
ATOM    152  H   UNL     1     159.327 162.867 194.995  0.00  0.00    +0.058 HD
ATOM    153  H   UNL     1     159.725 161.177 194.608  0.00  0.00    +0.058 HD
BRANCH 151 154
ATOM    154  O   UNL     1     160.130 161.797 196.554  0.00  0.00    -0.381 OA
BRANCH 154 155
ATOM    155  C   UNL     1     158.863 161.955 197.177  0.00  0.00    +0.037 C 
ATOM    156  H   UNL     1     158.061 161.944 196.433  0.00  0.00    +0.052 HD
ATOM    157  H   UNL     1     158.849 162.922 197.689  0.00  0.00    +0.052 HD
ATOM    158  H   UNL     1     158.699 161.170 197.920  0.00  0.00    +0.052 HD
ENDBRANCH 154 155
ENDBRANCH 151 154
ENDBRANCH 149 151
BRANCH 149 159
ATOM    159  N   UNL     1     161.371 163.886 194.019  0.00  0.00    -0.294 NA
BRANCH 159 160
ATOM    160  C   UNL     1     160.745 164.866 194.904  0.00  0.00    -0.012 C 
ATOM    161  H   UNL     1     159.657 164.776 194.937  0.00  0.00    +0.039 HD
ATOM    162  H   UNL     1     161.005 165.877 194.584  0.00  0.00    +0.039 HD
ATOM    163  H   UNL     1     161.124 164.768 195.927  0.00  0.00    +0.039 HD
ENDBRANCH 159 160
BRANCH 159 164
ATOM    164  C   UNL     1     162.656 164.376 193.520  0.00  0.00    -0.012 C 
ATOM    165  H   UNL     1     162.578 165.369 193.063  0.00  0.00    +0.039 HD
ATOM    166  H   UNL     1     163.052 163.694 192.760  0.00  0.00    +0.039 HD
ATOM    167  H   UNL     1     163.404 164.415 194.317  0.00  0.00    +0.039 HD
ENDBRANCH 159 164
ENDBRANCH 149 159
ENDBRANCH 147 149
ENDBRANCH 146 147
ENDBRANCH  23 146
BRANCH   4 168
ATOM    168  O   UNL     1     158.451 154.454 192.160  0.00  0.00    -0.376 OA
BRANCH 168 169
ATOM    169  C   UNL     1     158.719 153.869 193.429  0.00  0.00    +0.037 C 
ATOM    170  H   UNL     1     159.791 153.665 193.489  0.00  0.00    +0.052 HD
ATOM    171  H   UNL     1     158.177 152.925 193.526  0.00  0.00    +0.052 HD
ATOM    172  H   UNL     1     158.448 154.549 194.242  0.00  0.00    +0.052 HD
ENDBRANCH 168 169
ENDBRANCH   4 168
BRANCH  10 173
ATOM    173  O   UNL     1     154.380 158.832 189.329  0.00  0.00    -0.376 OA
BRANCH 173 174
ATOM    174  C   UNL     1     152.967 158.932 189.470  0.00  0.00    +0.037 C 
ATOM    175  H   UNL     1     152.536 159.093 188.478  0.00  0.00    +0.052 HD
ATOM    176  H   UNL     1     152.554 158.005 189.874  0.00  0.00    +0.052 HD
ATOM    177  H   UNL     1     152.696 159.780 190.107  0.00  0.00    +0.052 HD
ENDBRANCH 173 174
ENDBRANCH  10 173
TORSDOF 45
ENDMDL
MODEL 3
REMARK VINA RESULT:      -5.3      6.424     11.935
REMARK  Name = Aplyronine A_conf1
REMARK  45 active torsions:
REMARK  status: ('A' for Active; 'I' for Inactive)
REMARK    1  A    between atoms: C_1  and  C_2
REMARK    2  A    between atoms: C_5  and  O_75
REMARK    3  A    between atoms: C_6  and  C_74
REMARK    4  A    between atoms: C_9  and  C_73
REMARK    5  A    between atoms: C_11  and  O_71
REMARK    6  A    between atoms: C_15  and  C_39
REMARK    7  A    between atoms: C_24  and  O_29
REMARK    8  A    between atoms: C_25  and  C_28
REMARK    9  A    between atoms: C_26  and  O_27
REMARK   10  A    between atoms: O_29  and  C_30
REMARK   11  A    between atoms: C_30  and  C_32
REMARK   12  A    between atoms: C_32  and  C_33
REMARK   13  A    between atoms: C_32  and  N_36
REMARK   14  A    between atoms: C_33  and  O_34
REMARK   15  A    between atoms: O_34  and  C_35
REMARK   16  A    between atoms: N_36  and  C_37
REMARK   17  A    between atoms: N_36  and  C_38
REMARK   18  A    between atoms: C_39  and  C_40
REMARK   19  A    between atoms: C_39  and  C_41
REMARK   20  A    between atoms: C_41  and  C_42
REMARK   21  A    between atoms: C_41  and  O_70
REMARK   22  A    between atoms: C_42  and  C_43
REMARK   23  A    between atoms: C_42  and  C_44
REMARK   24  A    between atoms: C_44  and  C_45
REMARK   25  A    between atoms: C_45  and  C_46
REMARK   26  A    between atoms: C_46  and  C_47
REMARK   27  A    between atoms: C_46  and  O_62
REMARK   28  A    between atoms: C_47  and  C_48
REMARK   29  A    between atoms: C_47  and  C_49
REMARK   30  A    between atoms: C_49  and  C_50
REMARK   31  A    between atoms: C_49  and  O_58
REMARK   32  A    between atoms: C_50  and  C_51
REMARK   33  A    between atoms: C_50  and  C_52
REMARK   34  A    between atoms: C_53  and  N_54
REMARK   35  A    between atoms: N_54  and  C_55
REMARK   36  A    between atoms: O_58  and  C_59
REMARK   37  A    between atoms: C_59  and  C_61
REMARK   38  A    between atoms: O_62  and  C_63
REMARK   39  A    between atoms: C_63  and  C_65
REMARK   40  A    between atoms: C_65  and  C_66
REMARK   41  A    between atoms: C_65  and  N_67
REMARK   42  A    between atoms: N_67  and  C_68
REMARK   43  A    between atoms: N_67  and  C_69
REMARK   44  A    between atoms: O_71  and  C_72
REMARK   45  A    between atoms: O_75  and  C_76
REMARK                            x       y       z     vdW  Elec       q    Type
REMARK                         _______ _______ _______ _____ _____    ______ ____
ROOT
ATOM      1  C   UNL     1     148.839 162.164 190.433  0.00  0.00    -0.017 C 
ATOM      2  C   UNL     1     148.764 162.515 188.934  0.00  0.00    -0.045 C 
ATOM      3  C   UNL     1     147.613 161.883 188.123  0.00  0.00    -0.022 C 
ATOM      4  C   UNL     1     147.445 160.348 188.114  0.00  0.00    +0.079 C 
ATOM      5  C   UNL     1     148.634 159.490 187.669  0.00  0.00    -0.048 C 
ATOM      6  C   UNL     1     149.622 159.956 186.875  0.00  0.00    -0.082 C 
ATOM      7  C   UNL     1     150.812 159.204 186.339  0.00  0.00    -0.032 C 
ATOM      8  C   UNL     1     152.091 159.426 187.168  0.00  0.00    -0.038 C 
ATOM      9  C   UNL     1     152.652 160.871 187.161  0.00  0.00    -0.020 C 
ATOM     10  C   UNL     1     152.954 161.470 185.772  0.00  0.00    +0.077 C 
ATOM     11  C   UNL     1     153.887 162.650 185.914  0.00  0.00    -0.059 C 
ATOM     12  C   UNL     1     155.086 162.751 185.312  0.00  0.00    -0.082 C 
ATOM     13  C   UNL     1     156.023 163.934 185.425  0.00  0.00    +0.003 C 
ATOM     14  C   UNL     1     155.515 165.291 184.862  0.00  0.00    +0.112 C 
ATOM     15  O   UNL     1     154.541 165.750 185.831  0.00  0.00    -0.458 OA
ATOM     16  C   UNL     1     154.629 167.035 186.257  0.00  0.00    +0.332 C 
ATOM     17  O   UNL     1     155.252 167.941 185.729  0.00  0.00    -0.246 OA
ATOM     18  C   UNL     1     153.897 167.202 187.530  0.00  0.00    +0.022 C 
ATOM     19  C   UNL     1     153.946 166.234 188.456  0.00  0.00    -0.055 C 
ATOM     20  C   UNL     1     153.406 166.304 189.789  0.00  0.00    -0.065 C 
ATOM     21  C   UNL     1     152.144 166.620 190.105  0.00  0.00    -0.081 C 
ATOM     22  C   UNL     1     151.634 166.527 191.526  0.00  0.00    +0.003 C 
ATOM     23  C   UNL     1     150.407 165.598 191.712  0.00  0.00    +0.111 C 
ATOM     24  C   UNL     1     150.467 164.212 190.993  0.00  0.00    +0.020 C 
ATOM     25  C   UNL     1     149.167 163.416 191.299  0.00  0.00    +0.064 C 
ATOM     26  H   UNL     1     147.843 161.850 190.772  0.00  0.00    +0.032 HD
ATOM     27  H   UNL     1     149.723 162.307 188.451  0.00  0.00    +0.027 HD
ATOM     28  H   UNL     1     148.623 163.599 188.828  0.00  0.00    +0.027 HD
ATOM     29  H   UNL     1     146.683 162.325 188.505  0.00  0.00    +0.029 HD
ATOM     30  H   UNL     1     147.706 162.233 187.086  0.00  0.00    +0.029 HD
ATOM     31  H   UNL     1     146.639 160.113 187.403  0.00  0.00    +0.064 HD
ATOM     32  H   UNL     1     149.587 160.987 186.532  0.00  0.00    +0.057 HD
ATOM     33  H   UNL     1     150.969 159.493 185.295  0.00  0.00    +0.031 HD
ATOM     34  H   UNL     1     150.593 158.134 186.286  0.00  0.00    +0.031 HD
ATOM     35  H   UNL     1     151.855 159.192 188.216  0.00  0.00    +0.030 HD
ATOM     36  H   UNL     1     153.567 160.872 187.768  0.00  0.00    +0.030 HD
ATOM     37  H   UNL     1     151.938 161.521 187.685  0.00  0.00    +0.030 HD
ATOM     38  H   UNL     1     153.394 160.705 185.124  0.00  0.00    +0.064 HD
ATOM     39  H   UNL     1     153.521 163.462 186.539  0.00  0.00    +0.059 HD
ATOM     40  H   UNL     1     155.433 161.937 184.678  0.00  0.00    +0.057 HD
ATOM     41  H   UNL     1     156.968 163.652 184.945  0.00  0.00    +0.034 HD
ATOM     42  H   UNL     1     156.270 164.057 186.488  0.00  0.00    +0.034 HD
ATOM     43  H   UNL     1     156.368 165.984 184.862  0.00  0.00    +0.074 HD
ATOM     44  H   UNL     1     153.441 168.169 187.705  0.00  0.00    +0.069 HD
ATOM     45  H   UNL     1     154.510 165.323 188.257  0.00  0.00    +0.062 HD
ATOM     46  H   UNL     1     154.090 165.973 190.572  0.00  0.00    +0.061 HD
ATOM     47  H   UNL     1     151.427 166.923 189.344  0.00  0.00    +0.057 HD
ATOM     48  H   UNL     1     151.373 167.545 191.844  0.00  0.00    +0.034 HD
ATOM     49  H   UNL     1     152.433 166.190 192.195  0.00  0.00    +0.034 HD
ATOM     50  H   UNL     1     150.305 165.404 192.789  0.00  0.00    +0.074 HD
ATOM     51  H   UNL     1     150.504 164.398 189.914  0.00  0.00    +0.036 HD
ATOM     52  H   UNL     1     148.312 164.087 191.161  0.00  0.00    +0.060 HD
ENDROOT
BRANCH   1  53
ATOM     53  C   UNL     1     149.771 160.973 190.704  0.00  0.00    -0.060 C 
ATOM     54  H   UNL     1     150.408 161.162 191.568  0.00  0.00    +0.023 HD
ATOM     55  H   UNL     1     150.441 160.774 189.864  0.00  0.00    +0.023 HD
ATOM     56  H   UNL     1     149.214 160.060 190.921  0.00  0.00    +0.023 HD
ENDBRANCH   1  53
BRANCH   5  57
ATOM     57  C   UNL     1     148.573 158.060 188.156  0.00  0.00    -0.041 C 
ATOM     58  H   UNL     1     148.628 157.318 187.356  0.00  0.00    +0.028 HD
ATOM     59  H   UNL     1     149.406 157.845 188.832  0.00  0.00    +0.028 HD
ATOM     60  H   UNL     1     147.634 157.884 188.692  0.00  0.00    +0.028 HD
ENDBRANCH   5  57
BRANCH  24  61
ATOM     61  C   UNL     1     151.732 163.442 191.398  0.00  0.00    -0.057 C 
ATOM     62  H   UNL     1     151.977 162.670 190.665  0.00  0.00    +0.023 HD
ATOM     63  H   UNL     1     151.626 162.965 192.380  0.00  0.00    +0.023 HD
ATOM     64  H   UNL     1     152.614 164.083 191.449  0.00  0.00    +0.023 HD
ENDBRANCH  24  61
BRANCH   8  65
ATOM     65  C   UNL     1     153.170 158.424 186.739  0.00  0.00    -0.062 C 
ATOM     66  H   UNL     1     152.731 157.486 186.385  0.00  0.00    +0.023 HD
ATOM     67  H   UNL     1     153.789 158.836 185.933  0.00  0.00    +0.023 HD
ATOM     68  H   UNL     1     153.833 158.187 187.577  0.00  0.00    +0.023 HD
ENDBRANCH   8  65
BRANCH  14  69
ATOM     69  C   UNL     1     154.916 165.207 183.433  0.00  0.00    +0.020 C 
ATOM     70  H   UNL     1     155.187 164.235 183.013  0.00  0.00    +0.036 HD
BRANCH  69  71
ATOM     71  C   UNL     1     153.378 165.212 183.440  0.00  0.00    -0.057 C 
ATOM     72  H   UNL     1     152.976 164.264 183.065  0.00  0.00    +0.023 HD
ATOM     73  H   UNL     1     152.985 165.341 184.453  0.00  0.00    +0.023 HD
ATOM     74  H   UNL     1     152.982 166.012 182.808  0.00  0.00    +0.023 HD
ENDBRANCH  69  71
BRANCH  69  75
ATOM     75  C   UNL     1     155.420 166.329 182.477  0.00  0.00    +0.064 C 
ATOM     76  H   UNL     1     155.169 166.021 181.454  0.00  0.00    +0.060 HD
BRANCH  75  77
ATOM     77  C   UNL     1     156.958 166.558 182.552  0.00  0.00    -0.017 C 
ATOM     78  H   UNL     1     157.358 165.834 183.274  0.00  0.00    +0.032 HD
BRANCH  77  79
ATOM     79  C   UNL     1     157.625 166.217 181.212  0.00  0.00    -0.060 C 
ATOM     80  H   UNL     1     158.715 166.183 181.286  0.00  0.00    +0.023 HD
ATOM     81  H   UNL     1     157.369 166.969 180.457  0.00  0.00    +0.023 HD
ATOM     82  H   UNL     1     157.278 165.248 180.840  0.00  0.00    +0.023 HD
ENDBRANCH  77  79
BRANCH  77  83
ATOM     83  C   UNL     1     157.418 167.955 183.054  0.00  0.00    -0.045 C 
ATOM     84  H   UNL     1     158.415 167.831 183.493  0.00  0.00    +0.027 HD
ATOM     85  H   UNL     1     156.771 168.277 183.876  0.00  0.00    +0.027 HD
BRANCH  83  86
ATOM     86  C   UNL     1     157.478 169.084 182.011  0.00  0.00    -0.015 C 
ATOM     87  H   UNL     1     158.510 169.187 181.661  0.00  0.00    +0.030 HD
ATOM     88  H   UNL     1     156.846 168.820 181.160  0.00  0.00    +0.030 HD
BRANCH  86  89
ATOM     89  C   UNL     1     156.989 170.442 182.565  0.00  0.00    +0.109 C 
ATOM     90  H   UNL     1     157.205 171.215 181.818  0.00  0.00    +0.074 HD
BRANCH  89  91
ATOM     91  C   UNL     1     157.717 170.832 183.887  0.00  0.00    +0.031 C 
ATOM     92  H   UNL     1     158.317 169.955 184.170  0.00  0.00    +0.037 HD
BRANCH  91  93
ATOM     93  C   UNL     1     156.725 171.120 185.024  0.00  0.00    -0.056 C 
ATOM     94  H   UNL     1     155.786 170.574 184.889  0.00  0.00    +0.023 HD
ATOM     95  H   UNL     1     156.491 172.188 185.090  0.00  0.00    +0.023 HD
ATOM     96  H   UNL     1     157.119 170.801 185.993  0.00  0.00    +0.023 HD
ENDBRANCH  91  93
BRANCH  91  97
ATOM     97  C   UNL     1     158.682 172.044 183.672  0.00  0.00    +0.115 C 
ATOM     98  H   UNL     1     158.562 172.721 184.529  0.00  0.00    +0.074 HD
BRANCH  97  99
ATOM     99  C   UNL     1     160.187 171.644 183.576  0.00  0.00    +0.013 C 
ATOM    100  H   UNL     1     160.777 172.450 184.029  0.00  0.00    +0.038 HD
BRANCH  99 101
ATOM    101  C   UNL     1     160.678 171.528 182.126  0.00  0.00    -0.056 C 
ATOM    102  H   UNL     1     159.854 171.233 181.464  0.00  0.00    +0.024 HD
ATOM    103  H   UNL     1     161.077 172.476 181.747  0.00  0.00    +0.024 HD
ATOM    104  H   UNL     1     161.457 170.763 182.042  0.00  0.00    +0.024 HD
ENDBRANCH  99 101
BRANCH  99 105
ATOM    105  C   UNL     1     160.483 170.341 184.291  0.00  0.00    -0.064 C 
ATOM    106  C   UNL     1     161.087 169.300 183.700  0.00  0.00    -0.005 C 
ATOM    107  H   UNL     1     160.190 170.302 185.336  0.00  0.00    +0.059 HD
ATOM    108  H   UNL     1     161.368 169.366 182.649  0.00  0.00    +0.078 HD
BRANCH 106 109
ATOM    109  N   UNL     1     161.406 168.095 184.311  0.00  0.00    -0.284 N 
ATOM    110  C   UNL     1     162.641 167.499 184.061  0.00  0.00    +0.206 C 
ATOM    111  O   UNL     1     163.532 167.935 183.340  0.00  0.00    -0.279 OA
ATOM    112  H   UNL     1     162.766 166.544 184.598  0.00  0.00    +0.126 HD
BRANCH 109 113
ATOM    113  C   UNL     1     160.479 167.440 185.221  0.00  0.00    +0.007 C 
ATOM    114  H   UNL     1     159.935 168.199 185.793  0.00  0.00    +0.043 HD
ATOM    115  H   UNL     1     159.749 166.832 184.676  0.00  0.00    +0.043 HD
ATOM    116  H   UNL     1     161.034 166.782 185.898  0.00  0.00    +0.043 HD
ENDBRANCH 109 113
ENDBRANCH 106 109
ENDBRANCH  99 105
ENDBRANCH  97  99
BRANCH  97 117
ATOM    117  O   UNL     1     158.283 172.715 182.447  0.00  0.00    -0.461 OA
BRANCH 117 118
ATOM    118  C   UNL     1     158.155 174.070 182.499  0.00  0.00    +0.304 C 
ATOM    119  O   UNL     1     158.600 174.862 181.682  0.00  0.00    -0.251 OA
BRANCH 118 120
ATOM    120  C   UNL     1     157.337 174.466 183.689  0.00  0.00    +0.033 C 
ATOM    121  H   UNL     1     157.991 174.718 184.529  0.00  0.00    +0.034 HD
ATOM    122  H   UNL     1     156.749 175.354 183.440  0.00  0.00    +0.034 HD
ATOM    123  H   UNL     1     156.659 173.653 183.954  0.00  0.00    +0.034 HD
ENDBRANCH 118 120
ENDBRANCH 117 118
ENDBRANCH  97 117
ENDBRANCH  91  97
ENDBRANCH  89  91
BRANCH  89 124
ATOM    124  O   UNL     1     155.575 170.354 182.837  0.00  0.00    -0.460 OA
BRANCH 124 125
ATOM    125  C   UNL     1     154.711 170.867 181.917  0.00  0.00    +0.324 C 
ATOM    126  O   UNL     1     153.848 170.212 181.339  0.00  0.00    -0.249 OA
BRANCH 125 127
ATOM    127  C   UNL     1     154.974 172.357 181.619  0.00  0.00    +0.105 C 
ATOM    128  H   UNL     1     156.023 172.551 181.877  0.00  0.00    +0.058 HD
BRANCH 127 129
ATOM    129  C   UNL     1     154.082 173.149 182.582  0.00  0.00    -0.039 C 
ATOM    130  H   UNL     1     154.612 173.381 183.512  0.00  0.00    +0.025 HD
ATOM    131  H   UNL     1     153.776 174.097 182.127  0.00  0.00    +0.025 HD
ATOM    132  H   UNL     1     153.163 172.610 182.830  0.00  0.00    +0.025 HD
ENDBRANCH 127 129
BRANCH 127 133
ATOM    133  N   UNL     1     154.766 172.704 180.179  0.00  0.00    -0.296 NA
BRANCH 133 134
ATOM    134  C   UNL     1     156.035 172.660 179.438  0.00  0.00    -0.012 C 
ATOM    135  H   UNL     1     156.892 172.823 180.097  0.00  0.00    +0.039 HD
ATOM    136  H   UNL     1     156.064 173.409 178.639  0.00  0.00    +0.039 HD
ATOM    137  H   UNL     1     156.180 171.669 178.989  0.00  0.00    +0.039 HD
ENDBRANCH 133 134
BRANCH 133 138
ATOM    138  C   UNL     1     154.164 174.030 180.010  0.00  0.00    -0.012 C 
ATOM    139  H   UNL     1     154.353 174.659 180.888  0.00  0.00    +0.039 HD
ATOM    140  H   UNL     1     154.610 174.564 179.163  0.00  0.00    +0.039 HD
ATOM    141  H   UNL     1     153.079 173.970 179.859  0.00  0.00    +0.039 HD
ENDBRANCH 133 138
ENDBRANCH 127 133
ENDBRANCH 125 127
ENDBRANCH 124 125
ENDBRANCH  89 124
ENDBRANCH  86  89
ENDBRANCH  83  86
ENDBRANCH  77  83
ENDBRANCH  75  77
BRANCH  75 142
ATOM    142  O   UNL     1     154.715 167.546 182.680  0.00  0.00    -0.391 OA
ATOM    143  H   UNL     1     155.204 168.255 182.229  0.00  0.00    +0.210 HD
ENDBRANCH  75 142
ENDBRANCH  69  75
ENDBRANCH  14  69
BRANCH  25 144
ATOM    144  O   UNL     1     149.148 163.066 192.690  0.00  0.00    -0.391 OA
ATOM    145  H   UNL     1     148.628 163.739 193.158  0.00  0.00    +0.210 HD
ENDBRANCH  25 144
BRANCH  23 146
ATOM    146  O   UNL     1     149.244 166.325 191.228  0.00  0.00    -0.460 OA
BRANCH 146 147
ATOM    147  C   UNL     1     148.739 167.261 192.090  0.00  0.00    +0.327 C 
ATOM    148  O   UNL     1     148.611 167.097 193.301  0.00  0.00    -0.249 OA
BRANCH 147 149
ATOM    149  C   UNL     1     148.323 168.532 191.333  0.00  0.00    +0.131 C 
ATOM    150  H   UNL     1     148.653 168.419 190.292  0.00  0.00    +0.060 HD
BRANCH 149 151
ATOM    151  C   UNL     1     149.117 169.712 191.920  0.00  0.00    +0.073 C 
ATOM    152  H   UNL     1     148.680 170.659 191.583  0.00  0.00    +0.058 HD
ATOM    153  H   UNL     1     149.114 169.698 193.016  0.00  0.00    +0.058 HD
BRANCH 151 154
ATOM    154  O   UNL     1     150.466 169.656 191.434  0.00  0.00    -0.381 OA
BRANCH 154 155
ATOM    155  C   UNL     1     151.312 170.559 192.133  0.00  0.00    +0.037 C 
ATOM    156  H   UNL     1     152.358 170.249 192.054  0.00  0.00    +0.052 HD
ATOM    157  H   UNL     1     151.027 170.551 193.189  0.00  0.00    +0.052 HD
ATOM    158  H   UNL     1     151.190 171.576 191.750  0.00  0.00    +0.052 HD
ENDBRANCH 154 155
ENDBRANCH 151 154
ENDBRANCH 149 151
BRANCH 149 159
ATOM    159  N   UNL     1     146.851 168.796 191.370  0.00  0.00    -0.294 NA
BRANCH 159 160
ATOM    160  C   UNL     1     146.503 170.002 190.624  0.00  0.00    -0.012 C 
ATOM    161  H   UNL     1     147.213 170.228 189.825  0.00  0.00    +0.039 HD
ATOM    162  H   UNL     1     146.453 170.858 191.300  0.00  0.00    +0.039 HD
ATOM    163  H   UNL     1     145.507 169.913 190.177  0.00  0.00    +0.039 HD
ENDBRANCH 159 160
BRANCH 159 164
ATOM    164  C   UNL     1     146.037 167.660 190.938  0.00  0.00    -0.012 C 
ATOM    165  H   UNL     1     145.177 167.485 191.594  0.00  0.00    +0.039 HD
ATOM    166  H   UNL     1     146.638 166.744 190.931  0.00  0.00    +0.039 HD
ATOM    167  H   UNL     1     145.675 167.796 189.914  0.00  0.00    +0.039 HD
ENDBRANCH 159 164
ENDBRANCH 149 159
ENDBRANCH 147 149
ENDBRANCH 146 147
ENDBRANCH  23 146
BRANCH   4 168
ATOM    168  O   UNL     1     147.028 159.934 189.425  0.00  0.00    -0.376 OA
BRANCH 168 169
ATOM    169  C   UNL     1     145.663 160.226 189.701  0.00  0.00    +0.037 C 
ATOM    170  H   UNL     1     145.045 159.526 189.133  0.00  0.00    +0.052 HD
ATOM    171  H   UNL     1     145.427 161.243 189.377  0.00  0.00    +0.052 HD
ATOM    172  H   UNL     1     145.441 160.103 190.764  0.00  0.00    +0.052 HD
ENDBRANCH 168 169
ENDBRANCH   4 168
BRANCH  10 173
ATOM    173  O   UNL     1     151.721 161.930 185.212  0.00  0.00    -0.376 OA
BRANCH 173 174
ATOM    174  C   UNL     1     151.671 161.829 183.792  0.00  0.00    +0.037 C 
ATOM    175  H   UNL     1     152.584 161.332 183.453  0.00  0.00    +0.052 HD
ATOM    176  H   UNL     1     150.817 161.223 183.479  0.00  0.00    +0.052 HD
ATOM    177  H   UNL     1     151.625 162.821 183.330  0.00  0.00    +0.052 HD
ENDBRANCH 173 174
ENDBRANCH  10 173
TORSDOF 45
ENDMDL
MODEL 4
REMARK VINA RESULT:      -5.3      2.394      3.769
REMARK  Name = Aplyronine A_conf1
REMARK  45 active torsions:
REMARK  status: ('A' for Active; 'I' for Inactive)
REMARK    1  A    between atoms: C_1  and  C_2
REMARK    2  A    between atoms: C_5  and  O_75
REMARK    3  A    between atoms: C_6  and  C_74
REMARK    4  A    between atoms: C_9  and  C_73
REMARK    5  A    between atoms: C_11  and  O_71
REMARK    6  A    between atoms: C_15  and  C_39
REMARK    7  A    between atoms: C_24  and  O_29
REMARK    8  A    between atoms: C_25  and  C_28
REMARK    9  A    between atoms: C_26  and  O_27
REMARK   10  A    between atoms: O_29  and  C_30
REMARK   11  A    between atoms: C_30  and  C_32
REMARK   12  A    between atoms: C_32  and  C_33
REMARK   13  A    between atoms: C_32  and  N_36
REMARK   14  A    between atoms: C_33  and  O_34
REMARK   15  A    between atoms: O_34  and  C_35
REMARK   16  A    between atoms: N_36  and  C_37
REMARK   17  A    between atoms: N_36  and  C_38
REMARK   18  A    between atoms: C_39  and  C_40
REMARK   19  A    between atoms: C_39  and  C_41
REMARK   20  A    between atoms: C_41  and  C_42
REMARK   21  A    between atoms: C_41  and  O_70
REMARK   22  A    between atoms: C_42  and  C_43
REMARK   23  A    between atoms: C_42  and  C_44
REMARK   24  A    between atoms: C_44  and  C_45
REMARK   25  A    between atoms: C_45  and  C_46
REMARK   26  A    between atoms: C_46  and  C_47
REMARK   27  A    between atoms: C_46  and  O_62
REMARK   28  A    between atoms: C_47  and  C_48
REMARK   29  A    between atoms: C_47  and  C_49
REMARK   30  A    between atoms: C_49  and  C_50
REMARK   31  A    between atoms: C_49  and  O_58
REMARK   32  A    between atoms: C_50  and  C_51
REMARK   33  A    between atoms: C_50  and  C_52
REMARK   34  A    between atoms: C_53  and  N_54
REMARK   35  A    between atoms: N_54  and  C_55
REMARK   36  A    between atoms: O_58  and  C_59
REMARK   37  A    between atoms: C_59  and  C_61
REMARK   38  A    between atoms: O_62  and  C_63
REMARK   39  A    between atoms: C_63  and  C_65
REMARK   40  A    between atoms: C_65  and  C_66
REMARK   41  A    between atoms: C_65  and  N_67
REMARK   42  A    between atoms: N_67  and  C_68
REMARK   43  A    between atoms: N_67  and  C_69
REMARK   44  A    between atoms: O_71  and  C_72
REMARK   45  A    between atoms: O_75  and  C_76
REMARK                            x       y       z     vdW  Elec       q    Type
REMARK                         _______ _______ _______ _____ _____    ______ ____
ROOT
ATOM      1  C   UNL     1     159.846 156.367 192.360  0.00  0.00    -0.017 C 
ATOM      2  C   UNL     1     158.374 156.680 192.023  0.00  0.00    -0.045 C 
ATOM      3  C   UNL     1     157.355 155.536 192.210  0.00  0.00    -0.022 C 
ATOM      4  C   UNL     1     157.582 154.191 191.486  0.00  0.00    +0.079 C 
ATOM      5  C   UNL     1     157.746 154.204 189.963  0.00  0.00    -0.048 C 
ATOM      6  C   UNL     1     157.266 155.194 189.179  0.00  0.00    -0.082 C 
ATOM      7  C   UNL     1     157.326 155.298 187.677  0.00  0.00    -0.032 C 
ATOM      8  C   UNL     1     158.485 156.181 187.178  0.00  0.00    -0.038 C 
ATOM      9  C   UNL     1     158.395 157.682 187.556  0.00  0.00    -0.020 C 
ATOM     10  C   UNL     1     157.106 158.411 187.120  0.00  0.00    +0.077 C 
ATOM     11  C   UNL     1     157.331 159.904 187.134  0.00  0.00    -0.059 C 
ATOM     12  C   UNL     1     157.171 160.711 186.070  0.00  0.00    -0.082 C 
ATOM     13  C   UNL     1     157.370 162.211 186.072  0.00  0.00    +0.003 C 
ATOM     14  C   UNL     1     156.418 163.047 186.973  0.00  0.00    +0.112 C 
ATOM     15  O   UNL     1     156.887 162.809 188.324  0.00  0.00    -0.458 OA
ATOM     16  C   UNL     1     157.063 163.885 189.131  0.00  0.00    +0.332 C 
ATOM     17  O   UNL     1     156.618 165.007 188.962  0.00  0.00    -0.246 OA
ATOM     18  C   UNL     1     157.949 163.535 190.260  0.00  0.00    +0.022 C 
ATOM     19  C   UNL     1     159.003 162.732 190.053  0.00  0.00    -0.055 C 
ATOM     20  C   UNL     1     160.031 162.413 191.011  0.00  0.00    -0.065 C 
ATOM     21  C   UNL     1     159.827 161.923 192.240  0.00  0.00    -0.081 C 
ATOM     22  C   UNL     1     160.976 161.484 193.120  0.00  0.00    +0.003 C 
ATOM     23  C   UNL     1     160.903 160.008 193.588  0.00  0.00    +0.111 C 
ATOM     24  C   UNL     1     160.528 158.950 192.502  0.00  0.00    +0.020 C 
ATOM     25  C   UNL     1     160.515 157.534 193.144  0.00  0.00    +0.064 C 
ATOM     26  H   UNL     1     159.875 155.517 193.055  0.00  0.00    +0.032 HD
ATOM     27  H   UNL     1     158.300 157.090 191.012  0.00  0.00    +0.027 HD
ATOM     28  H   UNL     1     158.022 157.485 192.682  0.00  0.00    +0.027 HD
ATOM     29  H   UNL     1     157.302 155.338 193.288  0.00  0.00    +0.029 HD
ATOM     30  H   UNL     1     156.366 155.924 191.928  0.00  0.00    +0.029 HD
ATOM     31  H   UNL     1     156.697 153.566 191.675  0.00  0.00    +0.064 HD
ATOM     32  H   UNL     1     156.741 156.029 189.638  0.00  0.00    +0.057 HD
ATOM     33  H   UNL     1     156.365 155.674 187.313  0.00  0.00    +0.031 HD
ATOM     34  H   UNL     1     157.407 154.303 187.231  0.00  0.00    +0.031 HD
ATOM     35  H   UNL     1     159.412 155.804 187.634  0.00  0.00    +0.030 HD
ATOM     36  H   UNL     1     159.267 158.185 187.118  0.00  0.00    +0.030 HD
ATOM     37  H   UNL     1     158.507 157.772 188.645  0.00  0.00    +0.030 HD
ATOM     38  H   UNL     1     156.808 158.074 186.121  0.00  0.00    +0.064 HD
ATOM     39  H   UNL     1     157.626 160.323 188.095  0.00  0.00    +0.059 HD
ATOM     40  H   UNL     1     156.863 160.280 185.119  0.00  0.00    +0.057 HD
ATOM     41  H   UNL     1     157.307 162.553 185.032  0.00  0.00    +0.034 HD
ATOM     42  H   UNL     1     158.409 162.404 186.372  0.00  0.00    +0.034 HD
ATOM     43  H   UNL     1     156.579 164.105 186.724  0.00  0.00    +0.074 HD
ATOM     44  H   UNL     1     157.769 164.049 191.197  0.00  0.00    +0.069 HD
ATOM     45  H   UNL     1     159.188 162.328 189.058  0.00  0.00    +0.062 HD
ATOM     46  H   UNL     1     161.048 162.503 190.629  0.00  0.00    +0.061 HD
ATOM     47  H   UNL     1     158.823 161.789 192.640  0.00  0.00    +0.057 HD
ATOM     48  H   UNL     1     160.984 162.145 193.997  0.00  0.00    +0.034 HD
ATOM     49  H   UNL     1     161.930 161.642 192.606  0.00  0.00    +0.034 HD
ATOM     50  H   UNL     1     161.895 159.740 193.978  0.00  0.00    +0.074 HD
ATOM     51  H   UNL     1     159.513 159.174 192.156  0.00  0.00    +0.036 HD
ATOM     52  H   UNL     1     159.966 157.590 194.090  0.00  0.00    +0.060 HD
ENDROOT
BRANCH   1  53
ATOM     53  C   UNL     1     160.643 155.926 191.123  0.00  0.00    -0.060 C 
ATOM     54  H   UNL     1     159.978 155.570 190.335  0.00  0.00    +0.023 HD
ATOM     55  H   UNL     1     161.327 155.103 191.344  0.00  0.00    +0.023 HD
ATOM     56  H   UNL     1     161.222 156.746 190.696  0.00  0.00    +0.023 HD
ENDBRANCH   1  53
BRANCH   5  57
ATOM     57  C   UNL     1     158.446 152.983 189.412  0.00  0.00    -0.041 C 
ATOM     58  H   UNL     1     158.549 152.985 188.324  0.00  0.00    +0.028 HD
ATOM     59  H   UNL     1     159.460 152.902 189.817  0.00  0.00    +0.028 HD
ATOM     60  H   UNL     1     157.890 152.077 189.679  0.00  0.00    +0.028 HD
ENDBRANCH   5  57
BRANCH  24  61
ATOM     61  C   UNL     1     161.482 159.038 191.302  0.00  0.00    -0.057 C 
ATOM     62  H   UNL     1     161.033 158.603 190.407  0.00  0.00    +0.023 HD
ATOM     63  H   UNL     1     162.433 158.528 191.495  0.00  0.00    +0.023 HD
ATOM     64  H   UNL     1     161.723 160.068 191.034  0.00  0.00    +0.023 HD
ENDBRANCH  24  61
BRANCH   8  65
ATOM     65  C   UNL     1     158.652 156.013 185.664  0.00  0.00    -0.062 C 
ATOM     66  H   UNL     1     158.547 156.967 185.138  0.00  0.00    +0.023 HD
ATOM     67  H   UNL     1     159.637 155.597 185.423  0.00  0.00    +0.023 HD
ATOM     68  H   UNL     1     157.897 155.327 185.265  0.00  0.00    +0.023 HD
ENDBRANCH   8  65
BRANCH  14  69
ATOM     69  C   UNL     1     154.915 162.698 186.812  0.00  0.00    +0.020 C 
ATOM     70  H   UNL     1     154.786 162.211 185.842  0.00  0.00    +0.036 HD
BRANCH  69  71
ATOM     71  C   UNL     1     154.441 161.655 187.836  0.00  0.00    -0.057 C 
ATOM     72  H   UNL     1     153.423 161.870 188.182  0.00  0.00    +0.023 HD
ATOM     73  H   UNL     1     154.418 160.651 187.401  0.00  0.00    +0.023 HD
ATOM     74  H   UNL     1     155.091 161.638 188.716  0.00  0.00    +0.023 HD
ENDBRANCH  69  71
BRANCH  69  75
ATOM     75  C   UNL     1     153.975 163.939 186.883  0.00  0.00    +0.064 C 
ATOM     76  H   UNL     1     153.508 163.935 187.876  0.00  0.00    +0.060 HD
BRANCH  75  77
ATOM     77  C   UNL     1     152.843 163.917 185.813  0.00  0.00    -0.017 C 
ATOM     78  H   UNL     1     152.555 164.959 185.626  0.00  0.00    +0.032 HD
BRANCH  77  79
ATOM     79  C   UNL     1     153.373 163.387 184.473  0.00  0.00    -0.060 C 
ATOM     80  H   UNL     1     153.479 162.299 184.468  0.00  0.00    +0.023 HD
ATOM     81  H   UNL     1     154.358 163.815 184.257  0.00  0.00    +0.023 HD
ATOM     82  H   UNL     1     152.705 163.668 183.652  0.00  0.00    +0.023 HD
ENDBRANCH  77  79
BRANCH  77  83
ATOM     83  C   UNL     1     151.535 163.181 186.216  0.00  0.00    -0.045 C 
ATOM     84  H   UNL     1     151.820 162.185 186.574  0.00  0.00    +0.027 HD
ATOM     85  H   UNL     1     150.923 163.012 185.324  0.00  0.00    +0.027 HD
BRANCH  83  86
ATOM     86  C   UNL     1     150.659 163.854 187.286  0.00  0.00    -0.015 C 
ATOM     87  H   UNL     1     151.021 164.876 187.448  0.00  0.00    +0.030 HD
ATOM     88  H   UNL     1     149.628 163.902 186.927  0.00  0.00    +0.030 HD
BRANCH  86  89
ATOM     89  C   UNL     1     150.660 163.093 188.632  0.00  0.00    +0.109 C 
ATOM     90  H   UNL     1     149.668 163.200 189.087  0.00  0.00    +0.074 HD
BRANCH  89  91
ATOM     91  C   UNL     1     151.712 163.668 189.629  0.00  0.00    +0.031 C 
ATOM     92  H   UNL     1     152.508 164.105 189.008  0.00  0.00    +0.037 HD
BRANCH  91  93
ATOM     93  C   UNL     1     152.336 162.569 190.501  0.00  0.00    -0.056 C 
ATOM     94  H   UNL     1     152.744 162.975 191.432  0.00  0.00    +0.023 HD
ATOM     95  H   UNL     1     153.144 162.050 189.974  0.00  0.00    +0.023 HD
ATOM     96  H   UNL     1     151.595 161.822 190.801  0.00  0.00    +0.023 HD
ENDBRANCH  91  93
BRANCH  91  97
ATOM     97  C   UNL     1     151.099 164.801 190.516  0.00  0.00    +0.115 C 
ATOM     98  H   UNL     1     150.456 165.416 189.872  0.00  0.00    +0.074 HD
BRANCH  97  99
ATOM     99  C   UNL     1     150.235 164.275 191.705  0.00  0.00    +0.013 C 
ATOM    100  H   UNL     1     150.359 163.186 191.753  0.00  0.00    +0.038 HD
BRANCH  99 101
ATOM    101  C   UNL     1     148.733 164.517 191.498  0.00  0.00    -0.056 C 
ATOM    102  H   UNL     1     148.397 164.064 190.557  0.00  0.00    +0.024 HD
ATOM    103  H   UNL     1     148.129 164.082 192.302  0.00  0.00    +0.024 HD
ATOM    104  H   UNL     1     148.519 165.589 191.442  0.00  0.00    +0.024 HD
ENDBRANCH  99 101
BRANCH  99 105
ATOM    105  C   UNL     1     150.644 164.886 193.029  0.00  0.00    -0.064 C 
ATOM    106  C   UNL     1     149.767 165.219 193.986  0.00  0.00    -0.005 C 
ATOM    107  H   UNL     1     151.712 165.027 193.171  0.00  0.00    +0.059 HD
ATOM    108  H   UNL     1     148.701 165.070 193.815  0.00  0.00    +0.078 HD
BRANCH 106 109
ATOM    109  N   UNL     1     150.086 165.758 195.225  0.00  0.00    -0.284 N 
ATOM    110  C   UNL     1     149.074 166.005 196.152  0.00  0.00    +0.206 C 
ATOM    111  O   UNL     1     147.877 165.783 196.007  0.00  0.00    -0.279 OA
ATOM    112  H   UNL     1     149.457 166.441 197.090  0.00  0.00    +0.126 HD
BRANCH 109 113
ATOM    113  C   UNL     1     151.461 166.064 195.586  0.00  0.00    +0.007 C 
ATOM    114  H   UNL     1     151.536 166.170 196.672  0.00  0.00    +0.043 HD
ATOM    115  H   UNL     1     152.143 165.267 195.270  0.00  0.00    +0.043 HD
ATOM    116  H   UNL     1     151.771 166.992 195.093  0.00  0.00    +0.043 HD
ENDBRANCH 109 113
ENDBRANCH 106 109
ENDBRANCH  99 105
ENDBRANCH  97  99
BRANCH  97 117
ATOM    117  O   UNL     1     152.196 165.599 191.035  0.00  0.00    -0.461 OA
BRANCH 117 118
ATOM    118  C   UNL     1     152.694 166.567 190.216  0.00  0.00    +0.304 C 
ATOM    119  O   UNL     1     153.688 166.465 189.512  0.00  0.00    -0.251 OA
BRANCH 118 120
ATOM    120  C   UNL     1     151.818 167.781 190.256  0.00  0.00    +0.033 C 
ATOM    121  H   UNL     1     150.950 167.641 189.605  0.00  0.00    +0.034 HD
ATOM    122  H   UNL     1     151.455 167.928 191.277  0.00  0.00    +0.034 HD
ATOM    123  H   UNL     1     152.395 168.657 189.953  0.00  0.00    +0.034 HD
ENDBRANCH 118 120
ENDBRANCH 117 118
ENDBRANCH  97 117
ENDBRANCH  91  97
ENDBRANCH  89  91
BRANCH  89 124
ATOM    124  O   UNL     1     150.981 161.708 188.385  0.00  0.00    -0.460 OA
BRANCH 124 125
ATOM    125  C   UNL     1     149.958 160.809 188.351  0.00  0.00    +0.324 C 
ATOM    126  O   UNL     1     149.018 160.862 187.561  0.00  0.00    -0.249 OA
BRANCH 125 127
ATOM    127  C   UNL     1     150.064 159.744 189.460  0.00  0.00    +0.105 C 
ATOM    128  H   UNL     1     149.464 158.884 189.131  0.00  0.00    +0.058 HD
BRANCH 127 129
ATOM    129  C   UNL     1     149.402 160.351 190.701  0.00  0.00    -0.039 C 
ATOM    130  H   UNL     1     149.238 159.593 191.473  0.00  0.00    +0.025 HD
ATOM    131  H   UNL     1     150.038 161.133 191.130  0.00  0.00    +0.025 HD
ATOM    132  H   UNL     1     148.442 160.823 190.467  0.00  0.00    +0.025 HD
ENDBRANCH 127 129
BRANCH 127 133
ATOM    133  N   UNL     1     151.469 159.284 189.687  0.00  0.00    -0.296 NA
BRANCH 133 134
ATOM    134  C   UNL     1     151.794 158.137 188.827  0.00  0.00    -0.012 C 
ATOM    135  H   UNL     1     152.795 158.228 188.396  0.00  0.00    +0.039 HD
ATOM    136  H   UNL     1     151.073 158.025 188.009  0.00  0.00    +0.039 HD
ATOM    137  H   UNL     1     151.798 157.210 189.414  0.00  0.00    +0.039 HD
ENDBRANCH 133 134
BRANCH 133 138
ATOM    138  C   UNL     1     151.711 158.912 191.085  0.00  0.00    -0.012 C 
ATOM    139  H   UNL     1     151.173 157.991 191.342  0.00  0.00    +0.039 HD
ATOM    140  H   UNL     1     152.771 158.694 191.261  0.00  0.00    +0.039 HD
ATOM    141  H   UNL     1     151.391 159.700 191.778  0.00  0.00    +0.039 HD
ENDBRANCH 133 138
ENDBRANCH 127 133
ENDBRANCH 125 127
ENDBRANCH 124 125
ENDBRANCH  89 124
ENDBRANCH  86  89
ENDBRANCH  83  86
ENDBRANCH  77  83
ENDBRANCH  75  77
BRANCH  75 142
ATOM    142  O   UNL     1     154.707 165.155 186.823  0.00  0.00    -0.391 OA
ATOM    143  H   UNL     1     155.186 165.259 187.662  0.00  0.00    +0.210 HD
ENDBRANCH  75 142
ENDBRANCH  69  75
ENDBRANCH  14  69
BRANCH  25 144
ATOM    144  O   UNL     1     161.855 157.172 193.508  0.00  0.00    -0.391 OA
ATOM    145  H   UNL     1     162.458 157.588 192.871  0.00  0.00    +0.210 HD
ENDBRANCH  25 144
BRANCH  23 146
ATOM    146  O   UNL     1     159.919 159.947 194.658  0.00  0.00    -0.460 OA
BRANCH 146 147
ATOM    147  C   UNL     1     160.427 159.707 195.907  0.00  0.00    +0.327 C 
ATOM    148  O   UNL     1     161.400 158.994 196.139  0.00  0.00    -0.249 OA
BRANCH 147 149
ATOM    149  C   UNL     1     159.596 160.424 196.982  0.00  0.00    +0.131 C 
ATOM    150  H   UNL     1     160.106 160.282 197.943  0.00  0.00    +0.060 HD
BRANCH 149 151
ATOM    151  C   UNL     1     158.242 159.701 197.091  0.00  0.00    +0.073 C 
ATOM    152  H   UNL     1     157.513 160.350 197.592  0.00  0.00    +0.058 HD
ATOM    153  H   UNL     1     157.846 159.430 196.106  0.00  0.00    +0.058 HD
BRANCH 151 154
ATOM    154  O   UNL     1     158.404 158.524 197.895  0.00  0.00    -0.381 OA
BRANCH 154 155
ATOM    155  C   UNL     1     158.498 158.844 199.277  0.00  0.00    +0.037 C 
ATOM    156  H   UNL     1     159.510 158.657 199.649  0.00  0.00    +0.052 HD
ATOM    157  H   UNL     1     157.802 158.204 199.826  0.00  0.00    +0.052 HD
ATOM    158  H   UNL     1     158.219 159.887 199.450  0.00  0.00    +0.052 HD
ENDBRANCH 154 155
ENDBRANCH 151 154
ENDBRANCH 149 151
BRANCH 149 159
ATOM    159  N   UNL     1     159.412 161.886 196.719  0.00  0.00    -0.294 NA
BRANCH 159 160
ATOM    160  C   UNL     1     158.386 162.461 197.584  0.00  0.00    -0.012 C 
ATOM    161  H   UNL     1     157.681 163.098 197.043  0.00  0.00    +0.039 HD
ATOM    162  H   UNL     1     158.852 163.050 198.376  0.00  0.00    +0.039 HD
ATOM    163  H   UNL     1     157.814 161.676 198.089  0.00  0.00    +0.039 HD
ENDBRANCH 159 160
BRANCH 159 164
ATOM    164  C   UNL     1     160.652 162.659 196.791  0.00  0.00    -0.012 C 
ATOM    165  H   UNL     1     160.579 163.621 196.272  0.00  0.00    +0.039 HD
ATOM    166  H   UNL     1     161.474 162.100 196.333  0.00  0.00    +0.039 HD
ATOM    167  H   UNL     1     160.947 162.843 197.828  0.00  0.00    +0.039 HD
ENDBRANCH 159 164
ENDBRANCH 149 159
ENDBRANCH 147 149
ENDBRANCH 146 147
ENDBRANCH  23 146
BRANCH   4 168
ATOM    168  O   UNL     1     158.724 153.550 192.078  0.00  0.00    -0.376 OA
BRANCH 168 169
ATOM    169  C   UNL     1     158.467 153.030 193.377  0.00  0.00    +0.037 C 
ATOM    170  H   UNL     1     159.069 153.594 194.094  0.00  0.00    +0.052 HD
ATOM    171  H   UNL     1     158.764 151.979 193.422  0.00  0.00    +0.052 HD
ATOM    172  H   UNL     1     157.412 153.140 193.645  0.00  0.00    +0.052 HD
ENDBRANCH 168 169
ENDBRANCH   4 168
BRANCH  10 173
ATOM    173  O   UNL     1     156.080 158.096 188.065  0.00  0.00    -0.376 OA
BRANCH 173 174
ATOM    174  C   UNL     1     156.251 158.742 189.323  0.00  0.00    +0.037 C 
ATOM    175  H   UNL     1     155.818 158.102 190.096  0.00  0.00    +0.052 HD
ATOM    176  H   UNL     1     157.313 158.876 189.545  0.00  0.00    +0.052 HD
ATOM    177  H   UNL     1     155.733 159.706 189.341  0.00  0.00    +0.052 HD
ENDBRANCH 173 174
ENDBRANCH  10 173
TORSDOF 45
ENDMDL
MODEL 5
REMARK VINA RESULT:      -5.2      6.282     12.713
REMARK  Name = Aplyronine A_conf1
REMARK  45 active torsions:
REMARK  status: ('A' for Active; 'I' for Inactive)
REMARK    1  A    between atoms: C_1  and  C_2
REMARK    2  A    between atoms: C_5  and  O_75
REMARK    3  A    between atoms: C_6  and  C_74
REMARK    4  A    between atoms: C_9  and  C_73
REMARK    5  A    between atoms: C_11  and  O_71
REMARK    6  A    between atoms: C_15  and  C_39
REMARK    7  A    between atoms: C_24  and  O_29
REMARK    8  A    between atoms: C_25  and  C_28
REMARK    9  A    between atoms: C_26  and  O_27
REMARK   10  A    between atoms: O_29  and  C_30
REMARK   11  A    between atoms: C_30  and  C_32
REMARK   12  A    between atoms: C_32  and  C_33
REMARK   13  A    between atoms: C_32  and  N_36
REMARK   14  A    between atoms: C_33  and  O_34
REMARK   15  A    between atoms: O_34  and  C_35
REMARK   16  A    between atoms: N_36  and  C_37
REMARK   17  A    between atoms: N_36  and  C_38
REMARK   18  A    between atoms: C_39  and  C_40
REMARK   19  A    between atoms: C_39  and  C_41
REMARK   20  A    between atoms: C_41  and  C_42
REMARK   21  A    between atoms: C_41  and  O_70
REMARK   22  A    between atoms: C_42  and  C_43
REMARK   23  A    between atoms: C_42  and  C_44
REMARK   24  A    between atoms: C_44  and  C_45
REMARK   25  A    between atoms: C_45  and  C_46
REMARK   26  A    between atoms: C_46  and  C_47
REMARK   27  A    between atoms: C_46  and  O_62
REMARK   28  A    between atoms: C_47  and  C_48
REMARK   29  A    between atoms: C_47  and  C_49
REMARK   30  A    between atoms: C_49  and  C_50
REMARK   31  A    between atoms: C_49  and  O_58
REMARK   32  A    between atoms: C_50  and  C_51
REMARK   33  A    between atoms: C_50  and  C_52
REMARK   34  A    between atoms: C_53  and  N_54
REMARK   35  A    between atoms: N_54  and  C_55
REMARK   36  A    between atoms: O_58  and  C_59
REMARK   37  A    between atoms: C_59  and  C_61
REMARK   38  A    between atoms: O_62  and  C_63
REMARK   39  A    between atoms: C_63  and  C_65
REMARK   40  A    between atoms: C_65  and  C_66
REMARK   41  A    between atoms: C_65  and  N_67
REMARK   42  A    between atoms: N_67  and  C_68
REMARK   43  A    between atoms: N_67  and  C_69
REMARK   44  A    between atoms: O_71  and  C_72
REMARK   45  A    between atoms: O_75  and  C_76
REMARK                            x       y       z     vdW  Elec       q    Type
REMARK                         _______ _______ _______ _____ _____    ______ ____
ROOT
ATOM      1  C   UNL     1     156.397 170.587 181.287  0.00  0.00    -0.017 C 
ATOM      2  C   UNL     1     155.913 170.473 182.747  0.00  0.00    -0.045 C 
ATOM      3  C   UNL     1     156.255 171.645 183.691  0.00  0.00    -0.022 C 
ATOM      4  C   UNL     1     157.728 172.076 183.863  0.00  0.00    +0.079 C 
ATOM      5  C   UNL     1     158.747 171.022 184.308  0.00  0.00    -0.048 C 
ATOM      6  C   UNL     1     158.401 169.904 184.984  0.00  0.00    -0.082 C 
ATOM      7  C   UNL     1     159.309 168.822 185.509  0.00  0.00    -0.032 C 
ATOM      8  C   UNL     1     159.393 167.598 184.578  0.00  0.00    -0.038 C 
ATOM      9  C   UNL     1     158.077 166.796 184.405  0.00  0.00    -0.020 C 
ATOM     10  C   UNL     1     157.428 166.278 185.705  0.00  0.00    +0.077 C 
ATOM     11  C   UNL     1     156.453 165.170 185.385  0.00  0.00    -0.059 C 
ATOM     12  C   UNL     1     156.520 163.925 185.891  0.00  0.00    -0.082 C 
ATOM     13  C   UNL     1     155.540 162.810 185.600  0.00  0.00    +0.003 C 
ATOM     14  C   UNL     1     154.070 163.024 186.060  0.00  0.00    +0.112 C 
ATOM     15  O   UNL     1     153.526 163.982 185.119  0.00  0.00    -0.458 OA
ATOM     16  C   UNL     1     152.319 163.708 184.564  0.00  0.00    +0.332 C 
ATOM     17  O   UNL     1     151.500 162.895 184.958  0.00  0.00    -0.246 OA
ATOM     18  C   UNL     1     152.130 164.505 183.334  0.00  0.00    +0.022 C 
ATOM     19  C   UNL     1     153.166 164.702 182.506  0.00  0.00    -0.055 C 
ATOM     20  C   UNL     1     153.112 165.332 181.212  0.00  0.00    -0.065 C 
ATOM     21  C   UNL     1     152.600 166.542 180.952  0.00  0.00    -0.081 C 
ATOM     22  C   UNL     1     152.720 167.178 179.586  0.00  0.00    +0.003 C 
ATOM     23  C   UNL     1     153.424 168.559 179.575  0.00  0.00    +0.111 C 
ATOM     24  C   UNL     1     154.732 168.681 180.421  0.00  0.00    +0.020 C 
ATOM     25  C   UNL     1     155.302 170.121 180.283  0.00  0.00    +0.064 C 
ATOM     26  H   UNL     1     156.553 171.648 181.050  0.00  0.00    +0.032 HD
ATOM     27  H   UNL     1     156.249 169.528 183.182  0.00  0.00    +0.027 HD
ATOM     28  H   UNL     1     154.816 170.415 182.755  0.00  0.00    +0.027 HD
ATOM     29  H   UNL     1     155.686 172.513 183.332  0.00  0.00    +0.029 HD
ATOM     30  H   UNL     1     155.841 171.406 184.681  0.00  0.00    +0.029 HD
ATOM     31  H   UNL     1     157.752 172.848 184.646  0.00  0.00    +0.064 HD
ATOM     32  H   UNL     1     157.356 169.730 185.226  0.00  0.00    +0.057 HD
ATOM     33  H   UNL     1     158.966 168.530 186.507  0.00  0.00    +0.031 HD
ATOM     34  H   UNL     1     160.313 169.219 185.681  0.00  0.00    +0.031 HD
ATOM     35  H   UNL     1     159.668 167.959 183.576  0.00  0.00    +0.030 HD
ATOM     36  H   UNL     1     158.293 165.950 183.740  0.00  0.00    +0.030 HD
ATOM     37  H   UNL     1     157.355 167.427 183.869  0.00  0.00    +0.030 HD
ATOM     38  H   UNL     1     158.203 165.926 186.394  0.00  0.00    +0.064 HD
ATOM     39  H   UNL     1     155.644 165.440 184.709  0.00  0.00    +0.059 HD
ATOM     40  H   UNL     1     157.326 163.673 186.577  0.00  0.00    +0.057 HD
ATOM     41  H   UNL     1     155.946 161.892 186.041  0.00  0.00    +0.034 HD
ATOM     42  H   UNL     1     155.554 162.635 184.515  0.00  0.00    +0.034 HD
ATOM     43  H   UNL     1     153.546 162.067 185.934  0.00  0.00    +0.074 HD
ATOM     44  H   UNL     1     151.115 164.798 183.096  0.00  0.00    +0.069 HD
ATOM     45  H   UNL     1     154.144 164.291 182.755  0.00  0.00    +0.062 HD
ATOM     46  H   UNL     1     153.626 164.784 180.421  0.00  0.00    +0.061 HD
ATOM     47  H   UNL     1     152.110 167.129 181.727  0.00  0.00    +0.057 HD
ATOM     48  H   UNL     1     151.701 167.284 179.188  0.00  0.00    +0.034 HD
ATOM     49  H   UNL     1     153.251 166.509 178.900  0.00  0.00    +0.034 HD
ATOM     50  H   UNL     1     153.686 168.783 178.532  0.00  0.00    +0.074 HD
ATOM     51  H   UNL     1     154.465 168.522 181.471  0.00  0.00    +0.036 HD
ATOM     52  H   UNL     1     154.478 170.831 180.413  0.00  0.00    +0.060 HD
ENDROOT
BRANCH   1  53
ATOM     53  C   UNL     1     157.755 169.903 181.073  0.00  0.00    -0.060 C 
ATOM     54  H   UNL     1     158.453 170.568 180.563  0.00  0.00    +0.023 HD
ATOM     55  H   UNL     1     157.673 169.008 180.452  0.00  0.00    +0.023 HD
ATOM     56  H   UNL     1     158.225 169.622 182.017  0.00  0.00    +0.023 HD
ENDBRANCH   1  53
BRANCH   5  57
ATOM     57  C   UNL     1     160.178 171.371 183.969  0.00  0.00    -0.041 C 
ATOM     58  H   UNL     1     160.529 172.297 184.432  0.00  0.00    +0.028 HD
ATOM     59  H   UNL     1     160.859 170.582 184.305  0.00  0.00    +0.028 HD
ATOM     60  H   UNL     1     160.290 171.492 182.886  0.00  0.00    +0.028 HD
ENDBRANCH   5  57
BRANCH  24  61
ATOM     61  C   UNL     1     155.749 167.608 180.008  0.00  0.00    -0.057 C 
ATOM     62  H   UNL     1     155.715 166.750 180.683  0.00  0.00    +0.023 HD
ATOM     63  H   UNL     1     156.774 167.997 179.996  0.00  0.00    +0.023 HD
ATOM     64  H   UNL     1     155.551 167.203 179.014  0.00  0.00    +0.023 HD
ENDBRANCH  24  61
BRANCH   8  65
ATOM     65  C   UNL     1     160.533 166.678 185.029  0.00  0.00    -0.062 C 
ATOM     66  H   UNL     1     161.508 167.166 184.930  0.00  0.00    +0.023 HD
ATOM     67  H   UNL     1     160.405 166.380 186.076  0.00  0.00    +0.023 HD
ATOM     68  H   UNL     1     160.555 165.765 184.425  0.00  0.00    +0.023 HD
ENDBRANCH   8  65
BRANCH  14  69
ATOM     69  C   UNL     1     153.924 163.507 187.528  0.00  0.00    +0.020 C 
ATOM     70  H   UNL     1     152.958 163.157 187.901  0.00  0.00    +0.036 HD
BRANCH  69  71
ATOM     71  C   UNL     1     154.959 162.862 188.464  0.00  0.00    -0.057 C 
ATOM     72  H   UNL     1     155.147 161.818 188.190  0.00  0.00    +0.023 HD
ATOM     73  H   UNL     1     155.922 163.378 188.410  0.00  0.00    +0.023 HD
ATOM     74  H   UNL     1     154.615 162.874 189.503  0.00  0.00    +0.023 HD
ENDBRANCH  69  71
BRANCH  69  75
ATOM     75  C   UNL     1     153.996 165.055 187.687  0.00  0.00    +0.064 C 
ATOM     76  H   UNL     1     154.796 165.412 187.027  0.00  0.00    +0.060 HD
BRANCH  75  77
ATOM     77  C   UNL     1     154.323 165.511 189.139  0.00  0.00    -0.017 C 
ATOM     78  H   UNL     1     154.306 164.614 189.771  0.00  0.00    +0.032 HD
BRANCH  77  79
ATOM     79  C   UNL     1     155.757 166.053 189.229  0.00  0.00    -0.060 C 
ATOM     80  H   UNL     1     155.990 166.749 188.419  0.00  0.00    +0.023 HD
ATOM     81  H   UNL     1     156.478 165.230 189.176  0.00  0.00    +0.023 HD
ATOM     82  H   UNL     1     155.919 166.570 190.180  0.00  0.00    +0.023 HD
ENDBRANCH  77  79
BRANCH  77  83
ATOM     83  C   UNL     1     153.319 166.505 189.787  0.00  0.00    -0.045 C 
ATOM     84  H   UNL     1     152.778 166.999 188.971  0.00  0.00    +0.027 HD
ATOM     85  H   UNL     1     153.872 167.299 190.299  0.00  0.00    +0.027 HD
BRANCH  83  86
ATOM     86  C   UNL     1     152.292 165.916 190.769  0.00  0.00    -0.015 C 
ATOM     87  H   UNL     1     152.677 164.967 191.156  0.00  0.00    +0.030 HD
ATOM     88  H   UNL     1     152.160 166.606 191.606  0.00  0.00    +0.030 HD
BRANCH  86  89
ATOM     89  C   UNL     1     150.907 165.680 190.123  0.00  0.00    +0.109 C 
ATOM     90  H   UNL     1     150.974 165.947 189.061  0.00  0.00    +0.074 HD
BRANCH  89  91
ATOM     91  C   UNL     1     149.799 166.564 190.773  0.00  0.00    +0.031 C 
ATOM     92  H   UNL     1     149.094 165.864 191.243  0.00  0.00    +0.037 HD
BRANCH  91  93
ATOM     93  C   UNL     1     149.032 167.385 189.726  0.00  0.00    -0.056 C 
ATOM     94  H   UNL     1     149.677 167.677 188.892  0.00  0.00    +0.023 HD
ATOM     95  H   UNL     1     148.609 168.296 190.164  0.00  0.00    +0.023 HD
ATOM     96  H   UNL     1     148.213 166.811 189.285  0.00  0.00    +0.023 HD
ENDBRANCH  91  93
BRANCH  91  97
ATOM     97  C   UNL     1     150.390 167.493 191.885  0.00  0.00    +0.115 C 
ATOM     98  H   UNL     1     151.404 167.137 192.111  0.00  0.00    +0.074 HD
BRANCH  97  99
ATOM     99  C   UNL     1     150.483 168.994 191.470  0.00  0.00    +0.013 C 
ATOM    100  H   UNL     1     150.426 169.043 190.376  0.00  0.00    +0.038 HD
BRANCH  99 101
ATOM    101  C   UNL     1     151.827 169.631 191.850  0.00  0.00    -0.056 C 
ATOM    102  H   UNL     1     152.559 168.857 192.110  0.00  0.00    +0.024 HD
ATOM    103  H   UNL     1     152.253 170.219 191.029  0.00  0.00    +0.024 HD
ATOM    104  H   UNL     1     151.713 170.283 192.722  0.00  0.00    +0.024 HD
ENDBRANCH  99 101
BRANCH  99 105
ATOM    105  C   UNL     1     149.368 169.827 192.069  0.00  0.00    -0.064 C 
ATOM    106  C   UNL     1     149.202 171.131 191.805  0.00  0.00    -0.005 C 
ATOM    107  H   UNL     1     148.685 169.295 192.725  0.00  0.00    +0.059 HD
ATOM    108  H   UNL     1     149.905 171.640 191.145  0.00  0.00    +0.078 HD
BRANCH 106 109
ATOM    109  N   UNL     1     148.187 171.936 192.303  0.00  0.00    -0.284 N 
ATOM    110  C   UNL     1     148.454 172.812 193.354  0.00  0.00    +0.206 C 
ATOM    111  O   UNL     1     149.532 172.978 193.914  0.00  0.00    -0.279 OA
ATOM    112  H   UNL     1     147.564 173.386 193.663  0.00  0.00    +0.126 HD
BRANCH 109 113
ATOM    113  C   UNL     1     146.845 171.893 191.745  0.00  0.00    +0.007 C 
ATOM    114  H   UNL     1     146.893 171.526 190.715  0.00  0.00    +0.043 HD
ATOM    115  H   UNL     1     146.195 171.224 192.318  0.00  0.00    +0.043 HD
ATOM    116  H   UNL     1     146.407 172.897 191.768  0.00  0.00    +0.043 HD
ENDBRANCH 109 113
ENDBRANCH 106 109
ENDBRANCH  99 105
ENDBRANCH  97  99
BRANCH  97 117
ATOM    117  O   UNL     1     149.544 167.369 193.060  0.00  0.00    -0.461 OA
BRANCH 117 118
ATOM    118  C   UNL     1     149.785 166.312 193.884  0.00  0.00    +0.304 C 
ATOM    119  O   UNL     1     148.966 165.471 194.224  0.00  0.00    -0.251 OA
BRANCH 118 120
ATOM    120  C   UNL     1     151.227 166.287 194.286  0.00  0.00    +0.033 C 
ATOM    121  H   UNL     1     151.464 165.341 194.781  0.00  0.00    +0.034 HD
ATOM    122  H   UNL     1     151.850 166.366 193.392  0.00  0.00    +0.034 HD
ATOM    123  H   UNL     1     151.438 167.133 194.943  0.00  0.00    +0.034 HD
ENDBRANCH 118 120
ENDBRANCH 117 118
ENDBRANCH  97 117
ENDBRANCH  91  97
ENDBRANCH  89  91
BRANCH  89 124
ATOM    124  O   UNL     1     150.540 164.296 190.296  0.00  0.00    -0.460 OA
BRANCH 124 125
ATOM    125  C   UNL     1     150.684 163.456 189.233  0.00  0.00    +0.324 C 
ATOM    126  O   UNL     1     150.545 163.796 188.061  0.00  0.00    -0.249 OA
BRANCH 125 127
ATOM    127  C   UNL     1     150.976 162.003 189.656  0.00  0.00    +0.105 C 
ATOM    128  H   UNL     1     150.069 161.629 190.150  0.00  0.00    +0.058 HD
BRANCH 127 129
ATOM    129  C   UNL     1     152.099 162.076 190.696  0.00  0.00    -0.039 C 
ATOM    130  H   UNL     1     152.449 163.105 190.829  0.00  0.00    +0.025 HD
ATOM    131  H   UNL     1     151.745 161.715 191.667  0.00  0.00    +0.025 HD
ATOM    132  H   UNL     1     152.955 161.451 190.422  0.00  0.00    +0.025 HD
ENDBRANCH 127 129
BRANCH 127 133
ATOM    133  N   UNL     1     151.284 161.113 188.493  0.00  0.00    -0.296 NA
BRANCH 133 134
ATOM    134  C   UNL     1     150.122 160.287 188.138  0.00  0.00    -0.012 C 
ATOM    135  H   UNL     1     150.325 159.222 188.280  0.00  0.00    +0.039 HD
ATOM    136  H   UNL     1     149.814 160.445 187.098  0.00  0.00    +0.039 HD
ATOM    137  H   UNL     1     149.272 160.525 188.790  0.00  0.00    +0.039 HD
ENDBRANCH 133 134
BRANCH 133 138
ATOM    138  C   UNL     1     152.428 160.235 188.756  0.00  0.00    -0.012 C 
ATOM    139  H   UNL     1     152.119 159.182 188.756  0.00  0.00    +0.039 HD
ATOM    140  H   UNL     1     153.185 160.320 187.969  0.00  0.00    +0.039 HD
ATOM    141  H   UNL     1     152.897 160.452 189.724  0.00  0.00    +0.039 HD
ENDBRANCH 133 138
ENDBRANCH 127 133
ENDBRANCH 125 127
ENDBRANCH 124 125
ENDBRANCH  89 124
ENDBRANCH  86  89
ENDBRANCH  83  86
ENDBRANCH  77  83
ENDBRANCH  75  77
BRANCH  75 142
ATOM    142  O   UNL     1     152.815 165.686 187.211  0.00  0.00    -0.391 OA
ATOM    143  H   UNL     1     152.819 165.638 186.239  0.00  0.00    +0.210 HD
ENDBRANCH  75 142
ENDBRANCH  69  75
ENDBRANCH  14  69
BRANCH  25 144
ATOM    144  O   UNL     1     155.759 170.317 178.938  0.00  0.00    -0.391 OA
ATOM    145  H   UNL     1     156.331 171.102 178.930  0.00  0.00    +0.210 HD
ENDBRANCH  25 144
BRANCH  23 146
ATOM    146  O   UNL     1     152.460 169.534 180.063  0.00  0.00    -0.460 OA
BRANCH 146 147
ATOM    147  C   UNL     1     152.061 170.471 179.148  0.00  0.00    +0.327 C 
ATOM    148  O   UNL     1     152.319 170.428 177.948  0.00  0.00    -0.249 OA
BRANCH 147 149
ATOM    149  C   UNL     1     151.274 171.600 179.831  0.00  0.00    +0.131 C 
ATOM    150  H   UNL     1     151.067 171.282 180.861  0.00  0.00    +0.060 HD
BRANCH 149 151
ATOM    151  C   UNL     1     149.911 171.719 179.126  0.00  0.00    +0.073 C 
ATOM    152  H   UNL     1     149.565 172.759 179.158  0.00  0.00    +0.058 HD
ATOM    153  H   UNL     1     149.968 171.404 178.078  0.00  0.00    +0.058 HD
BRANCH 151 154
ATOM    154  O   UNL     1     148.951 170.917 179.828  0.00  0.00    -0.381 OA
BRANCH 154 155
ATOM    155  C   UNL     1     147.906 171.711 180.375  0.00  0.00    +0.037 C 
ATOM    156  H   UNL     1     147.151 171.932 179.615  0.00  0.00    +0.052 HD
ATOM    157  H   UNL     1     148.337 172.654 180.723  0.00  0.00    +0.052 HD
ATOM    158  H   UNL     1     147.446 171.205 181.229  0.00  0.00    +0.052 HD
ENDBRANCH 154 155
ENDBRANCH 151 154
ENDBRANCH 149 151
BRANCH 149 159
ATOM    159  N   UNL     1     151.996 172.910 179.841  0.00  0.00    -0.294 NA
BRANCH 159 160
ATOM    160  C   UNL     1     151.068 174.034 179.935  0.00  0.00    -0.012 C 
ATOM    161  H   UNL     1     151.558 174.969 180.217  0.00  0.00    +0.039 HD
ATOM    162  H   UNL     1     150.287 173.813 180.666  0.00  0.00    +0.039 HD
ATOM    163  H   UNL     1     150.552 174.196 178.983  0.00  0.00    +0.039 HD
ENDBRANCH 159 160
BRANCH 159 164
ATOM    164  C   UNL     1     153.036 173.003 180.867  0.00  0.00    -0.012 C 
ATOM    165  H   UNL     1     152.844 172.345 181.721  0.00  0.00    +0.039 HD
ATOM    166  H   UNL     1     153.100 174.028 181.249  0.00  0.00    +0.039 HD
ATOM    167  H   UNL     1     154.022 172.767 180.457  0.00  0.00    +0.039 HD
ENDBRANCH 159 164
ENDBRANCH 149 159
ENDBRANCH 147 149
ENDBRANCH 146 147
ENDBRANCH  23 146
BRANCH   4 168
ATOM    168  O   UNL     1     158.169 172.668 182.630  0.00  0.00    -0.376 OA
BRANCH 168 169
ATOM    169  C   UNL     1     157.813 174.039 182.504  0.00  0.00    +0.037 C 
ATOM    170  H   UNL     1     158.041 174.356 181.483  0.00  0.00    +0.052 HD
ATOM    171  H   UNL     1     158.403 174.642 183.198  0.00  0.00    +0.052 HD
ATOM    172  H   UNL     1     156.744 174.187 182.683  0.00  0.00    +0.052 HD
ENDBRANCH 168 169
ENDBRANCH   4 168
BRANCH  10 173
ATOM    173  O   UNL     1     156.707 167.362 186.300  0.00  0.00    -0.376 OA
BRANCH 173 174
ATOM    174  C   UNL     1     155.495 167.676 185.619  0.00  0.00    +0.037 C 
ATOM    175  H   UNL     1     155.657 168.589 185.040  0.00  0.00    +0.052 HD
ATOM    176  H   UNL     1     155.224 166.876 184.926  0.00  0.00    +0.052 HD
ATOM    177  H   UNL     1     154.683 167.857 186.331  0.00  0.00    +0.052 HD
ENDBRANCH 173 174
ENDBRANCH  10 173
TORSDOF 45
ENDMDL
MODEL 6
REMARK VINA RESULT:      -5.2      5.102     10.220
REMARK  Name = Aplyronine A_conf1
REMARK  45 active torsions:
REMARK  status: ('A' for Active; 'I' for Inactive)
REMARK    1  A    between atoms: C_1  and  C_2
REMARK    2  A    between atoms: C_5  and  O_75
REMARK    3  A    between atoms: C_6  and  C_74
REMARK    4  A    between atoms: C_9  and  C_73
REMARK    5  A    between atoms: C_11  and  O_71
REMARK    6  A    between atoms: C_15  and  C_39
REMARK    7  A    between atoms: C_24  and  O_29
REMARK    8  A    between atoms: C_25  and  C_28
REMARK    9  A    between atoms: C_26  and  O_27
REMARK   10  A    between atoms: O_29  and  C_30
REMARK   11  A    between atoms: C_30  and  C_32
REMARK   12  A    between atoms: C_32  and  C_33
REMARK   13  A    between atoms: C_32  and  N_36
REMARK   14  A    between atoms: C_33  and  O_34
REMARK   15  A    between atoms: O_34  and  C_35
REMARK   16  A    between atoms: N_36  and  C_37
REMARK   17  A    between atoms: N_36  and  C_38
REMARK   18  A    between atoms: C_39  and  C_40
REMARK   19  A    between atoms: C_39  and  C_41
REMARK   20  A    between atoms: C_41  and  C_42
REMARK   21  A    between atoms: C_41  and  O_70
REMARK   22  A    between atoms: C_42  and  C_43
REMARK   23  A    between atoms: C_42  and  C_44
REMARK   24  A    between atoms: C_44  and  C_45
REMARK   25  A    between atoms: C_45  and  C_46
REMARK   26  A    between atoms: C_46  and  C_47
REMARK   27  A    between atoms: C_46  and  O_62
REMARK   28  A    between atoms: C_47  and  C_48
REMARK   29  A    between atoms: C_47  and  C_49
REMARK   30  A    between atoms: C_49  and  C_50
REMARK   31  A    between atoms: C_49  and  O_58
REMARK   32  A    between atoms: C_50  and  C_51
REMARK   33  A    between atoms: C_50  and  C_52
REMARK   34  A    between atoms: C_53  and  N_54
REMARK   35  A    between atoms: N_54  and  C_55
REMARK   36  A    between atoms: O_58  and  C_59
REMARK   37  A    between atoms: C_59  and  C_61
REMARK   38  A    between atoms: O_62  and  C_63
REMARK   39  A    between atoms: C_63  and  C_65
REMARK   40  A    between atoms: C_65  and  C_66
REMARK   41  A    between atoms: C_65  and  N_67
REMARK   42  A    between atoms: N_67  and  C_68
REMARK   43  A    between atoms: N_67  and  C_69
REMARK   44  A    between atoms: O_71  and  C_72
REMARK   45  A    between atoms: O_75  and  C_76
REMARK                            x       y       z     vdW  Elec       q    Type
REMARK                         _______ _______ _______ _____ _____    ______ ____
ROOT
ATOM      1  C   UNL     1     153.918 161.670 188.723  0.00  0.00    -0.017 C 
ATOM      2  C   UNL     1     153.143 162.657 187.827  0.00  0.00    -0.045 C 
ATOM      3  C   UNL     1     153.974 163.520 186.854  0.00  0.00    -0.022 C 
ATOM      4  C   UNL     1     155.116 164.400 187.406  0.00  0.00    +0.079 C 
ATOM      5  C   UNL     1     154.785 165.417 188.504  0.00  0.00    -0.048 C 
ATOM      6  C   UNL     1     153.543 165.914 188.696  0.00  0.00    -0.082 C 
ATOM      7  C   UNL     1     153.103 166.941 189.707  0.00  0.00    -0.032 C 
ATOM      8  C   UNL     1     152.478 166.319 190.969  0.00  0.00    -0.038 C 
ATOM      9  C   UNL     1     151.146 165.557 190.752  0.00  0.00    -0.020 C 
ATOM     10  C   UNL     1     150.010 166.362 190.086  0.00  0.00    +0.077 C 
ATOM     11  C   UNL     1     148.684 165.686 190.341  0.00  0.00    -0.059 C 
ATOM     12  C   UNL     1     147.634 166.269 190.947  0.00  0.00    -0.082 C 
ATOM     13  C   UNL     1     146.291 165.615 191.191  0.00  0.00    +0.003 C 
ATOM     14  C   UNL     1     145.468 165.207 189.937  0.00  0.00    +0.112 C 
ATOM     15  O   UNL     1     146.141 164.032 189.421  0.00  0.00    -0.458 OA
ATOM     16  C   UNL     1     145.380 162.953 189.108  0.00  0.00    +0.332 C 
ATOM     17  O   UNL     1     144.172 162.933 188.943  0.00  0.00    -0.246 OA
ATOM     18  C   UNL     1     146.218 161.738 189.047  0.00  0.00    +0.022 C 
ATOM     19  C   UNL     1     147.205 161.567 189.939  0.00  0.00    -0.055 C 
ATOM     20  C   UNL     1     148.013 160.385 190.097  0.00  0.00    -0.065 C 
ATOM     21  C   UNL     1     148.708 159.778 189.127  0.00  0.00    -0.081 C 
ATOM     22  C   UNL     1     149.642 158.626 189.421  0.00  0.00    +0.003 C 
ATOM     23  C   UNL     1     151.109 158.854 188.976  0.00  0.00    +0.111 C 
ATOM     24  C   UNL     1     151.732 160.246 189.315  0.00  0.00    +0.020 C 
ATOM     25  C   UNL     1     153.201 160.290 188.808  0.00  0.00    +0.064 C 
ATOM     26  H   UNL     1     154.884 161.448 188.249  0.00  0.00    +0.032 HD
ATOM     27  H   UNL     1     152.499 163.294 188.440  0.00  0.00    +0.027 HD
ATOM     28  H   UNL     1     152.454 162.090 187.185  0.00  0.00    +0.027 HD
ATOM     29  H   UNL     1     154.402 162.832 186.113  0.00  0.00    +0.029 HD
ATOM     30  H   UNL     1     153.275 164.160 186.298  0.00  0.00    +0.029 HD
ATOM     31  H   UNL     1     155.501 164.999 186.568  0.00  0.00    +0.064 HD
ATOM     32  H   UNL     1     152.732 165.583 188.053  0.00  0.00    +0.057 HD
ATOM     33  H   UNL     1     152.402 167.630 189.224  0.00  0.00    +0.031 HD
ATOM     34  H   UNL     1     153.945 167.578 189.992  0.00  0.00    +0.031 HD
ATOM     35  H   UNL     1     153.192 165.584 191.368  0.00  0.00    +0.030 HD
ATOM     36  H   UNL     1     150.811 165.193 191.732  0.00  0.00    +0.030 HD
ATOM     37  H   UNL     1     151.353 164.662 190.149  0.00  0.00    +0.030 HD
ATOM     38  H   UNL     1     150.003 167.386 190.473  0.00  0.00    +0.064 HD
ATOM     39  H   UNL     1     148.604 164.662 189.981  0.00  0.00    +0.059 HD
ATOM     40  H   UNL     1     147.723 167.298 191.290  0.00  0.00    +0.057 HD
ATOM     41  H   UNL     1     145.707 166.291 191.826  0.00  0.00    +0.034 HD
ATOM     42  H   UNL     1     146.468 164.724 191.810  0.00  0.00    +0.034 HD
ATOM     43  H   UNL     1     144.467 164.917 190.284  0.00  0.00    +0.074 HD
ATOM     44  H   UNL     1     145.915 160.973 188.343  0.00  0.00    +0.069 HD
ATOM     45  H   UNL     1     147.394 162.333 190.690  0.00  0.00    +0.062 HD
ATOM     46  H   UNL     1     148.116 160.043 191.128  0.00  0.00    +0.061 HD
ATOM     47  H   UNL     1     148.653 160.115 188.093  0.00  0.00    +0.057 HD
ATOM     48  H   UNL     1     149.238 157.742 188.909  0.00  0.00    +0.034 HD
ATOM     49  H   UNL     1     149.633 158.393 190.492  0.00  0.00    +0.034 HD
ATOM     50  H   UNL     1     151.723 158.090 189.473  0.00  0.00    +0.074 HD
ATOM     51  H   UNL     1     151.163 161.007 188.770  0.00  0.00    +0.036 HD
ATOM     52  H   UNL     1     153.225 159.895 187.787  0.00  0.00    +0.060 HD
ENDROOT
BRANCH   1  53
ATOM     53  C   UNL     1     154.251 162.272 190.096  0.00  0.00    -0.060 C 
ATOM     54  H   UNL     1     153.592 161.875 190.869  0.00  0.00    +0.023 HD
ATOM     55  H   UNL     1     154.126 163.357 190.112  0.00  0.00    +0.023 HD
ATOM     56  H   UNL     1     155.271 162.041 190.407  0.00  0.00    +0.023 HD
ENDBRANCH   1  53
BRANCH   5  57
ATOM     57  C   UNL     1     155.982 165.852 189.318  0.00  0.00    -0.041 C 
ATOM     58  H   UNL     1     155.727 166.456 190.192  0.00  0.00    +0.028 HD
ATOM     59  H   UNL     1     156.531 164.983 189.695  0.00  0.00    +0.028 HD
ATOM     60  H   UNL     1     156.659 166.452 188.700  0.00  0.00    +0.028 HD
ENDBRANCH   5  57
BRANCH  24  61
ATOM     61  C   UNL     1     151.624 160.540 190.818  0.00  0.00    -0.057 C 
ATOM     62  H   UNL     1     150.697 160.139 191.234  0.00  0.00    +0.023 HD
ATOM     63  H   UNL     1     151.663 161.614 191.031  0.00  0.00    +0.023 HD
ATOM     64  H   UNL     1     152.425 160.072 191.394  0.00  0.00    +0.023 HD
ENDBRANCH  24  61
BRANCH   8  65
ATOM     65  C   UNL     1     152.318 167.392 192.053  0.00  0.00    -0.062 C 
ATOM     66  H   UNL     1     151.569 168.139 191.774  0.00  0.00    +0.023 HD
ATOM     67  H   UNL     1     152.015 166.943 193.006  0.00  0.00    +0.023 HD
ATOM     68  H   UNL     1     153.265 167.915 192.221  0.00  0.00    +0.023 HD
ENDBRANCH   8  65
BRANCH  14  69
ATOM     69  C   UNL     1     145.342 166.321 188.864  0.00  0.00    +0.020 C 
ATOM     70  H   UNL     1     145.943 167.173 189.193  0.00  0.00    +0.036 HD
BRANCH  69  71
ATOM     71  C   UNL     1     145.958 165.910 187.516  0.00  0.00    -0.057 C 
ATOM     72  H   UNL     1     146.302 164.870 187.536  0.00  0.00    +0.023 HD
ATOM     73  H   UNL     1     145.227 165.982 186.706  0.00  0.00    +0.023 HD
ATOM     74  H   UNL     1     146.818 166.538 187.265  0.00  0.00    +0.023 HD
ENDBRANCH  69  71
BRANCH  69  75
ATOM     75  C   UNL     1     143.878 166.797 188.625  0.00  0.00    +0.064 C 
ATOM     76  H   UNL     1     143.825 167.180 187.599  0.00  0.00    +0.060 HD
BRANCH  75  77
ATOM     77  C   UNL     1     143.435 167.934 189.592  0.00  0.00    -0.017 C 
ATOM     78  H   UNL     1     142.833 168.640 189.006  0.00  0.00    +0.032 HD
BRANCH  77  79
ATOM     79  C   UNL     1     142.494 167.390 190.677  0.00  0.00    -0.060 C 
ATOM     80  H   UNL     1     142.950 167.406 191.670  0.00  0.00    +0.023 HD
ATOM     81  H   UNL     1     142.219 166.352 190.457  0.00  0.00    +0.023 HD
ATOM     82  H   UNL     1     141.568 167.972 190.717  0.00  0.00    +0.023 HD
ENDBRANCH  77  79
BRANCH  77  83
ATOM     83  C   UNL     1     144.577 168.775 190.228  0.00  0.00    -0.045 C 
ATOM     84  H   UNL     1     145.509 168.216 190.088  0.00  0.00    +0.027 HD
ATOM     85  H   UNL     1     144.426 168.833 191.311  0.00  0.00    +0.027 HD
BRANCH  83  86
ATOM     86  C   UNL     1     144.775 170.201 189.687  0.00  0.00    -0.015 C 
ATOM     87  H   UNL     1     145.380 170.153 188.776  0.00  0.00    +0.030 HD
ATOM     88  H   UNL     1     143.800 170.627 189.435  0.00  0.00    +0.030 HD
BRANCH  86  89
ATOM     89  C   UNL     1     145.457 171.143 190.705  0.00  0.00    +0.109 C 
ATOM     90  H   UNL     1     145.282 170.743 191.712  0.00  0.00    +0.074 HD
BRANCH  89  91
ATOM     91  C   UNL     1     144.871 172.587 190.651  0.00  0.00    +0.031 C 
ATOM     92  H   UNL     1     145.392 173.092 189.826  0.00  0.00    +0.037 HD
BRANCH  91  93
ATOM     93  C   UNL     1     145.152 173.368 191.943  0.00  0.00    -0.056 C 
ATOM     94  H   UNL     1     145.627 174.333 191.736  0.00  0.00    +0.023 HD
ATOM     95  H   UNL     1     145.807 172.805 192.617  0.00  0.00    +0.023 HD
ATOM     96  H   UNL     1     144.231 173.599 192.484  0.00  0.00    +0.023 HD
ENDBRANCH  91  93
BRANCH  91  97
ATOM     97  C   UNL     1     143.340 172.570 190.333  0.00  0.00    +0.115 C 
ATOM     98  H   UNL     1     143.178 171.856 189.515  0.00  0.00    +0.074 HD
BRANCH  97  99
ATOM     99  C   UNL     1     142.449 172.138 191.539  0.00  0.00    +0.013 C 
ATOM    100  H   UNL     1     143.112 171.762 192.327  0.00  0.00    +0.038 HD
BRANCH  99 101
ATOM    101  C   UNL     1     141.507 170.976 191.193  0.00  0.00    -0.056 C 
ATOM    102  H   UNL     1     141.820 170.493 190.259  0.00  0.00    +0.024 HD
ATOM    103  H   UNL     1     141.498 170.204 191.971  0.00  0.00    +0.024 HD
ATOM    104  H   UNL     1     140.483 171.338 191.049  0.00  0.00    +0.024 HD
ENDBRANCH  99 101
BRANCH  99 105
ATOM    105  C   UNL     1     141.621 173.284 192.083  0.00  0.00    -0.064 C 
ATOM    106  C   UNL     1     141.207 173.351 193.357  0.00  0.00    -0.005 C 
ATOM    107  H   UNL     1     141.390 174.075 191.375  0.00  0.00    +0.059 HD
ATOM    108  H   UNL     1     141.450 172.542 194.045  0.00  0.00    +0.078 HD
BRANCH 106 109
ATOM    109  N   UNL     1     140.470 174.386 193.916  0.00  0.00    -0.284 N 
ATOM    110  C   UNL     1     141.123 175.402 194.611  0.00  0.00    +0.206 C 
ATOM    111  O   UNL     1     142.332 175.508 194.790  0.00  0.00    -0.279 OA
ATOM    112  H   UNL     1     140.426 176.156 195.013  0.00  0.00    +0.126 HD
BRANCH 109 113
ATOM    113  C   UNL     1     139.022 174.441 193.783  0.00  0.00    +0.007 C 
ATOM    114  H   UNL     1     138.705 175.486 193.712  0.00  0.00    +0.043 HD
ATOM    115  H   UNL     1     138.684 173.916 192.884  0.00  0.00    +0.043 HD
ATOM    116  H   UNL     1     138.557 173.963 194.653  0.00  0.00    +0.043 HD
ENDBRANCH 109 113
ENDBRANCH 106 109
ENDBRANCH  99 105
ENDBRANCH  97  99
BRANCH  97 117
ATOM    117  O   UNL     1     142.961 173.908 189.910  0.00  0.00    -0.461 OA
BRANCH 117 118
ATOM    118  C   UNL     1     142.726 174.090 188.581  0.00  0.00    +0.304 C 
ATOM    119  O   UNL     1     142.781 173.224 187.721  0.00  0.00    -0.251 OA
BRANCH 118 120
ATOM    120  C   UNL     1     142.332 175.509 188.315  0.00  0.00    +0.033 C 
ATOM    121  H   UNL     1     141.245 175.618 188.376  0.00  0.00    +0.034 HD
ATOM    122  H   UNL     1     142.779 176.154 189.076  0.00  0.00    +0.034 HD
ATOM    123  H   UNL     1     142.699 175.812 187.332  0.00  0.00    +0.034 HD
ENDBRANCH 118 120
ENDBRANCH 117 118
ENDBRANCH  97 117
ENDBRANCH  91  97
ENDBRANCH  89  91
BRANCH  89 124
ATOM    124  O   UNL     1     146.866 171.215 190.404  0.00  0.00    -0.460 OA
BRANCH 124 125
ATOM    125  C   UNL     1     147.744 170.725 191.323  0.00  0.00    +0.324 C 
ATOM    126  O   UNL     1     147.582 169.677 191.943  0.00  0.00    -0.249 OA
BRANCH 125 127
ATOM    127  C   UNL     1     148.944 171.663 191.560  0.00  0.00    +0.105 C 
ATOM    128  H   UNL     1     149.169 172.140 190.596  0.00  0.00    +0.058 HD
BRANCH 127 129
ATOM    129  C   UNL     1     150.123 170.762 191.943  0.00  0.00    -0.039 C 
ATOM    130  H   UNL     1     150.092 170.499 193.005  0.00  0.00    +0.025 HD
ATOM    131  H   UNL     1     150.096 169.832 191.366  0.00  0.00    +0.025 HD
ATOM    132  H   UNL     1     151.088 171.234 191.730  0.00  0.00    +0.025 HD
ENDBRANCH 127 129
BRANCH 127 133
ATOM    133  N   UNL     1     148.650 172.735 192.562  0.00  0.00    -0.296 NA
BRANCH 133 134
ATOM    134  C   UNL     1     148.707 174.066 191.943  0.00  0.00    -0.012 C 
ATOM    135  H   UNL     1     148.083 174.787 192.479  0.00  0.00    +0.039 HD
ATOM    136  H   UNL     1     148.386 174.041 190.895  0.00  0.00    +0.039 HD
ATOM    137  H   UNL     1     149.730 174.461 191.981  0.00  0.00    +0.039 HD
ENDBRANCH 133 134
BRANCH 133 138
ATOM    138  C   UNL     1     149.577 172.700 193.698  0.00  0.00    -0.012 C 
ATOM    139  H   UNL     1     150.617 172.656 193.351  0.00  0.00    +0.039 HD
ATOM    140  H   UNL     1     149.505 173.614 194.299  0.00  0.00    +0.039 HD
ATOM    141  H   UNL     1     149.397 171.834 194.347  0.00  0.00    +0.039 HD
ENDBRANCH 133 138
ENDBRANCH 127 133
ENDBRANCH 125 127
ENDBRANCH 124 125
ENDBRANCH  89 124
ENDBRANCH  86  89
ENDBRANCH  83  86
ENDBRANCH  77  83
ENDBRANCH  75  77
BRANCH  75 142
ATOM    142  O   UNL     1     142.962 165.712 188.664  0.00  0.00    -0.391 OA
ATOM    143  H   UNL     1     142.893 165.344 187.767  0.00  0.00    +0.210 HD
ENDBRANCH  75 142
ENDBRANCH  69  75
ENDBRANCH  14  69
BRANCH  25 144
ATOM    144  O   UNL     1     153.992 159.377 189.582  0.00  0.00    -0.391 OA
ATOM    145  H   UNL     1     153.393 158.897 190.177  0.00  0.00    +0.210 HD
ENDBRANCH  25 144
BRANCH  23 146
ATOM    146  O   UNL     1     151.153 158.662 187.535  0.00  0.00    -0.460 OA
BRANCH 146 147
ATOM    147  C   UNL     1     151.385 157.377 187.122  0.00  0.00    +0.327 C 
ATOM    148  O   UNL     1     150.519 156.612 186.704  0.00  0.00    -0.249 OA
BRANCH 147 149
ATOM    149  C   UNL     1     152.868 157.011 187.285  0.00  0.00    +0.131 C 
ATOM    150  H   UNL     1     153.305 157.714 188.006  0.00  0.00    +0.060 HD
BRANCH 149 151
ATOM    151  C   UNL     1     153.568 157.269 185.939  0.00  0.00    +0.073 C 
ATOM    152  H   UNL     1     154.169 156.396 185.659  0.00  0.00    +0.058 HD
ATOM    153  H   UNL     1     152.847 157.466 185.138  0.00  0.00    +0.058 HD
BRANCH 151 154
ATOM    154  O   UNL     1     154.458 158.385 186.083  0.00  0.00    -0.381 OA
BRANCH 154 155
ATOM    155  C   UNL     1     154.033 159.496 185.305  0.00  0.00    +0.037 C 
ATOM    156  H   UNL     1     153.993 159.233 184.244  0.00  0.00    +0.052 HD
ATOM    157  H   UNL     1     154.757 160.306 185.436  0.00  0.00    +0.052 HD
ATOM    158  H   UNL     1     153.055 159.850 185.643  0.00  0.00    +0.052 HD
ENDBRANCH 154 155
ENDBRANCH 151 154
ENDBRANCH 149 151
BRANCH 149 159
ATOM    159  N   UNL     1     153.089 155.606 187.752  0.00  0.00    -0.294 NA
BRANCH 159 160
ATOM    160  C   UNL     1     153.599 154.758 186.678  0.00  0.00    -0.012 C 
ATOM    161  H   UNL     1     152.935 154.725 185.810  0.00  0.00    +0.039 HD
ATOM    162  H   UNL     1     153.747 153.740 187.044  0.00  0.00    +0.039 HD
ATOM    163  H   UNL     1     154.582 155.103 186.339  0.00  0.00    +0.039 HD
ENDBRANCH 159 160
BRANCH 159 164
ATOM    164  C   UNL     1     153.933 155.506 188.943  0.00  0.00    -0.012 C 
ATOM    165  H   UNL     1     153.798 156.352 189.626  0.00  0.00    +0.039 HD
ATOM    166  H   UNL     1     154.990 155.480 188.657  0.00  0.00    +0.039 HD
ATOM    167  H   UNL     1     153.741 154.580 189.491  0.00  0.00    +0.039 HD
ENDBRANCH 159 164
ENDBRANCH 149 159
ENDBRANCH 147 149
ENDBRANCH 146 147
ENDBRANCH  23 146
BRANCH   4 168
ATOM    168  O   UNL     1     156.167 163.535 187.866  0.00  0.00    -0.376 OA
BRANCH 168 169
ATOM    169  C   UNL     1     156.961 163.004 186.812  0.00  0.00    +0.037 C 
ATOM    170  H   UNL     1     157.721 163.745 186.553  0.00  0.00    +0.052 HD
ATOM    171  H   UNL     1     156.338 162.820 185.933  0.00  0.00    +0.052 HD
ATOM    172  H   UNL     1     157.463 162.083 187.122  0.00  0.00    +0.052 HD
ENDBRANCH 168 169
ENDBRANCH   4 168
BRANCH  10 173
ATOM    173  O   UNL     1     150.249 166.377 188.675  0.00  0.00    -0.376 OA
BRANCH 173 174
ATOM    174  C   UNL     1     149.906 165.154 188.030  0.00  0.00    +0.037 C 
ATOM    175  H   UNL     1     148.941 165.289 187.535  0.00  0.00    +0.052 HD
ATOM    176  H   UNL     1     150.647 164.900 187.268  0.00  0.00    +0.052 HD
ATOM    177  H   UNL     1     149.813 164.341 188.758  0.00  0.00    +0.052 HD
ENDBRANCH 173 174
ENDBRANCH  10 173
TORSDOF 45
ENDMDL
MODEL 7
REMARK VINA RESULT:      -5.2     10.975     20.739
REMARK  Name = Aplyronine A_conf1
REMARK  45 active torsions:
REMARK  status: ('A' for Active; 'I' for Inactive)
REMARK    1  A    between atoms: C_1  and  C_2
REMARK    2  A    between atoms: C_5  and  O_75
REMARK    3  A    between atoms: C_6  and  C_74
REMARK    4  A    between atoms: C_9  and  C_73
REMARK    5  A    between atoms: C_11  and  O_71
REMARK    6  A    between atoms: C_15  and  C_39
REMARK    7  A    between atoms: C_24  and  O_29
REMARK    8  A    between atoms: C_25  and  C_28
REMARK    9  A    between atoms: C_26  and  O_27
REMARK   10  A    between atoms: O_29  and  C_30
REMARK   11  A    between atoms: C_30  and  C_32
REMARK   12  A    between atoms: C_32  and  C_33
REMARK   13  A    between atoms: C_32  and  N_36
REMARK   14  A    between atoms: C_33  and  O_34
REMARK   15  A    between atoms: O_34  and  C_35
REMARK   16  A    between atoms: N_36  and  C_37
REMARK   17  A    between atoms: N_36  and  C_38
REMARK   18  A    between atoms: C_39  and  C_40
REMARK   19  A    between atoms: C_39  and  C_41
REMARK   20  A    between atoms: C_41  and  C_42
REMARK   21  A    between atoms: C_41  and  O_70
REMARK   22  A    between atoms: C_42  and  C_43
REMARK   23  A    between atoms: C_42  and  C_44
REMARK   24  A    between atoms: C_44  and  C_45
REMARK   25  A    between atoms: C_45  and  C_46
REMARK   26  A    between atoms: C_46  and  C_47
REMARK   27  A    between atoms: C_46  and  O_62
REMARK   28  A    between atoms: C_47  and  C_48
REMARK   29  A    between atoms: C_47  and  C_49
REMARK   30  A    between atoms: C_49  and  C_50
REMARK   31  A    between atoms: C_49  and  O_58
REMARK   32  A    between atoms: C_50  and  C_51
REMARK   33  A    between atoms: C_50  and  C_52
REMARK   34  A    between atoms: C_53  and  N_54
REMARK   35  A    between atoms: N_54  and  C_55
REMARK   36  A    between atoms: O_58  and  C_59
REMARK   37  A    between atoms: C_59  and  C_61
REMARK   38  A    between atoms: O_62  and  C_63
REMARK   39  A    between atoms: C_63  and  C_65
REMARK   40  A    between atoms: C_65  and  C_66
REMARK   41  A    between atoms: C_65  and  N_67
REMARK   42  A    between atoms: N_67  and  C_68
REMARK   43  A    between atoms: N_67  and  C_69
REMARK   44  A    between atoms: O_71  and  C_72
REMARK   45  A    between atoms: O_75  and  C_76
REMARK                            x       y       z     vdW  Elec       q    Type
REMARK                         _______ _______ _______ _____ _____    ______ ____
ROOT
ATOM      1  C   UNL     1     142.304 173.745 191.817  0.00  0.00    -0.017 C 
ATOM      2  C   UNL     1     143.002 175.112 191.670  0.00  0.00    -0.045 C 
ATOM      3  C   UNL     1     142.959 176.055 192.891  0.00  0.00    -0.022 C 
ATOM      4  C   UNL     1     141.597 176.443 193.504  0.00  0.00    +0.079 C 
ATOM      5  C   UNL     1     140.545 177.083 192.592  0.00  0.00    -0.048 C 
ATOM      6  C   UNL     1     140.860 177.737 191.452  0.00  0.00    -0.082 C 
ATOM      7  C   UNL     1     139.927 178.439 190.500  0.00  0.00    -0.032 C 
ATOM      8  C   UNL     1     139.547 177.579 189.280  0.00  0.00    -0.038 C 
ATOM      9  C   UNL     1     140.712 177.228 188.318  0.00  0.00    -0.020 C 
ATOM     10  C   UNL     1     141.498 178.427 187.746  0.00  0.00    +0.077 C 
ATOM     11  C   UNL     1     142.268 177.998 186.521  0.00  0.00    -0.059 C 
ATOM     12  C   UNL     1     142.136 178.553 185.303  0.00  0.00    -0.082 C 
ATOM     13  C   UNL     1     142.915 178.152 184.069  0.00  0.00    +0.003 C 
ATOM     14  C   UNL     1     144.455 178.364 184.108  0.00  0.00    +0.112 C 
ATOM     15  O   UNL     1     144.949 177.313 184.975  0.00  0.00    -0.458 OA
ATOM     16  C   UNL     1     146.009 176.584 184.544  0.00  0.00    +0.332 C 
ATOM     17  O   UNL     1     146.778 176.872 183.642  0.00  0.00    -0.246 OA
ATOM     18  C   UNL     1     146.089 175.311 185.289  0.00  0.00    +0.022 C 
ATOM     19  C   UNL     1     144.963 174.651 185.600  0.00  0.00    -0.055 C 
ATOM     20  C   UNL     1     144.881 173.342 186.196  0.00  0.00    -0.065 C 
ATOM     21  C   UNL     1     145.485 172.960 187.328  0.00  0.00    -0.081 C 
ATOM     22  C   UNL     1     145.221 171.607 187.950  0.00  0.00    +0.003 C 
ATOM     23  C   UNL     1     144.695 171.658 189.408  0.00  0.00    +0.111 C 
ATOM     24  C   UNL     1     143.566 172.696 189.705  0.00  0.00    +0.020 C 
ATOM     25  C   UNL     1     143.157 172.597 191.202  0.00  0.00    +0.064 C 
ATOM     26  H   UNL     1     142.239 173.496 192.885  0.00  0.00    +0.032 HD
ATOM     27  H   UNL     1     142.629 175.630 190.781  0.00  0.00    +0.027 HD
ATOM     28  H   UNL     1     144.070 174.948 191.476  0.00  0.00    +0.027 HD
ATOM     29  H   UNL     1     143.562 175.578 193.675  0.00  0.00    +0.029 HD
ATOM     30  H   UNL     1     143.497 176.974 192.619  0.00  0.00    +0.029 HD
ATOM     31  H   UNL     1     141.792 177.191 194.286  0.00  0.00    +0.064 HD
ATOM     32  H   UNL     1     141.902 177.815 191.154  0.00  0.00    +0.057 HD
ATOM     33  H   UNL     1     140.390 179.379 190.184  0.00  0.00    +0.031 HD
ATOM     34  H   UNL     1     139.019 178.754 191.021  0.00  0.00    +0.031 HD
ATOM     35  H   UNL     1     139.158 176.621 189.655  0.00  0.00    +0.030 HD
ATOM     36  H   UNL     1     140.291 176.639 187.493  0.00  0.00    +0.030 HD
ATOM     37  H   UNL     1     141.407 176.562 188.846  0.00  0.00    +0.030 HD
ATOM     38  H   UNL     1     140.808 179.243 187.504  0.00  0.00    +0.064 HD
ATOM     39  H   UNL     1     142.983 177.192 186.677  0.00  0.00    +0.059 HD
ATOM     40  H   UNL     1     141.427 179.368 185.165  0.00  0.00    +0.057 HD
ATOM     41  H   UNL     1     142.479 178.685 183.216  0.00  0.00    +0.034 HD
ATOM     42  H   UNL     1     142.704 177.090 183.879  0.00  0.00    +0.034 HD
ATOM     43  H   UNL     1     144.834 178.192 183.092  0.00  0.00    +0.074 HD
ATOM     44  H   UNL     1     147.080 174.904 185.451  0.00  0.00    +0.069 HD
ATOM     45  H   UNL     1     143.997 175.068 185.317  0.00  0.00    +0.062 HD
ATOM     46  H   UNL     1     144.183 172.665 185.702  0.00  0.00    +0.061 HD
ATOM     47  H   UNL     1     146.161 173.625 187.863  0.00  0.00    +0.057 HD
ATOM     48  H   UNL     1     146.167 171.049 187.922  0.00  0.00    +0.034 HD
ATOM     49  H   UNL     1     144.510 171.040 187.340  0.00  0.00    +0.034 HD
ATOM     50  H   UNL     1     144.296 170.662 189.644  0.00  0.00    +0.074 HD
ATOM     51  H   UNL     1     143.979 173.696 189.532  0.00  0.00    +0.036 HD
ATOM     52  H   UNL     1     144.070 172.568 191.807  0.00  0.00    +0.060 HD
ENDROOT
BRANCH   1  53
ATOM     53  C   UNL     1     140.857 173.775 191.303  0.00  0.00    -0.060 C 
ATOM     54  H   UNL     1     140.786 174.317 190.360  0.00  0.00    +0.023 HD
ATOM     55  H   UNL     1     140.182 174.278 191.999  0.00  0.00    +0.023 HD
ATOM     56  H   UNL     1     140.469 172.772 191.116  0.00  0.00    +0.023 HD
ENDBRANCH   1  53
BRANCH   5  57
ATOM     57  C   UNL     1     139.130 176.964 193.110  0.00  0.00    -0.041 C 
ATOM     58  H   UNL     1     139.020 176.258 193.937  0.00  0.00    +0.028 HD
ATOM     59  H   UNL     1     138.770 177.930 193.479  0.00  0.00    +0.028 HD
ATOM     60  H   UNL     1     138.463 176.626 192.309  0.00  0.00    +0.028 HD
ENDBRANCH   5  57
BRANCH  24  61
ATOM     61  C   UNL     1     142.374 172.491 188.759  0.00  0.00    -0.057 C 
ATOM     62  H   UNL     1     141.583 171.911 189.240  0.00  0.00    +0.023 HD
ATOM     63  H   UNL     1     142.666 171.979 187.835  0.00  0.00    +0.023 HD
ATOM     64  H   UNL     1     141.905 173.432 188.467  0.00  0.00    +0.023 HD
ENDBRANCH  24  61
BRANCH   8  65
ATOM     65  C   UNL     1     138.394 178.240 188.516  0.00  0.00    -0.062 C 
ATOM     66  H   UNL     1     138.717 178.609 187.538  0.00  0.00    +0.023 HD
ATOM     67  H   UNL     1     137.572 177.532 188.359  0.00  0.00    +0.023 HD
ATOM     68  H   UNL     1     137.995 179.090 189.079  0.00  0.00    +0.023 HD
ENDBRANCH   8  65
BRANCH  14  69
ATOM     69  C   UNL     1     144.894 179.771 184.594  0.00  0.00    +0.020 C 
ATOM     70  H   UNL     1     144.009 180.411 184.611  0.00  0.00    +0.036 HD
BRANCH  69  71
ATOM     71  C   UNL     1     145.394 179.760 186.048  0.00  0.00    -0.057 C 
ATOM     72  H   UNL     1     144.657 179.304 186.719  0.00  0.00    +0.023 HD
ATOM     73  H   UNL     1     146.314 179.176 186.149  0.00  0.00    +0.023 HD
ATOM     74  H   UNL     1     145.585 180.775 186.409  0.00  0.00    +0.023 HD
ENDBRANCH  69  71
BRANCH  69  75
ATOM     75  C   UNL     1     145.979 180.432 183.693  0.00  0.00    +0.064 C 
ATOM     76  H   UNL     1     146.906 180.475 184.279  0.00  0.00    +0.060 HD
BRANCH  75  77
ATOM     77  C   UNL     1     145.615 181.881 183.253  0.00  0.00    -0.017 C 
ATOM     78  H   UNL     1     145.827 181.955 182.179  0.00  0.00    +0.032 HD
BRANCH  77  79
ATOM     79  C   UNL     1     144.107 182.129 183.395  0.00  0.00    -0.060 C 
ATOM     80  H   UNL     1     143.631 182.364 182.439  0.00  0.00    +0.023 HD
ATOM     81  H   UNL     1     143.922 182.972 184.071  0.00  0.00    +0.023 HD
ATOM     82  H   UNL     1     143.606 181.253 183.819  0.00  0.00    +0.023 HD
ENDBRANCH  77  79
BRANCH  77  83
ATOM     83  C   UNL     1     146.426 183.024 183.926  0.00  0.00    -0.045 C 
ATOM     84  H   UNL     1     145.856 183.355 184.801  0.00  0.00    +0.027 HD
ATOM     85  H   UNL     1     146.464 183.887 183.253  0.00  0.00    +0.027 HD
BRANCH  83  86
ATOM     86  C   UNL     1     147.860 182.691 184.372  0.00  0.00    -0.015 C 
ATOM     87  H   UNL     1     147.978 181.603 184.400  0.00  0.00    +0.030 HD
ATOM     88  H   UNL     1     148.565 183.099 183.644  0.00  0.00    +0.030 HD
BRANCH  86  89
ATOM     89  C   UNL     1     148.211 183.279 185.758  0.00  0.00    +0.109 C 
ATOM     90  H   UNL     1     148.614 182.471 186.381  0.00  0.00    +0.074 HD
BRANCH  89  91
ATOM     91  C   UNL     1     146.960 183.867 186.479  0.00  0.00    +0.031 C 
ATOM     92  H   UNL     1     146.098 183.602 185.849  0.00  0.00    +0.037 HD
BRANCH  91  93
ATOM     93  C   UNL     1     147.024 185.398 186.583  0.00  0.00    -0.056 C 
ATOM     94  H   UNL     1     147.491 185.843 185.698  0.00  0.00    +0.023 HD
ATOM     95  H   UNL     1     147.593 185.715 187.463  0.00  0.00    +0.023 HD
ATOM     96  H   UNL     1     146.027 185.840 186.649  0.00  0.00    +0.023 HD
ENDBRANCH  91  93
BRANCH  91  97
ATOM     97  C   UNL     1     146.758 183.222 187.889  0.00  0.00    +0.115 C 
ATOM     98  H   UNL     1     147.104 183.947 188.639  0.00  0.00    +0.074 HD
BRANCH  97  99
ATOM     99  C   UNL     1     145.275 182.859 188.213  0.00  0.00    +0.013 C 
ATOM    100  H   UNL     1     145.229 181.780 188.404  0.00  0.00    +0.038 HD
BRANCH  99 101
ATOM    101  C   UNL     1     144.331 183.117 187.030  0.00  0.00    -0.056 C 
ATOM    102  H   UNL     1     144.359 182.277 186.326  0.00  0.00    +0.024 HD
ATOM    103  H   UNL     1     143.290 183.239 187.350  0.00  0.00    +0.024 HD
ATOM    104  H   UNL     1     144.634 184.015 186.482  0.00  0.00    +0.024 HD
ENDBRANCH  99 101
BRANCH  99 105
ATOM    105  C   UNL     1     144.750 183.606 189.421  0.00  0.00    -0.064 C 
ATOM    106  C   UNL     1     145.526 184.364 190.210  0.00  0.00    -0.005 C 
ATOM    107  H   UNL     1     143.685 183.507 189.608  0.00  0.00    +0.059 HD
ATOM    108  H   UNL     1     146.592 184.442 190.001  0.00  0.00    +0.078 HD
BRANCH 106 109
ATOM    109  N   UNL     1     145.096 185.089 191.313  0.00  0.00    -0.284 N 
ATOM    110  C   UNL     1     146.020 185.499 192.273  0.00  0.00    +0.206 C 
ATOM    111  O   UNL     1     147.230 185.299 192.259  0.00  0.00    -0.279 OA
ATOM    112  H   UNL     1     145.550 186.057 193.101  0.00  0.00    +0.126 HD
BRANCH 109 113
ATOM    113  C   UNL     1     143.696 185.442 191.486  0.00  0.00    +0.007 C 
ATOM    114  H   UNL     1     143.510 185.679 192.539  0.00  0.00    +0.043 HD
ATOM    115  H   UNL     1     143.428 186.317 190.884  0.00  0.00    +0.043 HD
ATOM    116  H   UNL     1     143.065 184.604 191.171  0.00  0.00    +0.043 HD
ENDBRANCH 109 113
ENDBRANCH 106 109
ENDBRANCH  99 105
ENDBRANCH  97  99
BRANCH  97 117
ATOM    117  O   UNL     1     147.572 182.019 187.946  0.00  0.00    -0.461 OA
BRANCH 117 118
ATOM    118  C   UNL     1     147.869 181.535 189.184  0.00  0.00    +0.304 C 
ATOM    119  O   UNL     1     147.543 180.440 189.620  0.00  0.00    -0.251 OA
BRANCH 118 120
ATOM    120  C   UNL     1     148.709 182.519 189.938  0.00  0.00    +0.033 C 
ATOM    121  H   UNL     1     148.131 182.961 190.755  0.00  0.00    +0.034 HD
ATOM    122  H   UNL     1     149.567 182.000 190.373  0.00  0.00    +0.034 HD
ATOM    123  H   UNL     1     149.069 183.291 189.254  0.00  0.00    +0.034 HD
ENDBRANCH 118 120
ENDBRANCH 117 118
ENDBRANCH  97 117
ENDBRANCH  91  97
ENDBRANCH  89  91
BRANCH  89 124
ATOM    124  O   UNL     1     149.173 184.340 185.584  0.00  0.00    -0.460 OA
BRANCH 124 125
ATOM    125  C   UNL     1     150.280 184.338 186.379  0.00  0.00    +0.324 C 
ATOM    126  O   UNL     1     150.796 183.324 186.841  0.00  0.00    -0.249 OA
BRANCH 125 127
ATOM    127  C   UNL     1     150.786 185.759 186.699  0.00  0.00    +0.105 C 
ATOM    128  H   UNL     1     151.883 185.723 186.649  0.00  0.00    +0.058 HD
BRANCH 127 129
ATOM    129  C   UNL     1     150.375 186.044 188.147  0.00  0.00    -0.039 C 
ATOM    130  H   UNL     1     149.473 186.662 188.188  0.00  0.00    +0.025 HD
ATOM    131  H   UNL     1     150.163 185.108 188.676  0.00  0.00    +0.025 HD
ATOM    132  H   UNL     1     151.168 186.547 188.709  0.00  0.00    +0.025 HD
ENDBRANCH 127 129
BRANCH 127 133
ATOM    133  N   UNL     1     150.300 186.780 185.719  0.00  0.00    -0.296 NA
BRANCH 133 134
ATOM    134  C   UNL     1     151.369 187.172 184.791  0.00  0.00    -0.012 C 
ATOM    135  H   UNL     1     152.030 187.923 185.232  0.00  0.00    +0.039 HD
ATOM    136  H   UNL     1     150.967 187.572 183.853  0.00  0.00    +0.039 HD
ATOM    137  H   UNL     1     152.004 186.309 184.555  0.00  0.00    +0.039 HD
ENDBRANCH 133 134
BRANCH 133 138
ATOM    138  C   UNL     1     149.783 187.981 186.382  0.00  0.00    -0.012 C 
ATOM    139  H   UNL     1     148.755 188.192 186.061  0.00  0.00    +0.039 HD
ATOM    140  H   UNL     1     149.731 187.845 187.469  0.00  0.00    +0.039 HD
ATOM    141  H   UNL     1     150.397 188.864 186.165  0.00  0.00    +0.039 HD
ENDBRANCH 133 138
ENDBRANCH 127 133
ENDBRANCH 125 127
ENDBRANCH 124 125
ENDBRANCH  89 124
ENDBRANCH  86  89
ENDBRANCH  83  86
ENDBRANCH  77  83
ENDBRANCH  75  77
BRANCH  75 142
ATOM    142  O   UNL     1     146.290 179.623 182.567  0.00  0.00    -0.391 OA
ATOM    143  H   UNL     1     145.454 179.301 182.189  0.00  0.00    +0.210 HD
ENDBRANCH  75 142
ENDBRANCH  69  75
ENDBRANCH  14  69
BRANCH  25 144
ATOM    144  O   UNL     1     142.514 171.335 191.430  0.00  0.00    -0.391 OA
ATOM    145  H   UNL     1     142.735 171.048 192.331  0.00  0.00    +0.210 HD
ENDBRANCH  25 144
BRANCH  23 146
ATOM    146  O   UNL     1     145.835 171.950 190.263  0.00  0.00    -0.460 OA
BRANCH 146 147
ATOM    147  C   UNL     1     146.452 170.856 190.810  0.00  0.00    +0.327 C 
ATOM    148  O   UNL     1     145.926 169.754 190.945  0.00  0.00    -0.249 OA
BRANCH 147 149
ATOM    149  C   UNL     1     147.879 171.203 191.260  0.00  0.00    +0.131 C 
ATOM    150  H   UNL     1     148.510 171.236 190.362  0.00  0.00    +0.060 HD
BRANCH 149 151
ATOM    151  C   UNL     1     148.399 170.037 192.120  0.00  0.00    +0.073 C 
ATOM    152  H   UNL     1     148.710 170.409 193.103  0.00  0.00    +0.058 HD
ATOM    153  H   UNL     1     147.633 169.268 192.266  0.00  0.00    +0.058 HD
BRANCH 151 154
ATOM    154  O   UNL     1     149.552 169.466 191.484  0.00  0.00    -0.381 OA
BRANCH 154 155
ATOM    155  C   UNL     1     149.824 168.159 191.971  0.00  0.00    +0.037 C 
ATOM    156  H   UNL     1     150.273 167.540 191.189  0.00  0.00    +0.052 HD
ATOM    157  H   UNL     1     148.878 167.702 192.277  0.00  0.00    +0.052 HD
ATOM    158  H   UNL     1     150.483 168.203 192.843  0.00  0.00    +0.052 HD
ENDBRANCH 154 155
ENDBRANCH 151 154
ENDBRANCH 149 151
BRANCH 149 159
ATOM    159  N   UNL     1     147.975 172.504 191.994  0.00  0.00    -0.294 NA
BRANCH 159 160
ATOM    160  C   UNL     1     148.488 172.319 193.349  0.00  0.00    -0.012 C 
ATOM    161  H   UNL     1     147.936 171.563 193.913  0.00  0.00    +0.039 HD
ATOM    162  H   UNL     1     148.448 173.263 193.895  0.00  0.00    +0.039 HD
ATOM    163  H   UNL     1     149.543 172.025 193.332  0.00  0.00    +0.039 HD
ENDBRANCH 159 160
BRANCH 159 164
ATOM    164  C   UNL     1     148.738 173.529 191.281  0.00  0.00    -0.012 C 
ATOM    165  H   UNL     1     149.805 173.505 191.526  0.00  0.00    +0.039 HD
ATOM    166  H   UNL     1     148.363 174.526 191.537  0.00  0.00    +0.039 HD
ATOM    167  H   UNL     1     148.625 173.428 190.197  0.00  0.00    +0.039 HD
ENDBRANCH 159 164
ENDBRANCH 149 159
ENDBRANCH 147 149
ENDBRANCH 146 147
ENDBRANCH  23 146
BRANCH   4 168
ATOM    168  O   UNL     1     141.035 175.275 194.124  0.00  0.00    -0.376 OA
BRANCH 168 169
ATOM    169  C   UNL     1     141.404 175.129 195.490  0.00  0.00    +0.037 C 
ATOM    170  H   UNL     1     142.422 175.510 195.609  0.00  0.00    +0.052 HD
ATOM    171  H   UNL     1     141.393 174.072 195.768  0.00  0.00    +0.052 HD
ATOM    172  H   UNL     1     140.740 175.702 196.142  0.00  0.00    +0.052 HD
ENDBRANCH 168 169
ENDBRANCH   4 168
BRANCH  10 173
ATOM    173  O   UNL     1     142.430 178.859 188.742  0.00  0.00    -0.376 OA
BRANCH 173 174
ATOM    174  C   UNL     1     142.627 180.269 188.760  0.00  0.00    +0.037 C 
ATOM    175  H   UNL     1     142.303 180.647 189.733  0.00  0.00    +0.052 HD
ATOM    176  H   UNL     1     143.685 180.512 188.634  0.00  0.00    +0.052 HD
ATOM    177  H   UNL     1     142.028 180.757 187.983  0.00  0.00    +0.052 HD
ENDBRANCH 173 174
ENDBRANCH  10 173
TORSDOF 45
ENDMDL
MODEL 8
REMARK VINA RESULT:      -5.1      5.056     10.032
REMARK  Name = Aplyronine A_conf1
REMARK  45 active torsions:
REMARK  status: ('A' for Active; 'I' for Inactive)
REMARK    1  A    between atoms: C_1  and  C_2
REMARK    2  A    between atoms: C_5  and  O_75
REMARK    3  A    between atoms: C_6  and  C_74
REMARK    4  A    between atoms: C_9  and  C_73
REMARK    5  A    between atoms: C_11  and  O_71
REMARK    6  A    between atoms: C_15  and  C_39
REMARK    7  A    between atoms: C_24  and  O_29
REMARK    8  A    between atoms: C_25  and  C_28
REMARK    9  A    between atoms: C_26  and  O_27
REMARK   10  A    between atoms: O_29  and  C_30
REMARK   11  A    between atoms: C_30  and  C_32
REMARK   12  A    between atoms: C_32  and  C_33
REMARK   13  A    between atoms: C_32  and  N_36
REMARK   14  A    between atoms: C_33  and  O_34
REMARK   15  A    between atoms: O_34  and  C_35
REMARK   16  A    between atoms: N_36  and  C_37
REMARK   17  A    between atoms: N_36  and  C_38
REMARK   18  A    between atoms: C_39  and  C_40
REMARK   19  A    between atoms: C_39  and  C_41
REMARK   20  A    between atoms: C_41  and  C_42
REMARK   21  A    between atoms: C_41  and  O_70
REMARK   22  A    between atoms: C_42  and  C_43
REMARK   23  A    between atoms: C_42  and  C_44
REMARK   24  A    between atoms: C_44  and  C_45
REMARK   25  A    between atoms: C_45  and  C_46
REMARK   26  A    between atoms: C_46  and  C_47
REMARK   27  A    between atoms: C_46  and  O_62
REMARK   28  A    between atoms: C_47  and  C_48
REMARK   29  A    between atoms: C_47  and  C_49
REMARK   30  A    between atoms: C_49  and  C_50
REMARK   31  A    between atoms: C_49  and  O_58
REMARK   32  A    between atoms: C_50  and  C_51
REMARK   33  A    between atoms: C_50  and  C_52
REMARK   34  A    between atoms: C_53  and  N_54
REMARK   35  A    between atoms: N_54  and  C_55
REMARK   36  A    between atoms: O_58  and  C_59
REMARK   37  A    between atoms: C_59  and  C_61
REMARK   38  A    between atoms: O_62  and  C_63
REMARK   39  A    between atoms: C_63  and  C_65
REMARK   40  A    between atoms: C_65  and  C_66
REMARK   41  A    between atoms: C_65  and  N_67
REMARK   42  A    between atoms: N_67  and  C_68
REMARK   43  A    between atoms: N_67  and  C_69
REMARK   44  A    between atoms: O_71  and  C_72
REMARK   45  A    between atoms: O_75  and  C_76
REMARK                            x       y       z     vdW  Elec       q    Type
REMARK                         _______ _______ _______ _____ _____    ______ ____
ROOT
ATOM      1  C   UNL     1     153.945 161.670 188.737  0.00  0.00    -0.017 C 
ATOM      2  C   UNL     1     153.172 162.620 187.799  0.00  0.00    -0.045 C 
ATOM      3  C   UNL     1     154.010 163.475 186.825  0.00  0.00    -0.022 C 
ATOM      4  C   UNL     1     155.122 164.391 187.382  0.00  0.00    +0.079 C 
ATOM      5  C   UNL     1     154.745 165.427 188.447  0.00  0.00    -0.048 C 
ATOM      6  C   UNL     1     153.490 165.904 188.597  0.00  0.00    -0.082 C 
ATOM      7  C   UNL     1     153.007 166.947 189.572  0.00  0.00    -0.032 C 
ATOM      8  C   UNL     1     152.364 166.344 190.834  0.00  0.00    -0.038 C 
ATOM      9  C   UNL     1     151.052 165.550 190.605  0.00  0.00    -0.020 C 
ATOM     10  C   UNL     1     149.917 166.316 189.893  0.00  0.00    +0.077 C 
ATOM     11  C   UNL     1     148.598 165.621 190.134  0.00  0.00    -0.059 C 
ATOM     12  C   UNL     1     147.524 166.198 190.701  0.00  0.00    -0.082 C 
ATOM     13  C   UNL     1     146.188 165.524 190.930  0.00  0.00    +0.003 C 
ATOM     14  C   UNL     1     145.402 165.069 189.667  0.00  0.00    +0.112 C 
ATOM     15  O   UNL     1     146.110 163.895 189.196  0.00  0.00    -0.458 OA
ATOM     16  C   UNL     1     145.377 162.795 188.892  0.00  0.00    +0.332 C 
ATOM     17  O   UNL     1     144.174 162.747 188.700  0.00  0.00    -0.246 OA
ATOM     18  C   UNL     1     146.240 161.595 188.881  0.00  0.00    +0.022 C 
ATOM     19  C   UNL     1     147.208 161.465 189.800  0.00  0.00    -0.055 C 
ATOM     20  C   UNL     1     148.035 160.304 190.006  0.00  0.00    -0.065 C 
ATOM     21  C   UNL     1     148.764 159.687 189.067  0.00  0.00    -0.081 C 
ATOM     22  C   UNL     1     149.712 158.561 189.411  0.00  0.00    +0.003 C 
ATOM     23  C   UNL     1     151.185 158.807 188.995  0.00  0.00    +0.111 C 
ATOM     24  C   UNL     1     151.773 160.218 189.313  0.00  0.00    +0.020 C 
ATOM     25  C   UNL     1     153.253 160.279 188.840  0.00  0.00    +0.064 C 
ATOM     26  H   UNL     1     154.926 161.456 188.292  0.00  0.00    +0.032 HD
ATOM     27  H   UNL     1     152.502 163.258 188.381  0.00  0.00    +0.027 HD
ATOM     28  H   UNL     1     152.510 162.025 187.156  0.00  0.00    +0.027 HD
ATOM     29  H   UNL     1     154.468 162.778 186.112  0.00  0.00    +0.029 HD
ATOM     30  H   UNL     1     153.312 164.088 186.237  0.00  0.00    +0.029 HD
ATOM     31  H   UNL     1     155.515 164.976 186.538  0.00  0.00    +0.064 HD
ATOM     32  H   UNL     1     152.701 165.542 187.944  0.00  0.00    +0.057 HD
ATOM     33  H   UNL     1     152.305 167.610 189.056  0.00  0.00    +0.031 HD
ATOM     34  H   UNL     1     153.829 167.607 189.860  0.00  0.00    +0.031 HD
ATOM     35  H   UNL     1     153.082 165.632 191.267  0.00  0.00    +0.030 HD
ATOM     36  H   UNL     1     150.701 165.204 191.585  0.00  0.00    +0.030 HD
ATOM     37  H   UNL     1     151.291 164.646 190.030  0.00  0.00    +0.030 HD
ATOM     38  H   UNL     1     149.882 167.349 190.254  0.00  0.00    +0.064 HD
ATOM     39  H   UNL     1     148.547 164.587 189.797  0.00  0.00    +0.059 HD
ATOM     40  H   UNL     1     147.585 167.237 191.020  0.00  0.00    +0.057 HD
ATOM     41  H   UNL     1     145.576 166.203 191.534  0.00  0.00    +0.034 HD
ATOM     42  H   UNL     1     146.367 164.652 191.574  0.00  0.00    +0.034 HD
ATOM     43  H   UNL     1     144.399 164.768 189.998  0.00  0.00    +0.074 HD
ATOM     44  H   UNL     1     145.968 160.807 188.189  0.00  0.00    +0.069 HD
ATOM     45  H   UNL     1     147.365 162.253 190.536  0.00  0.00    +0.062 HD
ATOM     46  H   UNL     1     148.119 159.989 191.047  0.00  0.00    +0.061 HD
ATOM     47  H   UNL     1     148.727 159.998 188.024  0.00  0.00    +0.057 HD
ATOM     48  H   UNL     1     149.337 157.657 188.912  0.00  0.00    +0.034 HD
ATOM     49  H   UNL     1     149.682 158.354 190.487  0.00  0.00    +0.034 HD
ATOM     50  H   UNL     1     151.801 158.067 189.525  0.00  0.00    +0.074 HD
ATOM     51  H   UNL     1     151.203 160.955 188.737  0.00  0.00    +0.036 HD
ATOM     52  H   UNL     1     153.308 159.860 187.829  0.00  0.00    +0.060 HD
ENDROOT
BRANCH   1  53
ATOM     53  C   UNL     1     154.233 162.312 190.102  0.00  0.00    -0.060 C 
ATOM     54  H   UNL     1     154.196 163.400 190.040  0.00  0.00    +0.023 HD
ATOM     55  H   UNL     1     155.229 162.059 190.475  0.00  0.00    +0.023 HD
ATOM     56  H   UNL     1     153.501 162.018 190.856  0.00  0.00    +0.023 HD
ENDBRANCH   1  53
BRANCH   5  57
ATOM     57  C   UNL     1     155.914 165.905 189.277  0.00  0.00    -0.041 C 
ATOM     58  H   UNL     1     156.514 166.679 188.792  0.00  0.00    +0.028 HD
ATOM     59  H   UNL     1     155.567 166.333 190.223  0.00  0.00    +0.028 HD
ATOM     60  H   UNL     1     156.587 165.069 189.497  0.00  0.00    +0.028 HD
ENDBRANCH   5  57
BRANCH  24  61
ATOM     61  C   UNL     1     151.624 160.547 190.806  0.00  0.00    -0.057 C 
ATOM     62  H   UNL     1     152.363 160.009 191.405  0.00  0.00    +0.023 HD
ATOM     63  H   UNL     1     150.625 160.298 191.184  0.00  0.00    +0.023 HD
ATOM     64  H   UNL     1     151.791 161.604 191.021  0.00  0.00    +0.023 HD
ENDBRANCH  24  61
BRANCH   8  65
ATOM     65  C   UNL     1     152.158 167.439 191.887  0.00  0.00    -0.062 C 
ATOM     66  H   UNL     1     151.426 167.138 192.644  0.00  0.00    +0.023 HD
ATOM     67  H   UNL     1     153.100 167.673 192.397  0.00  0.00    +0.023 HD
ATOM     68  H   UNL     1     151.796 168.361 191.421  0.00  0.00    +0.023 HD
ENDBRANCH   8  65
BRANCH  14  69
ATOM     69  C   UNL     1     145.281 166.154 188.564  0.00  0.00    +0.020 C 
ATOM     70  H   UNL     1     145.809 167.046 188.912  0.00  0.00    +0.036 HD
BRANCH  69  71
ATOM     71  C   UNL     1     146.005 165.756 187.267  0.00  0.00    -0.057 C 
ATOM     72  H   UNL     1     145.462 166.111 186.384  0.00  0.00    +0.023 HD
ATOM     73  H   UNL     1     147.006 166.196 187.218  0.00  0.00    +0.023 HD
ATOM     74  H   UNL     1     146.099 164.669 187.183  0.00  0.00    +0.023 HD
ENDBRANCH  69  71
BRANCH  69  75
ATOM     75  C   UNL     1     143.810 166.538 188.224  0.00  0.00    +0.064 C 
ATOM     76  H   UNL     1     143.746 166.641 187.134  0.00  0.00    +0.060 HD
BRANCH  75  77
ATOM     77  C   UNL     1     143.360 167.882 188.867  0.00  0.00    -0.017 C 
ATOM     78  H   UNL     1     142.617 168.329 188.194  0.00  0.00    +0.032 HD
BRANCH  77  79
ATOM     79  C   UNL     1     142.622 167.632 190.190  0.00  0.00    -0.060 C 
ATOM     80  H   UNL     1     141.538 167.731 190.088  0.00  0.00    +0.023 HD
ATOM     81  H   UNL     1     142.949 168.351 190.950  0.00  0.00    +0.023 HD
ATOM     82  H   UNL     1     142.838 166.630 190.573  0.00  0.00    +0.023 HD
ENDBRANCH  77  79
BRANCH  77  83
ATOM     83  C   UNL     1     144.467 168.958 189.050  0.00  0.00    -0.045 C 
ATOM     84  H   UNL     1     144.024 169.927 188.793  0.00  0.00    +0.027 HD
ATOM     85  H   UNL     1     145.262 168.790 188.316  0.00  0.00    +0.027 HD
BRANCH  83  86
ATOM     86  C   UNL     1     145.107 169.066 190.445  0.00  0.00    -0.015 C 
ATOM     87  H   UNL     1     144.345 168.854 191.201  0.00  0.00    +0.030 HD
ATOM     88  H   UNL     1     145.902 168.321 190.532  0.00  0.00    +0.030 HD
BRANCH  86  89
ATOM     89  C   UNL     1     145.726 170.457 190.717  0.00  0.00    +0.109 C 
ATOM     90  H   UNL     1     145.559 170.705 191.772  0.00  0.00    +0.074 HD
BRANCH  89  91
ATOM     91  C   UNL     1     145.065 171.571 189.849  0.00  0.00    +0.031 C 
ATOM     92  H   UNL     1     144.533 171.048 189.042  0.00  0.00    +0.037 HD
BRANCH  91  93
ATOM     93  C   UNL     1     146.112 172.496 189.210  0.00  0.00    -0.056 C 
ATOM     94  H   UNL     1     146.561 172.044 188.321  0.00  0.00    +0.023 HD
ATOM     95  H   UNL     1     146.917 172.734 189.914  0.00  0.00    +0.023 HD
ATOM     96  H   UNL     1     145.668 173.437 188.876  0.00  0.00    +0.023 HD
ENDBRANCH  91  93
BRANCH  91  97
ATOM     97  C   UNL     1     144.024 172.396 190.674  0.00  0.00    +0.115 C 
ATOM     98  H   UNL     1     143.717 171.781 191.532  0.00  0.00    +0.074 HD
BRANCH  97  99
ATOM     99  C   UNL     1     144.579 173.748 191.220  0.00  0.00    +0.013 C 
ATOM    100  H   UNL     1     145.268 174.154 190.470  0.00  0.00    +0.038 HD
BRANCH  99 101
ATOM    101  C   UNL     1     145.406 173.575 192.501  0.00  0.00    -0.056 C 
ATOM    102  H   UNL     1     146.231 174.298 192.527  0.00  0.00    +0.024 HD
ATOM    103  H   UNL     1     144.808 173.732 193.406  0.00  0.00    +0.024 HD
ATOM    104  H   UNL     1     145.846 172.573 192.545  0.00  0.00    +0.024 HD
ENDBRANCH  99 101
BRANCH  99 105
ATOM    105  C   UNL     1     143.479 174.755 191.489  0.00  0.00    -0.064 C 
ATOM    106  C   UNL     1     143.062 175.075 192.723  0.00  0.00    -0.005 C 
ATOM    107  H   UNL     1     143.049 175.227 190.610  0.00  0.00    +0.059 HD
ATOM    108  H   UNL     1     143.509 174.583 193.586  0.00  0.00    +0.078 HD
BRANCH 106 109
ATOM    109  N   UNL     1     142.079 176.006 193.029  0.00  0.00    -0.284 N 
ATOM    110  C   UNL     1     141.527 176.032 194.310  0.00  0.00    +0.206 C 
ATOM    111  O   UNL     1     141.827 175.306 195.251  0.00  0.00    -0.279 OA
ATOM    112  H   UNL     1     140.753 176.809 194.420  0.00  0.00    +0.126 HD
BRANCH 109 113
ATOM    113  C   UNL     1     141.614 176.968 192.042  0.00  0.00    +0.007 C 
ATOM    114  H   UNL     1     142.379 177.092 191.269  0.00  0.00    +0.043 HD
ATOM    115  H   UNL     1     140.690 176.630 191.561  0.00  0.00    +0.043 HD
ATOM    116  H   UNL     1     141.413 177.927 192.532  0.00  0.00    +0.043 HD
ENDBRANCH 109 113
ENDBRANCH 106 109
ENDBRANCH  99 105
ENDBRANCH  97  99
BRANCH  97 117
ATOM    117  O   UNL     1     142.883 172.656 189.814  0.00  0.00    -0.461 OA
BRANCH 117 118
ATOM    118  C   UNL     1     141.946 171.672 189.718  0.00  0.00    +0.304 C 
ATOM    119  O   UNL     1     141.482 171.226 188.679  0.00  0.00    -0.251 OA
BRANCH 118 120
ATOM    120  C   UNL     1     141.589 171.162 191.080  0.00  0.00    +0.033 C 
ATOM    121  H   UNL     1     142.113 170.223 191.281  0.00  0.00    +0.034 HD
ATOM    122  H   UNL     1     141.905 171.893 191.830  0.00  0.00    +0.034 HD
ATOM    123  H   UNL     1     140.508 171.027 191.148  0.00  0.00    +0.034 HD
ENDBRANCH 118 120
ENDBRANCH 117 118
ENDBRANCH  97 117
ENDBRANCH  91  97
ENDBRANCH  89  91
BRANCH  89 124
ATOM    124  O   UNL     1     147.133 170.412 190.402  0.00  0.00    -0.460 OA
BRANCH 124 125
ATOM    125  C   UNL     1     148.016 170.264 191.428  0.00  0.00    +0.324 C 
ATOM    126  O   UNL     1     147.935 169.389 192.287  0.00  0.00    -0.249 OA
BRANCH 125 127
ATOM    127  C   UNL     1     149.101 171.358 191.444  0.00  0.00    +0.105 C 
ATOM    128  H   UNL     1     149.260 171.662 190.401  0.00  0.00    +0.058 HD
BRANCH 127 129
ATOM    129  C   UNL     1     150.381 170.685 191.953  0.00  0.00    -0.039 C 
ATOM    130  H   UNL     1     150.706 171.120 192.903  0.00  0.00    +0.025 HD
ATOM    131  H   UNL     1     150.211 169.615 192.116  0.00  0.00    +0.025 HD
ATOM    132  H   UNL     1     151.202 170.765 191.234  0.00  0.00    +0.025 HD
ENDBRANCH 127 129
BRANCH 127 133
ATOM    133  N   UNL     1     148.696 172.563 192.233  0.00  0.00    -0.296 NA
BRANCH 133 134
ATOM    134  C   UNL     1     148.810 173.785 191.426  0.00  0.00    -0.012 C 
ATOM    135  H   UNL     1     149.582 173.690 190.657  0.00  0.00    +0.039 HD
ATOM    136  H   UNL     1     149.042 174.660 192.043  0.00  0.00    +0.039 HD
ATOM    137  H   UNL     1     147.871 173.979 190.892  0.00  0.00    +0.039 HD
ENDBRANCH 133 134
BRANCH 133 138
ATOM    138  C   UNL     1     149.496 172.722 193.451  0.00  0.00    -0.012 C 
ATOM    139  H   UNL     1     150.314 171.991 193.479  0.00  0.00    +0.039 HD
ATOM    140  H   UNL     1     149.979 173.706 193.484  0.00  0.00    +0.039 HD
ATOM    141  H   UNL     1     148.892 172.594 194.358  0.00  0.00    +0.039 HD
ENDBRANCH 133 138
ENDBRANCH 127 133
ENDBRANCH 125 127
ENDBRANCH 124 125
ENDBRANCH  89 124
ENDBRANCH  86  89
ENDBRANCH  83  86
ENDBRANCH  77  83
ENDBRANCH  75  77
BRANCH  75 142
ATOM    142  O   UNL     1     142.907 165.491 188.551  0.00  0.00    -0.391 OA
ATOM    143  H   UNL     1     143.423 164.750 188.911  0.00  0.00    +0.210 HD
ENDBRANCH  75 142
ENDBRANCH  69  75
ENDBRANCH  14  69
BRANCH  25 144
ATOM    144  O   UNL     1     154.042 159.401 189.655  0.00  0.00    -0.391 OA
ATOM    145  H   UNL     1     154.165 158.572 189.164  0.00  0.00    +0.210 HD
ENDBRANCH  25 144
BRANCH  23 146
ATOM    146  O   UNL     1     151.266 158.581 187.560  0.00  0.00    -0.460 OA
BRANCH 146 147
ATOM    147  C   UNL     1     151.863 157.406 187.185  0.00  0.00    +0.327 C 
ATOM    148  O   UNL     1     151.631 156.313 187.695  0.00  0.00    -0.249 OA
BRANCH 147 149
ATOM    149  C   UNL     1     152.886 157.647 186.064  0.00  0.00    +0.131 C 
ATOM    150  H   UNL     1     152.747 156.857 185.315  0.00  0.00    +0.060 HD
BRANCH 149 151
ATOM    151  C   UNL     1     154.292 157.448 186.657  0.00  0.00    +0.073 C 
ATOM    152  H   UNL     1     154.997 158.140 186.183  0.00  0.00    +0.058 HD
ATOM    153  H   UNL     1     154.305 157.626 187.738  0.00  0.00    +0.058 HD
BRANCH 151 154
ATOM    154  O   UNL     1     154.732 156.112 186.376  0.00  0.00    -0.381 OA
BRANCH 154 155
ATOM    155  C   UNL     1     155.146 155.438 187.557  0.00  0.00    +0.037 C 
ATOM    156  H   UNL     1     154.391 154.712 187.872  0.00  0.00    +0.052 HD
ATOM    157  H   UNL     1     155.269 156.179 188.351  0.00  0.00    +0.052 HD
ATOM    158  H   UNL     1     156.106 154.939 187.399  0.00  0.00    +0.052 HD
ENDBRANCH 154 155
ENDBRANCH 151 154
ENDBRANCH 149 151
BRANCH 149 159
ATOM    159  N   UNL     1     152.755 158.988 185.414  0.00  0.00    -0.294 NA
BRANCH 159 160
ATOM    160  C   UNL     1     154.050 159.655 185.295  0.00  0.00    -0.012 C 
ATOM    161  H   UNL     1     153.961 160.723 185.082  0.00  0.00    +0.039 HD
ATOM    162  H   UNL     1     154.639 159.187 184.504  0.00  0.00    +0.039 HD
ATOM    163  H   UNL     1     154.635 159.541 186.214  0.00  0.00    +0.039 HD
ENDBRANCH 159 160
BRANCH 159 164
ATOM    164  C   UNL     1     152.064 158.955 184.125  0.00  0.00    -0.012 C 
ATOM    165  H   UNL     1     151.791 159.954 183.768  0.00  0.00    +0.039 HD
ATOM    166  H   UNL     1     151.141 158.370 184.206  0.00  0.00    +0.039 HD
ATOM    167  H   UNL     1     152.671 158.463 183.360  0.00  0.00    +0.039 HD
ENDBRANCH 159 164
ENDBRANCH 149 159
ENDBRANCH 147 149
ENDBRANCH 146 147
ENDBRANCH  23 146
BRANCH   4 168
ATOM    168  O   UNL     1     156.178 163.558 187.887  0.00  0.00    -0.376 OA
BRANCH 168 169
ATOM    169  C   UNL     1     157.118 163.174 186.891  0.00  0.00    +0.037 C 
ATOM    170  H   UNL     1     157.940 162.650 187.385  0.00  0.00    +0.052 HD
ATOM    171  H   UNL     1     157.517 164.062 186.394  0.00  0.00    +0.052 HD
ATOM    172  H   UNL     1     156.665 162.499 186.160  0.00  0.00    +0.052 HD
ENDBRANCH 168 169
ENDBRANCH   4 168
BRANCH  10 173
ATOM    173  O   UNL     1     150.189 166.302 188.488  0.00  0.00    -0.376 OA
BRANCH 173 174
ATOM    174  C   UNL     1     149.887 165.057 187.866  0.00  0.00    +0.037 C 
ATOM    175  H   UNL     1     148.975 165.183 187.276  0.00  0.00    +0.052 HD
ATOM    176  H   UNL     1     150.692 164.759 187.190  0.00  0.00    +0.052 HD
ATOM    177  H   UNL     1     149.709 164.278 188.615  0.00  0.00    +0.052 HD
ENDBRANCH 173 174
ENDBRANCH  10 173
TORSDOF 45
ENDMDL
MODEL 9
REMARK VINA RESULT:      -5.1      6.489     12.830
REMARK  Name = Aplyronine A_conf1
REMARK  45 active torsions:
REMARK  status: ('A' for Active; 'I' for Inactive)
REMARK    1  A    between atoms: C_1  and  C_2
REMARK    2  A    between atoms: C_5  and  O_75
REMARK    3  A    between atoms: C_6  and  C_74
REMARK    4  A    between atoms: C_9  and  C_73
REMARK    5  A    between atoms: C_11  and  O_71
REMARK    6  A    between atoms: C_15  and  C_39
REMARK    7  A    between atoms: C_24  and  O_29
REMARK    8  A    between atoms: C_25  and  C_28
REMARK    9  A    between atoms: C_26  and  O_27
REMARK   10  A    between atoms: O_29  and  C_30
REMARK   11  A    between atoms: C_30  and  C_32
REMARK   12  A    between atoms: C_32  and  C_33
REMARK   13  A    between atoms: C_32  and  N_36
REMARK   14  A    between atoms: C_33  and  O_34
REMARK   15  A    between atoms: O_34  and  C_35
REMARK   16  A    between atoms: N_36  and  C_37
REMARK   17  A    between atoms: N_36  and  C_38
REMARK   18  A    between atoms: C_39  and  C_40
REMARK   19  A    between atoms: C_39  and  C_41
REMARK   20  A    between atoms: C_41  and  C_42
REMARK   21  A    between atoms: C_41  and  O_70
REMARK   22  A    between atoms: C_42  and  C_43
REMARK   23  A    between atoms: C_42  and  C_44
REMARK   24  A    between atoms: C_44  and  C_45
REMARK   25  A    between atoms: C_45  and  C_46
REMARK   26  A    between atoms: C_46  and  C_47
REMARK   27  A    between atoms: C_46  and  O_62
REMARK   28  A    between atoms: C_47  and  C_48
REMARK   29  A    between atoms: C_47  and  C_49
REMARK   30  A    between atoms: C_49  and  C_50
REMARK   31  A    between atoms: C_49  and  O_58
REMARK   32  A    between atoms: C_50  and  C_51
REMARK   33  A    between atoms: C_50  and  C_52
REMARK   34  A    between atoms: C_53  and  N_54
REMARK   35  A    between atoms: N_54  and  C_55
REMARK   36  A    between atoms: O_58  and  C_59
REMARK   37  A    between atoms: C_59  and  C_61
REMARK   38  A    between atoms: O_62  and  C_63
REMARK   39  A    between atoms: C_63  and  C_65
REMARK   40  A    between atoms: C_65  and  C_66
REMARK   41  A    between atoms: C_65  and  N_67
REMARK   42  A    between atoms: N_67  and  C_68
REMARK   43  A    between atoms: N_67  and  C_69
REMARK   44  A    between atoms: O_71  and  C_72
REMARK   45  A    between atoms: O_75  and  C_76
REMARK                            x       y       z     vdW  Elec       q    Type
REMARK                         _______ _______ _______ _____ _____    ______ ____
ROOT
ATOM      1  C   UNL     1     156.409 170.658 181.287  0.00  0.00    -0.017 C 
ATOM      2  C   UNL     1     155.927 170.553 182.748  0.00  0.00    -0.045 C 
ATOM      3  C   UNL     1     156.333 171.695 183.703  0.00  0.00    -0.022 C 
ATOM      4  C   UNL     1     157.827 172.049 183.872  0.00  0.00    +0.079 C 
ATOM      5  C   UNL     1     158.793 170.940 184.300  0.00  0.00    -0.048 C 
ATOM      6  C   UNL     1     158.395 169.833 184.966  0.00  0.00    -0.082 C 
ATOM      7  C   UNL     1     159.249 168.701 185.474  0.00  0.00    -0.032 C 
ATOM      8  C   UNL     1     159.266 167.485 184.529  0.00  0.00    -0.038 C 
ATOM      9  C   UNL     1     157.911 166.753 184.354  0.00  0.00    -0.020 C 
ATOM     10  C   UNL     1     157.242 166.254 185.653  0.00  0.00    +0.077 C 
ATOM     11  C   UNL     1     156.211 165.200 185.326  0.00  0.00    -0.059 C 
ATOM     12  C   UNL     1     156.217 163.948 185.818  0.00  0.00    -0.082 C 
ATOM     13  C   UNL     1     155.180 162.886 185.520  0.00  0.00    +0.003 C 
ATOM     14  C   UNL     1     153.726 163.170 185.991  0.00  0.00    +0.112 C 
ATOM     15  O   UNL     1     153.226 164.165 185.063  0.00  0.00    -0.458 OA
ATOM     16  C   UNL     1     152.004 163.958 184.512  0.00  0.00    +0.332 C 
ATOM     17  O   UNL     1     151.147 163.183 184.901  0.00  0.00    -0.246 OA
ATOM     18  C   UNL     1     151.850 164.777 183.291  0.00  0.00    +0.022 C 
ATOM     19  C   UNL     1     152.891 164.931 182.460  0.00  0.00    -0.055 C 
ATOM     20  C   UNL     1     152.863 165.577 181.173  0.00  0.00    -0.065 C 
ATOM     21  C   UNL     1     152.411 166.814 180.929  0.00  0.00    -0.081 C 
ATOM     22  C   UNL     1     152.556 167.458 179.569  0.00  0.00    +0.003 C 
ATOM     23  C   UNL     1     153.329 168.802 179.570  0.00  0.00    +0.111 C 
ATOM     24  C   UNL     1     154.646 168.848 180.409  0.00  0.00    +0.020 C 
ATOM     25  C   UNL     1     155.288 170.259 180.284  0.00  0.00    +0.064 C 
ATOM     26  H   UNL     1     156.618 171.712 181.060  0.00  0.00    +0.032 HD
ATOM     27  H   UNL     1     156.218 169.587 183.171  0.00  0.00    +0.027 HD
ATOM     28  H   UNL     1     154.829 170.549 182.761  0.00  0.00    +0.027 HD
ATOM     29  H   UNL     1     155.807 172.594 183.357  0.00  0.00    +0.029 HD
ATOM     30  H   UNL     1     155.913 171.466 184.693  0.00  0.00    +0.029 HD
ATOM     31  H   UNL     1     157.894 172.810 184.663  0.00  0.00    +0.064 HD
ATOM     32  H   UNL     1     157.343 169.710 185.211  0.00  0.00    +0.057 HD
ATOM     33  H   UNL     1     158.896 168.416 186.470  0.00  0.00    +0.031 HD
ATOM     34  H   UNL     1     160.272 169.045 185.645  0.00  0.00    +0.031 HD
ATOM     35  H   UNL     1     159.554 167.843 183.530  0.00  0.00    +0.030 HD
ATOM     36  H   UNL     1     158.080 165.904 183.680  0.00  0.00    +0.030 HD
ATOM     37  H   UNL     1     157.219 167.425 183.830  0.00  0.00    +0.030 HD
ATOM     38  H   UNL     1     158.002 165.855 186.333  0.00  0.00    +0.064 HD
ATOM     39  H   UNL     1     155.413 165.518 184.658  0.00  0.00    +0.059 HD
ATOM     40  H   UNL     1     157.013 163.648 186.497  0.00  0.00    +0.057 HD
ATOM     41  H   UNL     1     155.542 161.944 185.949  0.00  0.00    +0.034 HD
ATOM     42  H   UNL     1     155.180 162.724 184.434  0.00  0.00    +0.034 HD
ATOM     43  H   UNL     1     153.153 162.242 185.857  0.00  0.00    +0.074 HD
ATOM     44  H   UNL     1     150.850 165.124 183.062  0.00  0.00    +0.069 HD
ATOM     45  H   UNL     1     153.847 164.468 182.699  0.00  0.00    +0.062 HD
ATOM     46  H   UNL     1     153.345 165.012 180.373  0.00  0.00    +0.061 HD
ATOM     47  H   UNL     1     151.955 167.417 181.713  0.00  0.00    +0.057 HD
ATOM     48  H   UNL     1     151.543 167.620 179.178  0.00  0.00    +0.034 HD
ATOM     49  H   UNL     1     153.050 166.771 178.873  0.00  0.00    +0.034 HD
ATOM     50  H   UNL     1     153.597 169.024 178.527  0.00  0.00    +0.074 HD
ATOM     51  H   UNL     1     154.376 168.691 181.459  0.00  0.00    +0.036 HD
ATOM     52  H   UNL     1     154.501 171.008 180.426  0.00  0.00    +0.060 HD
ENDROOT
BRANCH   1  53
ATOM     53  C   UNL     1     157.730 169.909 181.058  0.00  0.00    -0.060 C 
ATOM     54  H   UNL     1     158.543 170.363 181.626  0.00  0.00    +0.023 HD
ATOM     55  H   UNL     1     158.039 169.928 180.010  0.00  0.00    +0.023 HD
ATOM     56  H   UNL     1     157.670 168.867 181.378  0.00  0.00    +0.023 HD
ENDBRANCH   1  53
BRANCH   5  57
ATOM     57  C   UNL     1     160.238 171.220 183.957  0.00  0.00    -0.041 C 
ATOM     58  H   UNL     1     160.889 171.315 184.830  0.00  0.00    +0.028 HD
ATOM     59  H   UNL     1     160.656 170.411 183.349  0.00  0.00    +0.028 HD
ATOM     60  H   UNL     1     160.317 172.157 183.395  0.00  0.00    +0.028 HD
ENDBRANCH   5  57
BRANCH  24  61
ATOM     61  C   UNL     1     155.606 167.730 179.980  0.00  0.00    -0.057 C 
ATOM     62  H   UNL     1     155.778 167.021 180.793  0.00  0.00    +0.023 HD
ATOM     63  H   UNL     1     156.576 168.123 179.654  0.00  0.00    +0.023 HD
ATOM     64  H   UNL     1     155.211 167.133 179.156  0.00  0.00    +0.023 HD
ENDBRANCH  24  61
BRANCH   8  65
ATOM     65  C   UNL     1     160.360 166.504 184.964  0.00  0.00    -0.062 C 
ATOM     66  H   UNL     1     160.646 165.831 184.150  0.00  0.00    +0.023 HD
ATOM     67  H   UNL     1     161.257 167.039 185.295  0.00  0.00    +0.023 HD
ATOM     68  H   UNL     1     160.016 165.887 185.801  0.00  0.00    +0.023 HD
ENDBRANCH   8  65
BRANCH  14  69
ATOM     69  C   UNL     1     153.611 163.643 187.464  0.00  0.00    +0.020 C 
ATOM     70  H   UNL     1     152.588 163.454 187.799  0.00  0.00    +0.036 HD
BRANCH  69  71
ATOM     71  C   UNL     1     154.490 162.816 188.417  0.00  0.00    -0.057 C 
ATOM     72  H   UNL     1     155.438 162.538 187.943  0.00  0.00    +0.023 HD
ATOM     73  H   UNL     1     154.745 163.384 189.317  0.00  0.00    +0.023 HD
ATOM     74  H   UNL     1     153.987 161.893 188.719  0.00  0.00    +0.023 HD
ENDBRANCH  69  71
BRANCH  69  75
ATOM     75  C   UNL     1     153.935 165.154 187.662  0.00  0.00    +0.064 C 
ATOM     76  H   UNL     1     154.868 165.359 187.122  0.00  0.00    +0.060 HD
BRANCH  75  77
ATOM     77  C   UNL     1     154.141 165.550 189.155  0.00  0.00    -0.017 C 
ATOM     78  H   UNL     1     154.140 164.621 189.738  0.00  0.00    +0.032 HD
BRANCH  77  79
ATOM     79  C   UNL     1     155.529 166.171 189.366  0.00  0.00    -0.060 C 
ATOM     80  H   UNL     1     155.582 167.204 189.011  0.00  0.00    +0.023 HD
ATOM     81  H   UNL     1     156.289 165.597 188.825  0.00  0.00    +0.023 HD
ATOM     82  H   UNL     1     155.803 166.160 190.426  0.00  0.00    +0.023 HD
ENDBRANCH  77  79
BRANCH  77  83
ATOM     83  C   UNL     1     153.037 166.446 189.783  0.00  0.00    -0.045 C 
ATOM     84  H   UNL     1     153.076 167.415 189.272  0.00  0.00    +0.027 HD
ATOM     85  H   UNL     1     153.287 166.651 190.828  0.00  0.00    +0.027 HD
BRANCH  83  86
ATOM     86  C   UNL     1     151.594 165.917 189.722  0.00  0.00    -0.015 C 
ATOM     87  H   UNL     1     151.029 166.513 188.997  0.00  0.00    +0.030 HD
ATOM     88  H   UNL     1     151.607 164.878 189.384  0.00  0.00    +0.030 HD
BRANCH  86  89
ATOM     89  C   UNL     1     150.877 165.964 191.091  0.00  0.00    +0.109 C 
ATOM     90  H   UNL     1     149.800 166.061 190.911  0.00  0.00    +0.074 HD
BRANCH  89  91
ATOM     91  C   UNL     1     151.334 167.184 191.949  0.00  0.00    +0.031 C 
ATOM     92  H   UNL     1     152.113 167.690 191.362  0.00  0.00    +0.037 HD
BRANCH  91  93
ATOM     93  C   UNL     1     151.952 166.745 193.285  0.00  0.00    -0.056 C 
ATOM     94  H   UNL     1     151.874 165.663 193.430  0.00  0.00    +0.023 HD
ATOM     95  H   UNL     1     151.462 167.237 194.133  0.00  0.00    +0.023 HD
ATOM     96  H   UNL     1     153.019 166.977 193.332  0.00  0.00    +0.023 HD
ENDBRANCH  91  93
BRANCH  91  97
ATOM     97  C   UNL     1     150.159 168.189 192.184  0.00  0.00    +0.115 C 
ATOM     98  H   UNL     1     150.048 168.323 193.268  0.00  0.00    +0.074 HD
BRANCH  97  99
ATOM     99  C   UNL     1     150.390 169.592 191.541  0.00  0.00    +0.013 C 
ATOM    100  H   UNL     1     150.483 169.453 190.457  0.00  0.00    +0.038 HD
BRANCH  99 101
ATOM    101  C   UNL     1     151.705 170.242 191.995  0.00  0.00    -0.056 C 
ATOM    102  H   UNL     1     152.447 169.474 192.244  0.00  0.00    +0.024 HD
ATOM    103  H   UNL     1     152.144 170.877 191.216  0.00  0.00    +0.024 HD
ATOM    104  H   UNL     1     151.546 170.850 192.891  0.00  0.00    +0.024 HD
ENDBRANCH  99 101
BRANCH  99 105
ATOM    105  C   UNL     1     149.254 170.551 191.829  0.00  0.00    -0.064 C 
ATOM    106  C   UNL     1     149.344 171.876 191.637  0.00  0.00    -0.005 C 
ATOM    107  H   UNL     1     148.336 170.097 192.191  0.00  0.00    +0.059 HD
ATOM    108  H   UNL     1     150.278 172.304 191.276  0.00  0.00    +0.078 HD
BRANCH 106 109
ATOM    109  N   UNL     1     148.329 172.797 191.859  0.00  0.00    -0.284 N 
ATOM    110  C   UNL     1     148.171 173.358 193.125  0.00  0.00    +0.206 C 
ATOM    111  O   UNL     1     148.859 173.137 194.116  0.00  0.00    -0.279 OA
ATOM    112  H   UNL     1     147.326 174.065 193.171  0.00  0.00    +0.126 HD
BRANCH 109 113
ATOM    113  C   UNL     1     147.428 173.201 190.791  0.00  0.00    +0.007 C 
ATOM    114  H   UNL     1     147.904 173.011 189.824  0.00  0.00    +0.043 HD
ATOM    115  H   UNL     1     146.489 172.639 190.829  0.00  0.00    +0.043 HD
ATOM    116  H   UNL     1     147.193 174.266 190.894  0.00  0.00    +0.043 HD
ENDBRANCH 109 113
ENDBRANCH 106 109
ENDBRANCH  99 105
ENDBRANCH  97  99
BRANCH  97 117
ATOM    117  O   UNL     1     148.954 167.598 191.628  0.00  0.00    -0.461 OA
BRANCH 117 118
ATOM    118  C   UNL     1     147.864 167.539 192.444  0.00  0.00    +0.304 C 
ATOM    119  O   UNL     1     146.708 167.744 192.106  0.00  0.00    -0.251 OA
BRANCH 118 120
ATOM    120  C   UNL     1     148.273 167.131 193.825  0.00  0.00    +0.033 C 
ATOM    121  H   UNL     1     149.281 166.707 193.811  0.00  0.00    +0.034 HD
ATOM    122  H   UNL     1     148.286 168.014 194.471  0.00  0.00    +0.034 HD
ATOM    123  H   UNL     1     147.554 166.411 194.221  0.00  0.00    +0.034 HD
ENDBRANCH 118 120
ENDBRANCH 117 118
ENDBRANCH  97 117
ENDBRANCH  91  97
ENDBRANCH  89  91
BRANCH  89 124
ATOM    124  O   UNL     1     151.184 164.758 191.821  0.00  0.00    -0.460 OA
BRANCH 124 125
ATOM    125  C   UNL     1     150.181 163.858 192.023  0.00  0.00    +0.324 C 
ATOM    126  O   UNL     1     149.335 163.955 192.908  0.00  0.00    -0.249 OA
BRANCH 125 127
ATOM    127  C   UNL     1     150.257 162.656 191.061  0.00  0.00    +0.105 C 
ATOM    128  H   UNL     1     149.819 161.799 191.591  0.00  0.00    +0.058 HD
BRANCH 127 129
ATOM    129  C   UNL     1     151.747 162.379 190.838  0.00  0.00    -0.039 C 
ATOM    130  H   UNL     1     152.356 162.823 191.631  0.00  0.00    +0.025 HD
ATOM    131  H   UNL     1     151.939 161.301 190.832  0.00  0.00    +0.025 HD
ATOM    132  H   UNL     1     152.097 162.763 189.874  0.00  0.00    +0.025 HD
ENDBRANCH 127 129
BRANCH 127 133
ATOM    133  N   UNL     1     149.486 162.877 189.799  0.00  0.00    -0.296 NA
BRANCH 133 134
ATOM    134  C   UNL     1     148.270 162.053 189.772  0.00  0.00    -0.012 C 
ATOM    135  H   UNL     1     148.449 161.055 190.183  0.00  0.00    +0.039 HD
ATOM    136  H   UNL     1     147.876 161.942 188.755  0.00  0.00    +0.039 HD
ATOM    137  H   UNL     1     147.489 162.504 190.398  0.00  0.00    +0.039 HD
ENDBRANCH 133 134
BRANCH 133 138
ATOM    138  C   UNL     1     150.284 162.584 188.604  0.00  0.00    -0.012 C 
ATOM    139  H   UNL     1     150.467 161.506 188.513  0.00  0.00    +0.039 HD
ATOM    140  H   UNL     1     149.752 162.871 187.690  0.00  0.00    +0.039 HD
ATOM    141  H   UNL     1     151.254 163.095 188.625  0.00  0.00    +0.039 HD
ENDBRANCH 133 138
ENDBRANCH 127 133
ENDBRANCH 125 127
ENDBRANCH 124 125
ENDBRANCH  89 124
ENDBRANCH  86  89
ENDBRANCH  83  86
ENDBRANCH  77  83
ENDBRANCH  75  77
BRANCH  75 142
ATOM    142  O   UNL     1     152.960 165.985 187.047  0.00  0.00    -0.391 OA
ATOM    143  H   UNL     1     153.365 166.391 186.261  0.00  0.00    +0.210 HD
ENDBRANCH  75 142
ENDBRANCH  69  75
ENDBRANCH  14  69
BRANCH  25 144
ATOM    144  O   UNL     1     155.748 170.446 178.938  0.00  0.00    -0.391 OA
ATOM    145  H   UNL     1     155.643 169.603 178.469  0.00  0.00    +0.210 HD
ENDBRANCH  25 144
BRANCH  23 146
ATOM    146  O   UNL     1     152.419 169.818 180.073  0.00  0.00    -0.460 OA
BRANCH 146 147
ATOM    147  C   UNL     1     151.497 170.278 179.170  0.00  0.00    +0.327 C 
ATOM    148  O   UNL     1     150.281 170.262 179.345  0.00  0.00    -0.249 OA
BRANCH 147 149
ATOM    149  C   UNL     1     152.189 170.786 177.895  0.00  0.00    +0.131 C 
ATOM    150  H   UNL     1     153.202 170.363 177.879  0.00  0.00    +0.060 HD
BRANCH 149 151
ATOM    151  C   UNL     1     152.351 172.311 178.022  0.00  0.00    +0.073 C 
ATOM    152  H   UNL     1     152.054 172.796 177.085  0.00  0.00    +0.058 HD
ATOM    153  H   UNL     1     151.738 172.718 178.834  0.00  0.00    +0.058 HD
BRANCH 151 154
ATOM    154  O   UNL     1     153.734 172.616 178.253  0.00  0.00    -0.381 OA
BRANCH 154 155
ATOM    155  C   UNL     1     153.891 173.585 179.282  0.00  0.00    +0.037 C 
ATOM    156  H   UNL     1     152.970 174.160 179.415  0.00  0.00    +0.052 HD
ATOM    157  H   UNL     1     154.691 174.271 178.988  0.00  0.00    +0.052 HD
ATOM    158  H   UNL     1     154.176 173.105 180.222  0.00  0.00    +0.052 HD
ENDBRANCH 154 155
ENDBRANCH 151 154
ENDBRANCH 149 151
BRANCH 149 159
ATOM    159  N   UNL     1     151.467 170.419 176.637  0.00  0.00    -0.294 NA
BRANCH 159 160
ATOM    160  C   UNL     1     151.571 171.474 175.632  0.00  0.00    -0.012 C 
ATOM    161  H   UNL     1     150.628 172.002 175.470  0.00  0.00    +0.039 HD
ATOM    162  H   UNL     1     151.905 171.054 174.682  0.00  0.00    +0.039 HD
ATOM    163  H   UNL     1     152.327 172.214 175.917  0.00  0.00    +0.039 HD
ENDBRANCH 159 160
BRANCH 159 164
ATOM    164  C   UNL     1     151.869 169.126 176.082  0.00  0.00    -0.012 C 
ATOM    165  H   UNL     1     152.346 169.220 175.100  0.00  0.00    +0.039 HD
ATOM    166  H   UNL     1     150.994 168.478 175.962  0.00  0.00    +0.039 HD
ATOM    167  H   UNL     1     152.551 168.598 176.754  0.00  0.00    +0.039 HD
ENDBRANCH 159 164
ENDBRANCH 149 159
ENDBRANCH 147 149
ENDBRANCH 146 147
ENDBRANCH  23 146
BRANCH   4 168
ATOM    168  O   UNL     1     158.291 172.631 182.643  0.00  0.00    -0.376 OA
BRANCH 168 169
ATOM    169  C   UNL     1     158.036 174.027 182.549  0.00  0.00    +0.037 C 
ATOM    170  H   UNL     1     158.400 174.501 183.464  0.00  0.00    +0.052 HD
ATOM    171  H   UNL     1     156.961 174.205 182.466  0.00  0.00    +0.052 HD
ATOM    172  H   UNL     1     158.562 174.468 181.697  0.00  0.00    +0.052 HD
ENDBRANCH 168 169
ENDBRANCH   4 168
BRANCH  10 173
ATOM    173  O   UNL     1     156.580 167.366 186.263  0.00  0.00    -0.376 OA
BRANCH 173 174
ATOM    174  C   UNL     1     155.464 167.840 185.515  0.00  0.00    +0.037 C 
ATOM    175  H   UNL     1     155.057 168.715 186.027  0.00  0.00    +0.052 HD
ATOM    176  H   UNL     1     155.775 168.146 184.512  0.00  0.00    +0.052 HD
ATOM    177  H   UNL     1     154.681 167.077 185.455  0.00  0.00    +0.052 HD
ENDBRANCH 173 174
ENDBRANCH  10 173
TORSDOF 45
ENDMDL
MODEL 10
REMARK VINA RESULT:      -5.1      6.581     10.721
REMARK  Name = Aplyronine A_conf1
REMARK  45 active torsions:
REMARK  status: ('A' for Active; 'I' for Inactive)
REMARK    1  A    between atoms: C_1  and  C_2
REMARK    2  A    between atoms: C_5  and  O_75
REMARK    3  A    between atoms: C_6  and  C_74
REMARK    4  A    between atoms: C_9  and  C_73
REMARK    5  A    between atoms: C_11  and  O_71
REMARK    6  A    between atoms: C_15  and  C_39
REMARK    7  A    between atoms: C_24  and  O_29
REMARK    8  A    between atoms: C_25  and  C_28
REMARK    9  A    between atoms: C_26  and  O_27
REMARK   10  A    between atoms: O_29  and  C_30
REMARK   11  A    between atoms: C_30  and  C_32
REMARK   12  A    between atoms: C_32  and  C_33
REMARK   13  A    between atoms: C_32  and  N_36
REMARK   14  A    between atoms: C_33  and  O_34
REMARK   15  A    between atoms: O_34  and  C_35
REMARK   16  A    between atoms: N_36  and  C_37
REMARK   17  A    between atoms: N_36  and  C_38
REMARK   18  A    between atoms: C_39  and  C_40
REMARK   19  A    between atoms: C_39  and  C_41
REMARK   20  A    between atoms: C_41  and  C_42
REMARK   21  A    between atoms: C_41  and  O_70
REMARK   22  A    between atoms: C_42  and  C_43
REMARK   23  A    between atoms: C_42  and  C_44
REMARK   24  A    between atoms: C_44  and  C_45
REMARK   25  A    between atoms: C_45  and  C_46
REMARK   26  A    between atoms: C_46  and  C_47
REMARK   27  A    between atoms: C_46  and  O_62
REMARK   28  A    between atoms: C_47  and  C_48
REMARK   29  A    between atoms: C_47  and  C_49
REMARK   30  A    between atoms: C_49  and  C_50
REMARK   31  A    between atoms: C_49  and  O_58
REMARK   32  A    between atoms: C_50  and  C_51
REMARK   33  A    between atoms: C_50  and  C_52
REMARK   34  A    between atoms: C_53  and  N_54
REMARK   35  A    between atoms: N_54  and  C_55
REMARK   36  A    between atoms: O_58  and  C_59
REMARK   37  A    between atoms: C_59  and  C_61
REMARK   38  A    between atoms: O_62  and  C_63
REMARK   39  A    between atoms: C_63  and  C_65
REMARK   40  A    between atoms: C_65  and  C_66
REMARK   41  A    between atoms: C_65  and  N_67
REMARK   42  A    between atoms: N_67  and  C_68
REMARK   43  A    between atoms: N_67  and  C_69
REMARK   44  A    between atoms: O_71  and  C_72
REMARK   45  A    between atoms: O_75  and  C_76
REMARK                            x       y       z     vdW  Elec       q    Type
REMARK                         _______ _______ _______ _____ _____    ______ ____
ROOT
ATOM      1  C   UNL     1     152.701 157.500 189.121  0.00  0.00    -0.017 C 
ATOM      2  C   UNL     1     153.394 158.074 187.869  0.00  0.00    -0.045 C 
ATOM      3  C   UNL     1     154.121 157.069 186.949  0.00  0.00    -0.022 C 
ATOM      4  C   UNL     1     155.212 156.151 187.541  0.00  0.00    +0.079 C 
ATOM      5  C   UNL     1     156.392 156.801 188.271  0.00  0.00    -0.048 C 
ATOM      6  C   UNL     1     156.784 158.075 188.049  0.00  0.00    -0.082 C 
ATOM      7  C   UNL     1     157.945 158.808 188.669  0.00  0.00    -0.032 C 
ATOM      8  C   UNL     1     157.534 159.699 189.856  0.00  0.00    -0.038 C 
ATOM      9  C   UNL     1     156.606 160.892 189.509  0.00  0.00    -0.020 C 
ATOM     10  C   UNL     1     157.131 161.863 188.431  0.00  0.00    +0.077 C 
ATOM     11  C   UNL     1     156.386 163.174 188.514  0.00  0.00    -0.059 C 
ATOM     12  C   UNL     1     156.967 164.371 188.708  0.00  0.00    -0.082 C 
ATOM     13  C   UNL     1     156.239 165.696 188.771  0.00  0.00    +0.003 C 
ATOM     14  C   UNL     1     155.496 166.154 187.484  0.00  0.00    +0.112 C 
ATOM     15  O   UNL     1     154.317 165.313 187.420  0.00  0.00    -0.458 OA
ATOM     16  C   UNL     1     153.123 165.913 187.189  0.00  0.00    +0.332 C 
ATOM     17  O   UNL     1     152.941 167.037 186.754  0.00  0.00    -0.246 OA
ATOM     18  C   UNL     1     152.017 165.024 187.603  0.00  0.00    +0.022 C 
ATOM     19  C   UNL     1     152.140 164.288 188.717  0.00  0.00    -0.055 C 
ATOM     20  C   UNL     1     151.108 163.486 189.323  0.00  0.00    -0.065 C 
ATOM     21  C   UNL     1     150.391 162.538 188.706  0.00  0.00    -0.081 C 
ATOM     22  C   UNL     1     149.430 161.650 189.465  0.00  0.00    +0.003 C 
ATOM     23  C   UNL     1     149.716 160.132 189.336  0.00  0.00    +0.111 C 
ATOM     24  C   UNL     1     151.206 159.687 189.489  0.00  0.00    +0.020 C 
ATOM     25  C   UNL     1     151.300 158.142 189.345  0.00  0.00    +0.064 C 
ATOM     26  H   UNL     1     152.490 156.435 188.950  0.00  0.00    +0.032 HD
ATOM     27  H   UNL     1     154.071 158.884 188.153  0.00  0.00    +0.027 HD
ATOM     28  H   UNL     1     152.638 158.547 187.229  0.00  0.00    +0.027 HD
ATOM     29  H   UNL     1     153.345 156.433 186.505  0.00  0.00    +0.029 HD
ATOM     30  H   UNL     1     154.555 157.638 186.114  0.00  0.00    +0.029 HD
ATOM     31  H   UNL     1     155.662 155.598 186.703  0.00  0.00    +0.064 HD
ATOM     32  H   UNL     1     156.243 158.679 187.325  0.00  0.00    +0.057 HD
ATOM     33  H   UNL     1     158.441 159.399 187.892  0.00  0.00    +0.031 HD
ATOM     34  H   UNL     1     158.712 158.100 188.992  0.00  0.00    +0.031 HD
ATOM     35  H   UNL     1     156.976 159.072 190.566  0.00  0.00    +0.030 HD
ATOM     36  H   UNL     1     156.419 161.444 190.439  0.00  0.00    +0.030 HD
ATOM     37  H   UNL     1     155.634 160.493 189.191  0.00  0.00    +0.030 HD
ATOM     38  H   UNL     1     158.207 162.020 188.563  0.00  0.00    +0.064 HD
ATOM     39  H   UNL     1     155.307 163.106 188.386  0.00  0.00    +0.059 HD
ATOM     40  H   UNL     1     158.048 164.425 188.820  0.00  0.00    +0.057 HD
ATOM     41  H   UNL     1     156.965 166.457 189.081  0.00  0.00    +0.034 HD
ATOM     42  H   UNL     1     155.518 165.636 189.598  0.00  0.00    +0.034 HD
ATOM     43  H   UNL     1     155.179 167.194 187.642  0.00  0.00    +0.074 HD
ATOM     44  H   UNL     1     151.096 165.100 187.039  0.00  0.00    +0.069 HD
ATOM     45  H   UNL     1     153.060 164.334 189.298  0.00  0.00    +0.062 HD
ATOM     46  H   UNL     1     150.999 163.629 190.399  0.00  0.00    +0.061 HD
ATOM     47  H   UNL     1     150.500 162.347 187.640  0.00  0.00    +0.057 HD
ATOM     48  H   UNL     1     148.422 161.865 189.085  0.00  0.00    +0.034 HD
ATOM     49  H   UNL     1     149.424 161.917 190.527  0.00  0.00    +0.034 HD
ATOM     50  H   UNL     1     149.140 159.625 190.123  0.00  0.00    +0.074 HD
ATOM     51  H   UNL     1     151.773 160.139 188.668  0.00  0.00    +0.036 HD
ATOM     52  H   UNL     1     150.708 157.841 188.474  0.00  0.00    +0.060 HD
ENDROOT
BRANCH   1  53
ATOM     53  C   UNL     1     153.605 157.556 190.361  0.00  0.00    -0.060 C 
ATOM     54  H   UNL     1     153.224 156.913 191.155  0.00  0.00    +0.023 HD
ATOM     55  H   UNL     1     153.666 158.562 190.782  0.00  0.00    +0.023 HD
ATOM     56  H   UNL     1     154.619 157.215 190.143  0.00  0.00    +0.023 HD
ENDBRANCH   1  53
BRANCH   5  57
ATOM     57  C   UNL     1     157.110 155.873 189.224  0.00  0.00    -0.041 C 
ATOM     58  H   UNL     1     156.443 155.228 189.801  0.00  0.00    +0.028 HD
ATOM     59  H   UNL     1     157.786 155.206 188.678  0.00  0.00    +0.028 HD
ATOM     60  H   UNL     1     157.698 156.452 189.943  0.00  0.00    +0.028 HD
ENDBRANCH   5  57
BRANCH  24  61
ATOM     61  C   UNL     1     151.790 160.187 190.818  0.00  0.00    -0.057 C 
ATOM     62  H   UNL     1     151.091 160.029 191.642  0.00  0.00    +0.023 HD
ATOM     63  H   UNL     1     152.045 161.252 190.781  0.00  0.00    +0.023 HD
ATOM     64  H   UNL     1     152.698 159.652 191.103  0.00  0.00    +0.023 HD
ENDBRANCH  24  61
BRANCH   8  65
ATOM     65  C   UNL     1     158.784 160.183 190.601  0.00  0.00    -0.062 C 
ATOM     66  H   UNL     1     159.448 159.351 190.855  0.00  0.00    +0.023 HD
ATOM     67  H   UNL     1     159.349 160.898 189.993  0.00  0.00    +0.023 HD
ATOM     68  H   UNL     1     158.507 160.687 191.533  0.00  0.00    +0.023 HD
ENDBRANCH   8  65
BRANCH  14  69
ATOM     69  C   UNL     1     156.345 166.062 186.188  0.00  0.00    +0.020 C 
ATOM     70  H   UNL     1     157.390 165.935 186.481  0.00  0.00    +0.036 HD
BRANCH  69  71
ATOM     71  C   UNL     1     156.018 164.808 185.360  0.00  0.00    -0.057 C 
ATOM     72  H   UNL     1     155.356 164.130 185.909  0.00  0.00    +0.023 HD
ATOM     73  H   UNL     1     155.501 165.067 184.431  0.00  0.00    +0.023 HD
ATOM     74  H   UNL     1     156.926 164.252 185.109  0.00  0.00    +0.023 HD
ENDBRANCH  69  71
BRANCH  69  75
ATOM     75  C   UNL     1     156.225 167.317 185.272  0.00  0.00    +0.064 C 
ATOM     76  H   UNL     1     155.606 167.032 184.412  0.00  0.00    +0.060 HD
BRANCH  75  77
ATOM     77  C   UNL     1     157.597 167.822 184.737  0.00  0.00    -0.017 C 
ATOM     78  H   UNL     1     157.596 168.915 184.828  0.00  0.00    +0.032 HD
BRANCH  77  79
ATOM     79  C   UNL     1     158.744 167.334 185.634  0.00  0.00    -0.060 C 
ATOM     80  H   UNL     1     159.710 167.753 185.340  0.00  0.00    +0.023 HD
ATOM     81  H   UNL     1     158.828 166.242 185.584  0.00  0.00    +0.023 HD
ATOM     82  H   UNL     1     158.561 167.600 186.680  0.00  0.00    +0.023 HD
ENDBRANCH  77  79
BRANCH  77  83
ATOM     83  C   UNL     1     157.902 167.521 183.244  0.00  0.00    -0.045 C 
ATOM     84  H   UNL     1     156.956 167.601 182.696  0.00  0.00    +0.027 HD
ATOM     85  H   UNL     1     158.217 166.477 183.140  0.00  0.00    +0.027 HD
BRANCH  83  86
ATOM     86  C   UNL     1     158.946 168.414 182.552  0.00  0.00    -0.015 C 
ATOM     87  H   UNL     1     159.931 168.204 182.982  0.00  0.00    +0.030 HD
ATOM     88  H   UNL     1     158.972 168.175 181.486  0.00  0.00    +0.030 HD
BRANCH  86  89
ATOM     89  C   UNL     1     158.637 169.922 182.695  0.00  0.00    +0.109 C 
ATOM     90  H   UNL     1     158.236 170.097 183.700  0.00  0.00    +0.074 HD
BRANCH  89  91
ATOM     91  C   UNL     1     157.574 170.402 181.660  0.00  0.00    +0.031 C 
ATOM     92  H   UNL     1     157.020 169.502 181.358  0.00  0.00    +0.037 HD
BRANCH  91  93
ATOM     93  C   UNL     1     158.225 171.006 180.407  0.00  0.00    -0.056 C 
ATOM     94  H   UNL     1     158.638 170.231 179.754  0.00  0.00    +0.023 HD
ATOM     95  H   UNL     1     159.034 171.697 180.670  0.00  0.00    +0.023 HD
ATOM     96  H   UNL     1     157.499 171.553 179.800  0.00  0.00    +0.023 HD
ENDBRANCH  91  93
BRANCH  91  97
ATOM     97  C   UNL     1     156.566 171.410 182.304  0.00  0.00    +0.115 C 
ATOM     98  H   UNL     1     156.585 172.329 181.702  0.00  0.00    +0.074 HD
BRANCH  97  99
ATOM     99  C   UNL     1     155.095 170.890 182.352  0.00  0.00    +0.013 C 
ATOM    100  H   UNL     1     154.762 170.927 183.396  0.00  0.00    +0.038 HD
BRANCH  99 101
ATOM    101  C   UNL     1     154.972 169.422 181.923  0.00  0.00    -0.056 C 
ATOM    102  H   UNL     1     154.294 168.881 182.594  0.00  0.00    +0.024 HD
ATOM    103  H   UNL     1     154.575 169.318 180.907  0.00  0.00    +0.024 HD
ATOM    104  H   UNL     1     155.946 168.923 181.969  0.00  0.00    +0.024 HD
ENDBRANCH  99 101
BRANCH  99 105
ATOM    105  C   UNL     1     154.162 171.722 181.496  0.00  0.00    -0.064 C 
ATOM    106  C   UNL     1     154.039 173.052 181.623  0.00  0.00    -0.005 C 
ATOM    107  H   UNL     1     153.599 171.175 180.747  0.00  0.00    +0.059 HD
ATOM    108  H   UNL     1     154.615 173.575 182.387  0.00  0.00    +0.078 HD
BRANCH 106 109
ATOM    109  N   UNL     1     153.221 173.866 180.853  0.00  0.00    -0.284 N 
ATOM    110  C   UNL     1     152.112 174.479 181.433  0.00  0.00    +0.206 C 
ATOM    111  O   UNL     1     151.757 174.394 182.604  0.00  0.00    -0.279 OA
ATOM    112  H   UNL     1     151.542 175.090 180.714  0.00  0.00    +0.126 HD
BRANCH 109 113
ATOM    113  C   UNL     1     153.502 174.105 179.446  0.00  0.00    +0.007 C 
ATOM    114  H   UNL     1     153.495 173.152 178.908  0.00  0.00    +0.043 HD
ATOM    115  H   UNL     1     152.749 174.760 178.994  0.00  0.00    +0.043 HD
ATOM    116  H   UNL     1     154.480 174.589 179.344  0.00  0.00    +0.043 HD
ENDBRANCH 109 113
ENDBRANCH 106 109
ENDBRANCH  99 105
ENDBRANCH  97  99
BRANCH  97 117
ATOM    117  O   UNL     1     157.022 171.690 183.655  0.00  0.00    -0.461 OA
BRANCH 117 118
ATOM    118  C   UNL     1     156.810 172.950 184.128  0.00  0.00    +0.304 C 
ATOM    119  O   UNL     1     155.878 173.298 184.838  0.00  0.00    -0.251 OA
BRANCH 118 120
ATOM    120  C   UNL     1     157.919 173.858 183.697  0.00  0.00    +0.033 C 
ATOM    121  H   UNL     1     158.886 173.369 183.843  0.00  0.00    +0.034 HD
ATOM    122  H   UNL     1     157.808 174.079 182.632  0.00  0.00    +0.034 HD
ATOM    123  H   UNL     1     157.866 174.792 184.261  0.00  0.00    +0.034 HD
ENDBRANCH 118 120
ENDBRANCH 117 118
ENDBRANCH  97 117
ENDBRANCH  91  97
ENDBRANCH  89  91
BRANCH  89 124
ATOM    124  O   UNL     1     159.851 170.670 182.475  0.00  0.00    -0.460 OA
BRANCH 124 125
ATOM    125  C   UNL     1     160.521 171.140 183.564  0.00  0.00    +0.324 C 
ATOM    126  O   UNL     1     160.388 170.695 184.702  0.00  0.00    -0.249 OA
BRANCH 125 127
ATOM    127  C   UNL     1     161.423 172.346 183.235  0.00  0.00    +0.105 C 
ATOM    128  H   UNL     1     161.070 173.183 183.852  0.00  0.00    +0.058 HD
BRANCH 127 129
ATOM    129  C   UNL     1     161.165 172.685 181.763  0.00  0.00    -0.039 C 
ATOM    130  H   UNL     1     161.370 171.825 181.117  0.00  0.00    +0.025 HD
ATOM    131  H   UNL     1     160.119 172.973 181.615  0.00  0.00    +0.025 HD
ATOM    132  H   UNL     1     161.773 173.529 181.422  0.00  0.00    +0.025 HD
ENDBRANCH 127 129
BRANCH 127 133
ATOM    133  N   UNL     1     162.863 172.095 183.555  0.00  0.00    -0.296 NA
BRANCH 133 134
ATOM    134  C   UNL     1     163.685 173.272 183.245  0.00  0.00    -0.012 C 
ATOM    135  H   UNL     1     164.627 172.992 182.765  0.00  0.00    +0.039 HD
ATOM    136  H   UNL     1     163.914 173.856 184.144  0.00  0.00    +0.039 HD
ATOM    137  H   UNL     1     163.164 173.925 182.533  0.00  0.00    +0.039 HD
ENDBRANCH 133 134
BRANCH 133 138
ATOM    138  C   UNL     1     163.398 170.938 182.829  0.00  0.00    -0.012 C 
ATOM    139  H   UNL     1     163.908 171.256 181.912  0.00  0.00    +0.039 HD
ATOM    140  H   UNL     1     164.156 170.413 183.421  0.00  0.00    +0.039 HD
ATOM    141  H   UNL     1     162.609 170.228 182.553  0.00  0.00    +0.039 HD
ENDBRANCH 133 138
ENDBRANCH 127 133
ENDBRANCH 125 127
ENDBRANCH 124 125
ENDBRANCH  89 124
ENDBRANCH  86  89
ENDBRANCH  83  86
ENDBRANCH  77  83
ENDBRANCH  75  77
BRANCH  75 142
ATOM    142  O   UNL     1     155.512 168.366 185.911  0.00  0.00    -0.391 OA
ATOM    143  H   UNL     1     156.127 169.107 186.049  0.00  0.00    +0.210 HD
ENDBRANCH  75 142
ENDBRANCH  69  75
ENDBRANCH  14  69
BRANCH  25 144
ATOM    144  O   UNL     1     150.655 157.527 190.469  0.00  0.00    -0.391 OA
ATOM    145  H   UNL     1     150.485 156.598 190.241  0.00  0.00    +0.210 HD
ENDBRANCH  25 144
BRANCH  23 146
ATOM    146  O   UNL     1     149.237 159.716 188.028  0.00  0.00    -0.460 OA
BRANCH 146 147
ATOM    147  C   UNL     1     147.895 159.450 187.953  0.00  0.00    +0.327 C 
ATOM    148  O   UNL     1     147.150 159.866 187.068  0.00  0.00    -0.249 OA
BRANCH 147 149
ATOM    149  C   UNL     1     147.441 158.591 189.143  0.00  0.00    +0.131 C 
ATOM    150  H   UNL     1     148.249 158.605 189.887  0.00  0.00    +0.060 HD
BRANCH 149 151
ATOM    151  C   UNL     1     147.318 157.136 188.655  0.00  0.00    +0.073 C 
ATOM    152  H   UNL     1     146.412 156.680 189.070  0.00  0.00    +0.058 HD
ATOM    153  H   UNL     1     147.268 157.079 187.562  0.00  0.00    +0.058 HD
BRANCH 151 154
ATOM    154  O   UNL     1     148.444 156.387 189.134  0.00  0.00    -0.381 OA
BRANCH 154 155
ATOM    155  C   UNL     1     148.800 155.346 188.233  0.00  0.00    +0.037 C 
ATOM    156  H   UNL     1     147.907 154.864 187.827  0.00  0.00    +0.052 HD
ATOM    157  H   UNL     1     149.379 154.598 188.783  0.00  0.00    +0.052 HD
ATOM    158  H   UNL     1     149.421 155.736 187.422  0.00  0.00    +0.052 HD
ENDBRANCH 154 155
ENDBRANCH 151 154
ENDBRANCH 149 151
BRANCH 149 159
ATOM    159  N   UNL     1     146.168 159.063 189.770  0.00  0.00    -0.294 NA
BRANCH 159 160
ATOM    160  C   UNL     1     145.862 158.319 190.990  0.00  0.00    -0.012 C 
ATOM    161  H   UNL     1     145.882 157.236 190.843  0.00  0.00    +0.039 HD
ATOM    162  H   UNL     1     144.878 158.604 191.364  0.00  0.00    +0.039 HD
ATOM    163  H   UNL     1     146.572 158.565 191.787  0.00  0.00    +0.039 HD
ENDBRANCH 159 160
BRANCH 159 164
ATOM    164  C   UNL     1     146.129 160.505 190.014  0.00  0.00    -0.012 C 
ATOM    165  H   UNL     1     145.307 160.999 189.484  0.00  0.00    +0.039 HD
ATOM    166  H   UNL     1     147.062 160.971 189.680  0.00  0.00    +0.039 HD
ATOM    167  H   UNL     1     146.040 160.727 191.081  0.00  0.00    +0.039 HD
ENDBRANCH 159 164
ENDBRANCH 149 159
ENDBRANCH 147 149
ENDBRANCH 146 147
ENDBRANCH  23 146
BRANCH   4 168
ATOM    168  O   UNL     1     154.577 155.207 188.418  0.00  0.00    -0.376 OA
BRANCH 168 169
ATOM    169  C   UNL     1     153.860 154.191 187.728  0.00  0.00    +0.037 C 
ATOM    170  H   UNL     1     152.803 154.285 187.989  0.00  0.00    +0.052 HD
ATOM    171  H   UNL     1     154.212 153.206 188.044  0.00  0.00    +0.052 HD
ATOM    172  H   UNL     1     153.962 154.302 186.644  0.00  0.00    +0.052 HD
ENDBRANCH 168 169
ENDBRANCH   4 168
BRANCH  10 173
ATOM    173  O   UNL     1     156.881 161.277 187.150  0.00  0.00    -0.376 OA
BRANCH 173 174
ATOM    174  C   UNL     1     155.513 161.338 186.758  0.00  0.00    +0.037 C 
ATOM    175  H   UNL     1     155.193 160.331 186.476  0.00  0.00    +0.052 HD
ATOM    176  H   UNL     1     154.889 161.674 187.589  0.00  0.00    +0.052 HD
ATOM    177  H   UNL     1     155.383 161.997 185.893  0.00  0.00    +0.052 HD
ENDBRANCH 173 174
ENDBRANCH  10 173
TORSDOF 45
ENDMDL
