MODEL 1
REMARK VINA RESULT:      -6.6      0.000      0.000
REMARK  Name = Bistramide A_conf2
REMARK  27 active torsions:
REMARK  status: ('A' for Active; 'I' for Inactive)
REMARK    1  A    between atoms: C_1  and  C_2
REMARK    2  A    between atoms: C_3  and  C_4
REMARK    3  A    between atoms: C_4  and  C_6
REMARK    4  A    between atoms: C_6  and  C_7
REMARK    5  A    between atoms: C_10  and  C_50
REMARK    6  A    between atoms: C_11  and  C_13
REMARK    7  A    between atoms: C_13  and  C_14
REMARK    8  A    between atoms: N_16  and  C_17
REMARK    9  A    between atoms: C_17  and  C_18
REMARK   10  A    between atoms: C_18  and  C_19
REMARK   11  A    between atoms: C_18  and  O_49
REMARK   12  A    between atoms: C_19  and  C_20
REMARK   13  A    between atoms: C_19  and  C_21
REMARK   14  A    between atoms: N_23  and  C_24
REMARK   15  A    between atoms: C_24  and  C_25
REMARK   16  A    between atoms: C_25  and  C_26
REMARK   17  A    between atoms: C_26  and  C_27
REMARK   18  A    between atoms: C_28  and  C_48
REMARK   19  A    between atoms: C_36  and  C_38
REMARK   20  A    between atoms: C_38  and  C_39
REMARK   21  A    between atoms: C_39  and  C_40
REMARK   22  A    between atoms: C_40  and  C_41
REMARK   23  A    between atoms: C_40  and  C_42
REMARK   24  A    between atoms: C_43  and  C_44
REMARK   25  A    between atoms: C_43  and  C_45
REMARK   26  A    between atoms: C_45  and  C_46
REMARK   27  A    between atoms: C_45  and  O_47
REMARK                            x       y       z     vdW  Elec       q    Type
REMARK                         _______ _______ _______ _____ _____    ______ ____
ROOT
ATOM      1  C   UNL     1     147.169 165.719 194.591  0.00  0.00    -0.035 C 
ATOM      2  H   UNL     1     147.273 164.630 194.593  0.00  0.00    +0.028 HD
ATOM      3  H   UNL     1     146.289 165.954 195.206  0.00  0.00    +0.028 HD
ENDROOT
BRANCH   1   4
ATOM      4  C   UNL     1     146.915 166.207 193.171  0.00  0.00    +0.012 C 
ATOM      5  H   UNL     1     147.624 167.003 192.907  0.00  0.00    +0.046 HD
ATOM      6  H   UNL     1     147.039 165.388 192.454  0.00  0.00    +0.046 HD
BRANCH   4   9
ATOM      7  C   UNL     1     144.759 166.481 191.987  0.00  0.00    +0.218 C 
ATOM      8  O   UNL     1     145.128 165.840 191.008  0.00  0.00    -0.275 OA
ATOM      9  N   UNL     1     145.583 166.766 193.055  0.00  0.00    -0.315 N 
ATOM     10  H   UNL     1     145.222 167.312 193.826  0.00  0.00    +0.149 HD
BRANCH   7  11
ATOM     11  C   UNL     1     143.373 167.121 192.091  0.00  0.00    +0.060 C 
ATOM     12  H   UNL     1     142.682 166.536 191.465  0.00  0.00    +0.042 HD
BRANCH  11  13
ATOM     13  C   UNL     1     142.936 166.997 193.552  0.00  0.00    -0.052 C 
ATOM     14  H   UNL     1     143.672 167.458 194.224  0.00  0.00    +0.024 HD
ATOM     15  H   UNL     1     141.981 167.504 193.725  0.00  0.00    +0.024 HD
ATOM     16  H   UNL     1     142.808 165.952 193.844  0.00  0.00    +0.024 HD
ENDBRANCH  11  13
BRANCH  11  17
ATOM     17  C   UNL     1     143.439 168.564 191.553  0.00  0.00    +0.081 C 
ATOM     18  H   UNL     1     143.386 169.299 192.367  0.00  0.00    +0.062 HD
BRANCH  17  19
ATOM     19  C   UNL     1     142.356 168.920 190.519  0.00  0.00    +0.038 C 
ATOM     20  H   UNL     1     142.799 169.039 189.523  0.00  0.00    +0.049 HD
ATOM     21  H   UNL     1     141.582 168.148 190.473  0.00  0.00    +0.049 HD
BRANCH  19  24
ATOM     22  C   UNL     1     141.297 171.126 189.998  0.00  0.00    +0.216 C 
ATOM     23  O   UNL     1     141.593 171.083 188.809  0.00  0.00    -0.276 OA
ATOM     24  N   UNL     1     141.666 170.152 190.900  0.00  0.00    -0.313 N 
ATOM     25  H   UNL     1     141.400 170.259 191.872  0.00  0.00    +0.149 HD
BRANCH  22  26
ATOM     26  C   UNL     1     140.540 172.271 190.631  0.00  0.00    +0.050 C 
ATOM     27  H   UNL     1     140.049 171.876 191.529  0.00  0.00    +0.038 HD
ATOM     28  H   UNL     1     139.727 172.601 189.974  0.00  0.00    +0.038 HD
BRANCH  26  33
ATOM     29  C   UNL     1     143.749 173.720 191.754  0.00  0.00    +0.066 C 
ATOM     30  C   UNL     1     143.337 175.182 191.866  0.00  0.00    -0.026 C 
ATOM     31  C   UNL     1     142.019 175.315 192.622  0.00  0.00    -0.046 C 
ATOM     32  C   UNL     1     141.038 174.168 192.325  0.00  0.00    -0.017 C 
ATOM     33  C   UNL     1     141.436 173.453 191.013  0.00  0.00    +0.070 C 
ATOM     34  O   UNL     1     142.782 172.941 191.043  0.00  0.00    -0.372 OA
ATOM     35  H   UNL     1     143.830 173.293 192.760  0.00  0.00    +0.060 HD
ATOM     36  H   UNL     1     144.112 175.771 192.368  0.00  0.00    +0.029 HD
ATOM     37  H   UNL     1     143.217 175.611 190.864  0.00  0.00    +0.029 HD
ATOM     38  H   UNL     1     142.223 175.385 193.697  0.00  0.00    +0.027 HD
ATOM     39  H   UNL     1     141.557 176.271 192.344  0.00  0.00    +0.027 HD
ATOM     40  H   UNL     1     140.044 174.620 192.202  0.00  0.00    +0.032 HD
ATOM     41  H   UNL     1     141.393 174.182 190.194  0.00  0.00    +0.060 HD
BRANCH  32  42
ATOM     42  C   UNL     1     140.930 173.217 193.525  0.00  0.00    -0.060 C 
ATOM     43  H   UNL     1     139.987 172.666 193.536  0.00  0.00    +0.023 HD
ATOM     44  H   UNL     1     141.010 173.765 194.464  0.00  0.00    +0.023 HD
ATOM     45  H   UNL     1     141.753 172.491 193.514  0.00  0.00    +0.023 HD
ENDBRANCH  32  42
BRANCH  29  46
ATOM     46  C   UNL     1     145.089 173.579 191.035  0.00  0.00    +0.036 C 
ATOM     47  H   UNL     1     145.688 174.492 191.116  0.00  0.00    +0.037 HD
ATOM     48  H   UNL     1     144.932 173.379 189.970  0.00  0.00    +0.037 HD
BRANCH  46  49
ATOM     49  C   UNL     1     145.902 172.465 191.659  0.00  0.00    +0.158 C 
ATOM     50  O   UNL     1     145.759 171.291 191.318  0.00  0.00    -0.293 OA
BRANCH  49  52
ATOM     51  C   UNL     1     148.194 172.800 192.516  0.00  0.00    -0.084 C 
ATOM     52  C   UNL     1     146.870 172.850 192.730  0.00  0.00    -0.023 C 
ATOM     53  H   UNL     1     148.573 172.480 191.546  0.00  0.00    +0.057 HD
ATOM     54  H   UNL     1     146.461 173.169 193.682  0.00  0.00    +0.065 HD
BRANCH  51  55
ATOM     55  C   UNL     1     149.214 173.143 193.548  0.00  0.00    -0.046 C 
ATOM     56  H   UNL     1     150.022 173.765 193.141  0.00  0.00    +0.027 HD
ATOM     57  H   UNL     1     149.661 172.231 193.967  0.00  0.00    +0.027 HD
ATOM     58  H   UNL     1     148.743 173.696 194.369  0.00  0.00    +0.027 HD
ENDBRANCH  51  55
ENDBRANCH  49  52
ENDBRANCH  46  49
ENDBRANCH  29  46
ENDBRANCH  26  33
ENDBRANCH  22  26
ENDBRANCH  19  24
ENDBRANCH  17  19
BRANCH  17  59
ATOM     59  O   UNL     1     144.731 168.726 190.939  0.00  0.00    -0.390 OA
ATOM     60  H   UNL     1     144.588 169.174 190.086  0.00  0.00    +0.210 HD
ENDBRANCH  17  59
ENDBRANCH  11  17
ENDBRANCH   7  11
ENDBRANCH   4   9
ENDBRANCH   1   4
BRANCH   1  61
ATOM     61  C   UNL     1     148.409 166.370 195.208  0.00  0.00    -0.025 C 
ATOM     62  H   UNL     1     148.182 167.426 195.406  0.00  0.00    +0.029 HD
ATOM     63  H   UNL     1     148.630 165.889 196.168  0.00  0.00    +0.029 HD
BRANCH  61  64
ATOM     64  C   UNL     1     149.630 166.269 194.275  0.00  0.00    +0.065 C 
ATOM     65  C   UNL     1     150.933 166.002 195.061  0.00  0.00    -0.017 C 
ATOM     66  C   UNL     1     152.170 166.461 194.267  0.00  0.00    -0.043 C 
ATOM     67  C   UNL     1     151.868 166.509 192.775  0.00  0.00    +0.002 C 
ATOM     68  C   UNL     1     150.678 167.447 192.472  0.00  0.00    +0.171 C 
ATOM     69  O   UNL     1     149.770 167.512 193.583  0.00  0.00    -0.345 OA
ATOM     70  C   UNL     1     151.172 168.878 192.206  0.00  0.00    +0.002 C 
ATOM     71  C   UNL     1     150.014 169.821 191.870  0.00  0.00    -0.046 C 
ATOM     72  C   UNL     1     148.854 169.089 191.201  0.00  0.00    -0.026 C 
ATOM     73  C   UNL     1     149.349 167.846 190.466  0.00  0.00    +0.062 C 
ATOM     74  O   UNL     1     150.009 166.908 191.325  0.00  0.00    -0.345 OA
ATOM     75  H   UNL     1     149.442 165.469 193.545  0.00  0.00    +0.060 HD
ATOM     76  H   UNL     1     150.923 166.588 195.991  0.00  0.00    +0.032 HD
ATOM     77  H   UNL     1     153.033 165.812 194.458  0.00  0.00    +0.027 HD
ATOM     78  H   UNL     1     152.459 167.466 194.605  0.00  0.00    +0.027 HD
ATOM     79  H   UNL     1     151.640 165.491 192.431  0.00  0.00    +0.032 HD
ATOM     80  H   UNL     1     152.762 166.813 192.209  0.00  0.00    +0.032 HD
ATOM     81  H   UNL     1     151.867 168.873 191.359  0.00  0.00    +0.032 HD
ATOM     82  H   UNL     1     151.715 169.281 193.068  0.00  0.00    +0.032 HD
ATOM     83  H   UNL     1     149.654 170.315 192.778  0.00  0.00    +0.027 HD
ATOM     84  H   UNL     1     150.386 170.619 191.217  0.00  0.00    +0.027 HD
ATOM     85  H   UNL     1     148.139 168.809 191.982  0.00  0.00    +0.029 HD
ATOM     86  H   UNL     1     148.332 169.771 190.520  0.00  0.00    +0.029 HD
ATOM     87  H   UNL     1     150.084 168.156 189.714  0.00  0.00    +0.060 HD
BRANCH  65  88
ATOM     88  C   UNL     1     151.052 164.523 195.461  0.00  0.00    -0.060 C 
ATOM     89  H   UNL     1     150.441 163.899 194.803  0.00  0.00    +0.023 HD
ATOM     90  H   UNL     1     150.714 164.368 196.491  0.00  0.00    +0.023 HD
ATOM     91  H   UNL     1     152.084 164.175 195.382  0.00  0.00    +0.023 HD
ENDBRANCH  65  88
BRANCH  73  92
ATOM     92  C   UNL     1     148.225 167.109 189.714  0.00  0.00    -0.026 C 
ATOM     93  H   UNL     1     148.013 167.663 188.787  0.00  0.00    +0.029 HD
ATOM     94  H   UNL     1     147.317 167.118 190.330  0.00  0.00    +0.029 HD
BRANCH  92  95
ATOM     95  C   UNL     1     148.596 165.669 189.333  0.00  0.00    -0.045 C 
ATOM     96  H   UNL     1     147.686 165.086 189.152  0.00  0.00    +0.027 HD
ATOM     97  H   UNL     1     149.109 165.200 190.183  0.00  0.00    +0.027 HD
BRANCH  95  98
ATOM     98  C   UNL     1     149.517 165.573 188.097  0.00  0.00    -0.025 C 
ATOM     99  H   UNL     1     149.562 166.564 187.637  0.00  0.00    +0.034 HD
BRANCH  98 100
ATOM    100  C   UNL     1     148.992 164.590 187.053  0.00  0.00    -0.059 C 
ATOM    101  H   UNL     1     147.896 164.581 187.025  0.00  0.00    +0.024 HD
ATOM    102  H   UNL     1     149.337 163.570 187.269  0.00  0.00    +0.024 HD
ATOM    103  H   UNL     1     149.354 164.849 186.053  0.00  0.00    +0.024 HD
ENDBRANCH  98 100
BRANCH  98 104
ATOM    104  C   UNL     1     150.889 165.131 188.563  0.00  0.00    -0.080 C 
ATOM    105  C   UNL     1     152.018 165.866 188.668  0.00  0.00    -0.048 C 
ATOM    106  H   UNL     1     150.921 164.090 188.884  0.00  0.00    +0.058 HD
BRANCH 105 107
ATOM    107  C   UNL     1     152.125 167.307 188.238  0.00  0.00    -0.041 C 
ATOM    108  H   UNL     1     152.052 167.971 189.106  0.00  0.00    +0.028 HD
ATOM    109  H   UNL     1     151.352 167.605 187.525  0.00  0.00    +0.028 HD
ATOM    110  H   UNL     1     153.080 167.499 187.740  0.00  0.00    +0.028 HD
ENDBRANCH 105 107
BRANCH 105 111
ATOM    111  C   UNL     1     153.273 165.259 189.263  0.00  0.00    +0.073 C 
ATOM    112  H   UNL     1     153.072 164.889 190.275  0.00  0.00    +0.064 HD
BRANCH 111 113
ATOM    113  C   UNL     1     154.422 166.256 189.335  0.00  0.00    -0.035 C 
ATOM    114  H   UNL     1     154.240 167.127 188.693  0.00  0.00    +0.026 HD
ATOM    115  H   UNL     1     154.591 166.607 190.357  0.00  0.00    +0.026 HD
ATOM    116  H   UNL     1     155.349 165.797 188.971  0.00  0.00    +0.026 HD
ENDBRANCH 111 113
BRANCH 111 117
ATOM    117  O   UNL     1     153.653 164.132 188.480  0.00  0.00    -0.388 OA
ATOM    118  H   UNL     1     153.938 163.437 189.096  0.00  0.00    +0.210 HD
ENDBRANCH 111 117
ENDBRANCH 105 111
ENDBRANCH  98 104
ENDBRANCH  95  98
ENDBRANCH  92  95
ENDBRANCH  73  92
ENDBRANCH  61  64
ENDBRANCH   1  61
TORSDOF 27
ENDMDL
MODEL 2
REMARK VINA RESULT:      -6.5      1.513      2.210
REMARK  Name = Bistramide A_conf2
REMARK  27 active torsions:
REMARK  status: ('A' for Active; 'I' for Inactive)
REMARK    1  A    between atoms: C_1  and  C_2
REMARK    2  A    between atoms: C_3  and  C_4
REMARK    3  A    between atoms: C_4  and  C_6
REMARK    4  A    between atoms: C_6  and  C_7
REMARK    5  A    between atoms: C_10  and  C_50
REMARK    6  A    between atoms: C_11  and  C_13
REMARK    7  A    between atoms: C_13  and  C_14
REMARK    8  A    between atoms: N_16  and  C_17
REMARK    9  A    between atoms: C_17  and  C_18
REMARK   10  A    between atoms: C_18  and  C_19
REMARK   11  A    between atoms: C_18  and  O_49
REMARK   12  A    between atoms: C_19  and  C_20
REMARK   13  A    between atoms: C_19  and  C_21
REMARK   14  A    between atoms: N_23  and  C_24
REMARK   15  A    between atoms: C_24  and  C_25
REMARK   16  A    between atoms: C_25  and  C_26
REMARK   17  A    between atoms: C_26  and  C_27
REMARK   18  A    between atoms: C_28  and  C_48
REMARK   19  A    between atoms: C_36  and  C_38
REMARK   20  A    between atoms: C_38  and  C_39
REMARK   21  A    between atoms: C_39  and  C_40
REMARK   22  A    between atoms: C_40  and  C_41
REMARK   23  A    between atoms: C_40  and  C_42
REMARK   24  A    between atoms: C_43  and  C_44
REMARK   25  A    between atoms: C_43  and  C_45
REMARK   26  A    between atoms: C_45  and  C_46
REMARK   27  A    between atoms: C_45  and  O_47
REMARK                            x       y       z     vdW  Elec       q    Type
REMARK                         _______ _______ _______ _____ _____    ______ ____
ROOT
ATOM      1  C   UNL     1     147.131 166.978 192.670  0.00  0.00    -0.035 C 
ATOM      2  H   UNL     1     146.749 167.851 192.132  0.00  0.00    +0.028 HD
ATOM      3  H   UNL     1     147.906 166.529 192.034  0.00  0.00    +0.028 HD
ENDROOT
BRANCH   1   4
ATOM      4  C   UNL     1     146.011 165.965 192.861  0.00  0.00    +0.012 C 
ATOM      5  H   UNL     1     146.046 165.201 192.071  0.00  0.00    +0.046 HD
ATOM      6  H   UNL     1     146.109 165.459 193.828  0.00  0.00    +0.046 HD
BRANCH   4   9
ATOM      7  C   UNL     1     143.955 166.569 191.624  0.00  0.00    +0.218 C 
ATOM      8  O   UNL     1     144.357 166.091 190.568  0.00  0.00    -0.275 OA
ATOM      9  N   UNL     1     144.718 166.612 192.772  0.00  0.00    -0.315 N 
ATOM     10  H   UNL     1     144.332 167.033 193.606  0.00  0.00    +0.149 HD
BRANCH   7  11
ATOM     11  C   UNL     1     142.596 167.259 191.762  0.00  0.00    +0.060 C 
ATOM     12  H   UNL     1     141.937 166.872 190.971  0.00  0.00    +0.042 HD
BRANCH  11  13
ATOM     13  C   UNL     1     142.026 166.849 193.121  0.00  0.00    -0.052 C 
ATOM     14  H   UNL     1     141.062 167.339 193.309  0.00  0.00    +0.024 HD
ATOM     15  H   UNL     1     141.852 165.769 193.169  0.00  0.00    +0.024 HD
ATOM     16  H   UNL     1     142.708 167.105 193.935  0.00  0.00    +0.024 HD
ENDBRANCH  11  13
BRANCH  11  17
ATOM     17  C   UNL     1     142.777 168.778 191.566  0.00  0.00    +0.081 C 
ATOM     18  H   UNL     1     142.609 169.326 192.503  0.00  0.00    +0.062 HD
BRANCH  17  19
ATOM     19  C   UNL     1     141.880 169.403 190.482  0.00  0.00    +0.038 C 
ATOM     20  H   UNL     1     142.459 169.606 189.574  0.00  0.00    +0.049 HD
ATOM     21  H   UNL     1     141.044 168.742 190.230  0.00  0.00    +0.049 HD
BRANCH  19  24
ATOM     22  C   UNL     1     140.760 171.613 190.135  0.00  0.00    +0.216 C 
ATOM     23  O   UNL     1     140.845 171.559 188.913  0.00  0.00    -0.276 OA
ATOM     24  N   UNL     1     141.274 170.643 190.967  0.00  0.00    -0.313 N 
ATOM     25  H   UNL     1     141.182 170.758 191.970  0.00  0.00    +0.149 HD
BRANCH  22  26
ATOM     26  C   UNL     1     140.131 172.768 190.881  0.00  0.00    +0.050 C 
ATOM     27  H   UNL     1     139.617 172.348 191.753  0.00  0.00    +0.038 HD
ATOM     28  H   UNL     1     139.346 173.231 190.273  0.00  0.00    +0.038 HD
BRANCH  26  33
ATOM     29  C   UNL     1     143.523 173.814 191.911  0.00  0.00    +0.066 C 
ATOM     30  C   UNL     1     143.242 175.273 192.250  0.00  0.00    -0.026 C 
ATOM     31  C   UNL     1     141.999 175.393 193.126  0.00  0.00    -0.046 C 
ATOM     32  C   UNL     1     140.907 174.370 192.763  0.00  0.00    -0.017 C 
ATOM     33  C   UNL     1     141.147 173.819 191.339  0.00  0.00    +0.070 C 
ATOM     34  O   UNL     1     142.445 173.212 191.187  0.00  0.00    -0.372 OA
ATOM     35  H   UNL     1     143.643 173.247 192.840  0.00  0.00    +0.060 HD
ATOM     36  H   UNL     1     144.097 175.729 192.759  0.00  0.00    +0.029 HD
ATOM     37  H   UNL     1     143.083 175.843 191.328  0.00  0.00    +0.029 HD
ATOM     38  H   UNL     1     142.286 175.298 194.179  0.00  0.00    +0.027 HD
ATOM     39  H   UNL     1     141.597 176.408 193.018  0.00  0.00    +0.027 HD
ATOM     40  H   UNL     1     139.948 174.905 192.785  0.00  0.00    +0.032 HD
ATOM     41  H   UNL     1     141.104 174.656 190.631  0.00  0.00    +0.060 HD
BRANCH  32  42
ATOM     42  C   UNL     1     140.811 173.272 193.831  0.00  0.00    -0.060 C 
ATOM     43  H   UNL     1     141.651 173.296 194.529  0.00  0.00    +0.023 HD
ATOM     44  H   UNL     1     140.784 172.284 193.372  0.00  0.00    +0.023 HD
ATOM     45  H   UNL     1     139.883 173.377 194.407  0.00  0.00    +0.023 HD
ENDBRANCH  32  42
BRANCH  29  46
ATOM     46  C   UNL     1     144.790 173.680 191.069  0.00  0.00    +0.036 C 
ATOM     47  H   UNL     1     145.347 174.621 191.025  0.00  0.00    +0.037 HD
ATOM     48  H   UNL     1     144.538 173.395 190.042  0.00  0.00    +0.037 HD
BRANCH  46  49
ATOM     49  C   UNL     1     145.717 172.651 191.681  0.00  0.00    +0.158 C 
ATOM     50  O   UNL     1     145.594 171.449 191.446  0.00  0.00    -0.293 OA
BRANCH  49  52
ATOM     51  C   UNL     1     147.920 172.481 192.785  0.00  0.00    -0.084 C 
ATOM     52  C   UNL     1     146.775 173.157 192.607  0.00  0.00    -0.023 C 
ATOM     53  H   UNL     1     148.088 171.550 192.242  0.00  0.00    +0.057 HD
ATOM     54  H   UNL     1     146.579 174.088 193.126  0.00  0.00    +0.065 HD
BRANCH  51  55
ATOM     55  C   UNL     1     149.003 172.914 193.713  0.00  0.00    -0.046 C 
ATOM     56  H   UNL     1     149.734 173.569 193.221  0.00  0.00    +0.027 HD
ATOM     57  H   UNL     1     149.540 172.042 194.113  0.00  0.00    +0.027 HD
ATOM     58  H   UNL     1     148.573 173.462 194.558  0.00  0.00    +0.027 HD
ENDBRANCH  51  55
ENDBRANCH  49  52
ENDBRANCH  46  49
ENDBRANCH  29  46
ENDBRANCH  26  33
ENDBRANCH  22  26
ENDBRANCH  19  24
ENDBRANCH  17  19
BRANCH  17  59
ATOM     59  O   UNL     1     144.153 168.995 191.204  0.00  0.00    -0.390 OA
ATOM     60  H   UNL     1     144.216 169.901 190.852  0.00  0.00    +0.210 HD
ENDBRANCH  17  59
ENDBRANCH  11  17
ENDBRANCH   7  11
ENDBRANCH   4   9
ENDBRANCH   1   4
BRANCH   1  61
ATOM     61  C   UNL     1     147.750 167.407 194.002  0.00  0.00    -0.025 C 
ATOM     62  H   UNL     1     148.097 168.445 193.902  0.00  0.00    +0.029 HD
ATOM     63  H   UNL     1     146.981 167.384 194.782  0.00  0.00    +0.029 HD
BRANCH  61  64
ATOM     64  C   UNL     1     148.932 166.504 194.400  0.00  0.00    +0.065 C 
ATOM     65  C   UNL     1     149.240 166.593 195.910  0.00  0.00    -0.017 C 
ATOM     66  C   UNL     1     150.695 166.187 196.210  0.00  0.00    -0.043 C 
ATOM     67  C   UNL     1     151.247 165.295 195.105  0.00  0.00    +0.002 C 
ATOM     68  C   UNL     1     151.174 165.995 193.729  0.00  0.00    +0.171 C 
ATOM     69  O   UNL     1     150.089 166.933 193.678  0.00  0.00    -0.345 OA
ATOM     70  C   UNL     1     152.466 166.779 193.454  0.00  0.00    +0.002 C 
ATOM     71  C   UNL     1     152.433 167.455 192.081  0.00  0.00    -0.046 C 
ATOM     72  C   UNL     1     151.572 166.686 191.083  0.00  0.00    -0.026 C 
ATOM     73  C   UNL     1     151.514 165.204 191.446  0.00  0.00    +0.062 C 
ATOM     74  O   UNL     1     150.975 164.965 192.753  0.00  0.00    -0.345 OA
ATOM     75  H   UNL     1     148.690 165.471 194.110  0.00  0.00    +0.060 HD
ATOM     76  H   UNL     1     149.131 167.635 196.242  0.00  0.00    +0.032 HD
ATOM     77  H   UNL     1     150.780 165.683 197.181  0.00  0.00    +0.027 HD
ATOM     78  H   UNL     1     151.312 167.094 196.278  0.00  0.00    +0.027 HD
ATOM     79  H   UNL     1     150.663 164.364 195.084  0.00  0.00    +0.032 HD
ATOM     80  H   UNL     1     152.277 164.986 195.336  0.00  0.00    +0.032 HD
ATOM     81  H   UNL     1     153.322 166.095 193.479  0.00  0.00    +0.032 HD
ATOM     82  H   UNL     1     152.641 167.544 194.218  0.00  0.00    +0.032 HD
ATOM     83  H   UNL     1     152.054 168.478 192.171  0.00  0.00    +0.027 HD
ATOM     84  H   UNL     1     153.459 167.544 191.705  0.00  0.00    +0.027 HD
ATOM     85  H   UNL     1     150.567 167.121 191.102  0.00  0.00    +0.029 HD
ATOM     86  H   UNL     1     151.964 166.830 190.069  0.00  0.00    +0.029 HD
ATOM     87  H   UNL     1     152.535 164.806 191.449  0.00  0.00    +0.060 HD
BRANCH  65  88
ATOM     88  C   UNL     1     148.253 165.751 196.734  0.00  0.00    -0.060 C 
ATOM     89  H   UNL     1     147.234 166.132 196.616  0.00  0.00    +0.023 HD
ATOM     90  H   UNL     1     148.508 165.781 197.799  0.00  0.00    +0.023 HD
ATOM     91  H   UNL     1     148.255 164.709 196.409  0.00  0.00    +0.023 HD
ENDBRANCH  65  88
BRANCH  73  92
ATOM     92  C   UNL     1     150.713 164.369 190.429  0.00  0.00    -0.026 C 
ATOM     93  H   UNL     1     151.220 163.402 190.305  0.00  0.00    +0.029 HD
ATOM     94  H   UNL     1     150.720 164.884 189.460  0.00  0.00    +0.029 HD
BRANCH  92  95
ATOM     95  C   UNL     1     149.270 164.096 190.876  0.00  0.00    -0.045 C 
ATOM     96  H   UNL     1     149.145 164.386 191.925  0.00  0.00    +0.027 HD
ATOM     97  H   UNL     1     149.082 163.016 190.822  0.00  0.00    +0.027 HD
BRANCH  95  98
ATOM     98  C   UNL     1     148.208 164.819 190.019  0.00  0.00    -0.025 C 
ATOM     99  H   UNL     1     147.793 165.633 190.619  0.00  0.00    +0.034 HD
BRANCH  98 100
ATOM    100  C   UNL     1     147.060 163.898 189.611  0.00  0.00    -0.059 C 
ATOM    101  H   UNL     1     147.423 163.027 189.053  0.00  0.00    +0.024 HD
ATOM    102  H   UNL     1     146.337 164.431 188.979  0.00  0.00    +0.024 HD
ATOM    103  H   UNL     1     146.517 163.536 190.490  0.00  0.00    +0.024 HD
ENDBRANCH  98 100
BRANCH  98 104
ATOM    104  C   UNL     1     148.891 165.357 188.777  0.00  0.00    -0.080 C 
ATOM    105  C   UNL     1     148.938 166.631 188.330  0.00  0.00    -0.048 C 
ATOM    106  H   UNL     1     149.436 164.594 188.221  0.00  0.00    +0.058 HD
BRANCH 105 107
ATOM    107  C   UNL     1     148.212 167.779 188.984  0.00  0.00    -0.041 C 
ATOM    108  H   UNL     1     147.751 168.421 188.227  0.00  0.00    +0.028 HD
ATOM    109  H   UNL     1     148.862 168.406 189.601  0.00  0.00    +0.028 HD
ATOM    110  H   UNL     1     147.425 167.417 189.652  0.00  0.00    +0.028 HD
ENDBRANCH 105 107
BRANCH 105 111
ATOM    111  C   UNL     1     149.770 166.983 187.114  0.00  0.00    +0.073 C 
ATOM    112  H   UNL     1     149.649 166.219 186.336  0.00  0.00    +0.064 HD
BRANCH 111 113
ATOM    113  C   UNL     1     151.253 167.105 187.440  0.00  0.00    -0.035 C 
ATOM    114  H   UNL     1     151.615 168.129 187.289  0.00  0.00    +0.026 HD
ATOM    115  H   UNL     1     151.468 166.810 188.471  0.00  0.00    +0.026 HD
ATOM    116  H   UNL     1     151.845 166.469 186.770  0.00  0.00    +0.026 HD
ENDBRANCH 111 113
BRANCH 111 117
ATOM    117  O   UNL     1     149.289 168.207 186.566  0.00  0.00    -0.388 OA
ATOM    118  H   UNL     1     148.375 168.318 186.872  0.00  0.00    +0.210 HD
ENDBRANCH 111 117
ENDBRANCH 105 111
ENDBRANCH  98 104
ENDBRANCH  95  98
ENDBRANCH  92  95
ENDBRANCH  73  92
ENDBRANCH  61  64
ENDBRANCH   1  61
TORSDOF 27
ENDMDL
MODEL 3
REMARK VINA RESULT:      -6.5      5.073     11.613
REMARK  Name = Bistramide A_conf2
REMARK  27 active torsions:
REMARK  status: ('A' for Active; 'I' for Inactive)
REMARK    1  A    between atoms: C_1  and  C_2
REMARK    2  A    between atoms: C_3  and  C_4
REMARK    3  A    between atoms: C_4  and  C_6
REMARK    4  A    between atoms: C_6  and  C_7
REMARK    5  A    between atoms: C_10  and  C_50
REMARK    6  A    between atoms: C_11  and  C_13
REMARK    7  A    between atoms: C_13  and  C_14
REMARK    8  A    between atoms: N_16  and  C_17
REMARK    9  A    between atoms: C_17  and  C_18
REMARK   10  A    between atoms: C_18  and  C_19
REMARK   11  A    between atoms: C_18  and  O_49
REMARK   12  A    between atoms: C_19  and  C_20
REMARK   13  A    between atoms: C_19  and  C_21
REMARK   14  A    between atoms: N_23  and  C_24
REMARK   15  A    between atoms: C_24  and  C_25
REMARK   16  A    between atoms: C_25  and  C_26
REMARK   17  A    between atoms: C_26  and  C_27
REMARK   18  A    between atoms: C_28  and  C_48
REMARK   19  A    between atoms: C_36  and  C_38
REMARK   20  A    between atoms: C_38  and  C_39
REMARK   21  A    between atoms: C_39  and  C_40
REMARK   22  A    between atoms: C_40  and  C_41
REMARK   23  A    between atoms: C_40  and  C_42
REMARK   24  A    between atoms: C_43  and  C_44
REMARK   25  A    between atoms: C_43  and  C_45
REMARK   26  A    between atoms: C_45  and  C_46
REMARK   27  A    between atoms: C_45  and  O_47
REMARK                            x       y       z     vdW  Elec       q    Type
REMARK                         _______ _______ _______ _____ _____    ______ ____
ROOT
ATOM      1  C   UNL     1     151.056 165.603 191.736  0.00  0.00    -0.035 C 
ATOM      2  H   UNL     1     151.130 164.673 191.164  0.00  0.00    +0.028 HD
ATOM      3  H   UNL     1     150.120 166.089 191.427  0.00  0.00    +0.028 HD
ENDROOT
BRANCH   1   4
ATOM      4  C   UNL     1     152.220 166.517 191.379  0.00  0.00    +0.012 C 
ATOM      5  H   UNL     1     152.125 167.480 191.901  0.00  0.00    +0.046 HD
ATOM      6  H   UNL     1     153.172 166.063 191.675  0.00  0.00    +0.046 HD
BRANCH   4   9
ATOM      7  C   UNL     1     152.833 165.960 189.047  0.00  0.00    +0.218 C 
ATOM      8  O   UNL     1     153.504 164.985 189.375  0.00  0.00    -0.275 OA
ATOM      9  N   UNL     1     152.229 166.800 189.959  0.00  0.00    -0.315 N 
ATOM     10  H   UNL     1     151.702 167.595 189.624  0.00  0.00    +0.149 HD
BRANCH   7  11
ATOM     11  C   UNL     1     152.671 166.409 187.594  0.00  0.00    +0.060 C 
ATOM     12  H   UNL     1     152.596 165.508 186.967  0.00  0.00    +0.042 HD
BRANCH  11  13
ATOM     13  C   UNL     1     151.350 167.177 187.511  0.00  0.00    -0.052 C 
ATOM     14  H   UNL     1     150.636 166.814 188.261  0.00  0.00    +0.024 HD
ATOM     15  H   UNL     1     151.499 168.245 187.699  0.00  0.00    +0.024 HD
ATOM     16  H   UNL     1     150.893 167.081 186.524  0.00  0.00    +0.024 HD
ENDBRANCH  11  13
BRANCH  11  17
ATOM     17  C   UNL     1     153.917 167.213 187.170  0.00  0.00    +0.081 C 
ATOM     18  H   UNL     1     153.663 168.259 186.950  0.00  0.00    +0.062 HD
BRANCH  17  19
ATOM     19  C   UNL     1     154.676 166.643 185.958  0.00  0.00    +0.038 C 
ATOM     20  H   UNL     1     154.363 165.610 185.761  0.00  0.00    +0.049 HD
ATOM     21  H   UNL     1     154.500 167.245 185.062  0.00  0.00    +0.049 HD
BRANCH  19  24
ATOM     22  C   UNL     1     157.047 166.241 185.272  0.00  0.00    +0.216 C 
ATOM     23  O   UNL     1     156.738 165.694 184.219  0.00  0.00    -0.276 OA
ATOM     24  N   UNL     1     156.120 166.684 186.189  0.00  0.00    -0.313 N 
ATOM     25  H   UNL     1     156.445 167.115 187.047  0.00  0.00    +0.149 HD
BRANCH  22  26
ATOM     26  C   UNL     1     158.476 166.451 185.719  0.00  0.00    +0.050 C 
ATOM     27  H   UNL     1     159.095 165.730 185.171  0.00  0.00    +0.038 HD
ATOM     28  H   UNL     1     158.587 166.187 186.777  0.00  0.00    +0.038 HD
BRANCH  26  33
ATOM     29  C   UNL     1     158.065 169.910 184.483  0.00  0.00    +0.066 C 
ATOM     30  C   UNL     1     159.477 170.429 184.720  0.00  0.00    -0.026 C 
ATOM     31  C   UNL     1     160.511 169.441 184.190  0.00  0.00    -0.046 C 
ATOM     32  C   UNL     1     160.093 167.972 184.383  0.00  0.00    -0.017 C 
ATOM     33  C   UNL     1     158.990 167.871 185.462  0.00  0.00    +0.070 C 
ATOM     34  O   UNL     1     157.830 168.665 185.150  0.00  0.00    -0.372 OA
ATOM     35  H   UNL     1     157.923 169.733 183.411  0.00  0.00    +0.060 HD
ATOM     36  H   UNL     1     159.622 171.405 184.244  0.00  0.00    +0.029 HD
ATOM     37  H   UNL     1     159.643 170.575 185.794  0.00  0.00    +0.029 HD
ATOM     38  H   UNL     1     160.707 169.654 183.133  0.00  0.00    +0.027 HD
ATOM     39  H   UNL     1     161.460 169.621 184.711  0.00  0.00    +0.027 HD
ATOM     40  H   UNL     1     160.983 167.429 184.726  0.00  0.00    +0.032 HD
ATOM     41  H   UNL     1     159.393 168.256 186.407  0.00  0.00    +0.060 HD
BRANCH  32  42
ATOM     42  C   UNL     1     159.693 167.338 183.044  0.00  0.00    -0.060 C 
ATOM     43  H   UNL     1     158.637 167.492 182.811  0.00  0.00    +0.023 HD
ATOM     44  H   UNL     1     159.883 166.265 183.050  0.00  0.00    +0.023 HD
ATOM     45  H   UNL     1     160.291 167.759 182.226  0.00  0.00    +0.023 HD
ENDBRANCH  32  42
BRANCH  29  46
ATOM     46  C   UNL     1     157.021 170.911 184.973  0.00  0.00    +0.036 C 
ATOM     47  H   UNL     1     157.454 171.637 185.668  0.00  0.00    +0.037 HD
ATOM     48  H   UNL     1     156.210 170.394 185.496  0.00  0.00    +0.037 HD
BRANCH  46  49
ATOM     49  C   UNL     1     156.466 171.701 183.806  0.00  0.00    +0.158 C 
ATOM     50  O   UNL     1     155.672 171.203 183.008  0.00  0.00    -0.293 OA
BRANCH  49  52
ATOM     51  C   UNL     1     158.032 173.387 182.910  0.00  0.00    -0.084 C 
ATOM     52  C   UNL     1     156.947 173.107 183.648  0.00  0.00    -0.023 C 
ATOM     53  H   UNL     1     158.569 172.581 182.410  0.00  0.00    +0.057 HD
ATOM     54  H   UNL     1     156.387 173.885 184.153  0.00  0.00    +0.065 HD
BRANCH  51  55
ATOM     55  C   UNL     1     158.582 174.761 182.733  0.00  0.00    -0.046 C 
ATOM     56  H   UNL     1     158.897 175.208 183.685  0.00  0.00    +0.027 HD
ATOM     57  H   UNL     1     157.832 175.421 182.276  0.00  0.00    +0.027 HD
ATOM     58  H   UNL     1     159.454 174.730 182.069  0.00  0.00    +0.027 HD
ENDBRANCH  51  55
ENDBRANCH  49  52
ENDBRANCH  46  49
ENDBRANCH  29  46
ENDBRANCH  26  33
ENDBRANCH  22  26
ENDBRANCH  19  24
ENDBRANCH  17  19
BRANCH  17  59
ATOM     59  O   UNL     1     154.808 167.237 188.300  0.00  0.00    -0.390 OA
ATOM     60  H   UNL     1     155.525 166.607 188.112  0.00  0.00    +0.210 HD
ENDBRANCH  17  59
ENDBRANCH  11  17
ENDBRANCH   7  11
ENDBRANCH   4   9
ENDBRANCH   1   4
BRANCH   1  61
ATOM     61  C   UNL     1     151.002 165.300 193.235  0.00  0.00    -0.025 C 
ATOM     62  H   UNL     1     150.812 164.226 193.363  0.00  0.00    +0.029 HD
ATOM     63  H   UNL     1     151.977 165.523 193.683  0.00  0.00    +0.029 HD
BRANCH  61  64
ATOM     64  C   UNL     1     149.900 166.109 193.942  0.00  0.00    +0.065 C 
ATOM     65  C   UNL     1     149.680 165.633 195.395  0.00  0.00    -0.017 C 
ATOM     66  C   UNL     1     148.271 165.999 195.897  0.00  0.00    -0.043 C 
ATOM     67  C   UNL     1     147.702 167.172 195.108  0.00  0.00    +0.002 C 
ATOM     68  C   UNL     1     147.652 166.861 193.596  0.00  0.00    +0.171 C 
ATOM     69  O   UNL     1     148.678 165.929 193.220  0.00  0.00    -0.345 OA
ATOM     70  C   UNL     1     146.304 166.226 193.220  0.00  0.00    +0.002 C 
ATOM     71  C   UNL     1     146.215 165.939 191.719  0.00  0.00    -0.046 C 
ATOM     72  C   UNL     1     147.055 166.912 190.898  0.00  0.00    -0.026 C 
ATOM     73  C   UNL     1     147.217 168.241 191.632  0.00  0.00    +0.062 C 
ATOM     74  O   UNL     1     147.848 168.105 192.912  0.00  0.00    -0.345 OA
ATOM     75  H   UNL     1     150.180 167.172 193.916  0.00  0.00    +0.060 HD
ATOM     76  H   UNL     1     149.751 164.537 195.432  0.00  0.00    +0.032 HD
ATOM     77  H   UNL     1     148.273 166.230 196.969  0.00  0.00    +0.027 HD
ATOM     78  H   UNL     1     147.610 165.130 195.770  0.00  0.00    +0.027 HD
ATOM     79  H   UNL     1     148.334 168.053 195.289  0.00  0.00    +0.032 HD
ATOM     80  H   UNL     1     146.707 167.446 195.487  0.00  0.00    +0.032 HD
ATOM     81  H   UNL     1     145.490 166.910 193.486  0.00  0.00    +0.032 HD
ATOM     82  H   UNL     1     146.135 165.292 193.767  0.00  0.00    +0.032 HD
ATOM     83  H   UNL     1     146.542 164.915 191.510  0.00  0.00    +0.027 HD
ATOM     84  H   UNL     1     145.165 165.991 191.410  0.00  0.00    +0.027 HD
ATOM     85  H   UNL     1     148.034 166.451 190.727  0.00  0.00    +0.029 HD
ATOM     86  H   UNL     1     146.595 167.057 189.913  0.00  0.00    +0.029 HD
ATOM     87  H   UNL     1     146.222 168.661 191.814  0.00  0.00    +0.060 HD
BRANCH  65  88
ATOM     88  C   UNL     1     150.761 166.189 196.335  0.00  0.00    -0.060 C 
ATOM     89  H   UNL     1     150.713 167.281 196.370  0.00  0.00    +0.023 HD
ATOM     90  H   UNL     1     151.761 165.901 195.994  0.00  0.00    +0.023 HD
ATOM     91  H   UNL     1     150.626 165.819 197.354  0.00  0.00    +0.023 HD
ENDBRANCH  65  88
BRANCH  73  92
ATOM     92  C   UNL     1     148.000 169.285 190.813  0.00  0.00    -0.026 C 
ATOM     93  H   UNL     1     147.587 170.279 191.042  0.00  0.00    +0.029 HD
ATOM     94  H   UNL     1     147.844 169.091 189.744  0.00  0.00    +0.029 HD
BRANCH  92  95
ATOM     95  C   UNL     1     149.500 169.306 191.138  0.00  0.00    -0.045 C 
ATOM     96  H   UNL     1     150.072 168.959 190.271  0.00  0.00    +0.027 HD
ATOM     97  H   UNL     1     149.695 168.596 191.952  0.00  0.00    +0.027 HD
BRANCH  95  98
ATOM     98  C   UNL     1     150.021 170.695 191.568  0.00  0.00    -0.025 C 
ATOM     99  H   UNL     1     150.234 171.267 190.661  0.00  0.00    +0.034 HD
BRANCH  98 100
ATOM    100  C   UNL     1     151.306 170.608 192.388  0.00  0.00    -0.059 C 
ATOM    101  H   UNL     1     151.756 169.610 192.325  0.00  0.00    +0.024 HD
ATOM    102  H   UNL     1     151.111 170.829 193.446  0.00  0.00    +0.024 HD
ATOM    103  H   UNL     1     152.045 171.336 192.036  0.00  0.00    +0.024 HD
ENDBRANCH  98 100
BRANCH  98 104
ATOM    104  C   UNL     1     148.941 171.370 192.390  0.00  0.00    -0.080 C 
ATOM    105  C   UNL     1     148.368 172.578 192.194  0.00  0.00    -0.048 C 
ATOM    106  H   UNL     1     148.579 170.755 193.214  0.00  0.00    +0.058 HD
BRANCH 105 107
ATOM    107  C   UNL     1     148.786 173.541 191.113  0.00  0.00    -0.041 C 
ATOM    108  H   UNL     1     148.457 174.556 191.357  0.00  0.00    +0.028 HD
ATOM    109  H   UNL     1     148.382 173.288 190.128  0.00  0.00    +0.028 HD
ATOM    110  H   UNL     1     149.873 173.552 190.995  0.00  0.00    +0.028 HD
ENDBRANCH 105 107
BRANCH 105 111
ATOM    111  C   UNL     1     147.220 173.030 193.074  0.00  0.00    +0.073 C 
ATOM    112  H   UNL     1     147.027 172.288 193.858  0.00  0.00    +0.064 HD
BRANCH 111 113
ATOM    113  C   UNL     1     145.934 173.242 192.287  0.00  0.00    -0.035 C 
ATOM    114  H   UNL     1     145.241 173.905 192.819  0.00  0.00    +0.026 HD
ATOM    115  H   UNL     1     146.128 173.665 191.297  0.00  0.00    +0.026 HD
ATOM    116  H   UNL     1     145.405 172.290 192.155  0.00  0.00    +0.026 HD
ENDBRANCH 111 113
BRANCH 111 117
ATOM    117  O   UNL     1     147.593 174.236 193.732  0.00  0.00    -0.388 OA
ATOM    118  H   UNL     1     148.456 174.503 193.376  0.00  0.00    +0.210 HD
ENDBRANCH 111 117
ENDBRANCH 105 111
ENDBRANCH  98 104
ENDBRANCH  95  98
ENDBRANCH  92  95
ENDBRANCH  73  92
ENDBRANCH  61  64
ENDBRANCH   1  61
TORSDOF 27
ENDMDL
MODEL 4
REMARK VINA RESULT:      -6.3      6.862     12.822
REMARK  Name = Bistramide A_conf2
REMARK  27 active torsions:
REMARK  status: ('A' for Active; 'I' for Inactive)
REMARK    1  A    between atoms: C_1  and  C_2
REMARK    2  A    between atoms: C_3  and  C_4
REMARK    3  A    between atoms: C_4  and  C_6
REMARK    4  A    between atoms: C_6  and  C_7
REMARK    5  A    between atoms: C_10  and  C_50
REMARK    6  A    between atoms: C_11  and  C_13
REMARK    7  A    between atoms: C_13  and  C_14
REMARK    8  A    between atoms: N_16  and  C_17
REMARK    9  A    between atoms: C_17  and  C_18
REMARK   10  A    between atoms: C_18  and  C_19
REMARK   11  A    between atoms: C_18  and  O_49
REMARK   12  A    between atoms: C_19  and  C_20
REMARK   13  A    between atoms: C_19  and  C_21
REMARK   14  A    between atoms: N_23  and  C_24
REMARK   15  A    between atoms: C_24  and  C_25
REMARK   16  A    between atoms: C_25  and  C_26
REMARK   17  A    between atoms: C_26  and  C_27
REMARK   18  A    between atoms: C_28  and  C_48
REMARK   19  A    between atoms: C_36  and  C_38
REMARK   20  A    between atoms: C_38  and  C_39
REMARK   21  A    between atoms: C_39  and  C_40
REMARK   22  A    between atoms: C_40  and  C_41
REMARK   23  A    between atoms: C_40  and  C_42
REMARK   24  A    between atoms: C_43  and  C_44
REMARK   25  A    between atoms: C_43  and  C_45
REMARK   26  A    between atoms: C_45  and  C_46
REMARK   27  A    between atoms: C_45  and  O_47
REMARK                            x       y       z     vdW  Elec       q    Type
REMARK                         _______ _______ _______ _____ _____    ______ ____
ROOT
ATOM      1  C   UNL     1     154.103 166.866 187.408  0.00  0.00    -0.035 C 
ATOM      2  H   UNL     1     153.367 166.071 187.254  0.00  0.00    +0.028 HD
ATOM      3  H   UNL     1     153.547 167.751 187.748  0.00  0.00    +0.028 HD
ENDROOT
BRANCH   1   4
ATOM      4  C   UNL     1     154.782 167.197 186.085  0.00  0.00    +0.012 C 
ATOM      5  H   UNL     1     154.557 166.426 185.336  0.00  0.00    +0.046 HD
ATOM      6  H   UNL     1     154.429 168.159 185.700  0.00  0.00    +0.046 HD
BRANCH   4   9
ATOM      7  C   UNL     1     157.066 166.502 185.433  0.00  0.00    +0.218 C 
ATOM      8  O   UNL     1     156.665 165.693 184.601  0.00  0.00    -0.275 OA
ATOM      9  N   UNL     1     156.222 167.228 186.246  0.00  0.00    -0.315 N 
ATOM     10  H   UNL     1     156.616 167.868 186.921  0.00  0.00    +0.149 HD
BRANCH   7  11
ATOM     11  C   UNL     1     158.550 166.727 185.728  0.00  0.00    +0.060 C 
ATOM     12  H   UNL     1     158.642 167.049 186.777  0.00  0.00    +0.042 HD
BRANCH  11  13
ATOM     13  C   UNL     1     159.244 165.372 185.568  0.00  0.00    -0.052 C 
ATOM     14  H   UNL     1     159.112 164.753 186.464  0.00  0.00    +0.024 HD
ATOM     15  H   UNL     1     158.829 164.811 184.724  0.00  0.00    +0.024 HD
ATOM     16  H   UNL     1     160.315 165.491 185.384  0.00  0.00    +0.024 HD
ENDBRANCH  11  13
BRANCH  11  17
ATOM     17  C   UNL     1     159.086 167.844 184.811  0.00  0.00    +0.081 C 
ATOM     18  H   UNL     1     159.811 167.453 184.084  0.00  0.00    +0.062 HD
BRANCH  17  19
ATOM     19  C   UNL     1     159.740 169.028 185.545  0.00  0.00    +0.038 C 
ATOM     20  H   UNL     1     159.332 169.124 186.559  0.00  0.00    +0.049 HD
ATOM     21  H   UNL     1     160.826 168.904 185.610  0.00  0.00    +0.049 HD
BRANCH  19  24
ATOM     22  C   UNL     1     160.466 170.830 183.970  0.00  0.00    +0.216 C 
ATOM     23  O   UNL     1     161.598 170.375 183.838  0.00  0.00    -0.276 OA
ATOM     24  N   UNL     1     159.526 170.273 184.808  0.00  0.00    -0.313 N 
ATOM     25  H   UNL     1     158.614 170.710 184.882  0.00  0.00    +0.149 HD
BRANCH  22  26
ATOM     26  C   UNL     1     159.980 172.082 183.276  0.00  0.00    +0.050 C 
ATOM     27  H   UNL     1     160.012 171.886 182.197  0.00  0.00    +0.038 HD
ATOM     28  H   UNL     1     160.681 172.908 183.444  0.00  0.00    +0.038 HD
BRANCH  26  33
ATOM     29  C   UNL     1     156.324 172.189 182.747  0.00  0.00    +0.066 C 
ATOM     30  C   UNL     1     155.927 173.066 183.928  0.00  0.00    -0.026 C 
ATOM     31  C   UNL     1     156.823 174.298 184.010  0.00  0.00    -0.046 C 
ATOM     32  C   UNL     1     158.280 174.009 183.607  0.00  0.00    -0.017 C 
ATOM     33  C   UNL     1     158.562 172.490 183.683  0.00  0.00    +0.070 C 
ATOM     34  O   UNL     1     157.671 171.716 182.857  0.00  0.00    -0.372 OA
ATOM     35  H   UNL     1     156.263 172.779 181.826  0.00  0.00    +0.060 HD
ATOM     36  H   UNL     1     154.880 173.377 183.851  0.00  0.00    +0.029 HD
ATOM     37  H   UNL     1     156.019 172.497 184.860  0.00  0.00    +0.029 HD
ATOM     38  H   UNL     1     156.400 175.097 183.390  0.00  0.00    +0.027 HD
ATOM     39  H   UNL     1     156.798 174.675 185.040  0.00  0.00    +0.027 HD
ATOM     40  H   UNL     1     158.921 174.530 184.331  0.00  0.00    +0.032 HD
ATOM     41  H   UNL     1     158.403 172.159 184.717  0.00  0.00    +0.060 HD
BRANCH  32  42
ATOM     42  C   UNL     1     158.599 174.618 182.235  0.00  0.00    -0.060 C 
ATOM     43  H   UNL     1     157.841 175.336 181.913  0.00  0.00    +0.023 HD
ATOM     44  H   UNL     1     158.672 173.842 181.473  0.00  0.00    +0.023 HD
ATOM     45  H   UNL     1     159.569 175.129 182.258  0.00  0.00    +0.023 HD
ENDBRANCH  32  42
BRANCH  29  46
ATOM     46  C   UNL     1     155.406 170.974 182.631  0.00  0.00    +0.036 C 
ATOM     47  H   UNL     1     154.864 170.788 183.564  0.00  0.00    +0.037 HD
ATOM     48  H   UNL     1     155.987 170.076 182.400  0.00  0.00    +0.037 HD
BRANCH  46  49
ATOM     49  C   UNL     1     154.363 171.208 181.559  0.00  0.00    +0.158 C 
ATOM     50  O   UNL     1     154.079 172.340 181.169  0.00  0.00    -0.293 OA
BRANCH  49  52
ATOM     51  C   UNL     1     152.770 170.110 180.024  0.00  0.00    -0.084 C 
ATOM     52  C   UNL     1     153.671 170.001 181.012  0.00  0.00    -0.023 C 
ATOM     53  H   UNL     1     152.541 171.090 179.606  0.00  0.00    +0.057 HD
ATOM     54  H   UNL     1     153.926 169.041 181.445  0.00  0.00    +0.065 HD
BRANCH  51  55
ATOM     55  C   UNL     1     152.023 168.953 179.452  0.00  0.00    -0.046 C 
ATOM     56  H   UNL     1     151.166 169.272 178.845  0.00  0.00    +0.027 HD
ATOM     57  H   UNL     1     151.652 168.299 180.254  0.00  0.00    +0.027 HD
ATOM     58  H   UNL     1     152.688 168.360 178.813  0.00  0.00    +0.027 HD
ENDBRANCH  51  55
ENDBRANCH  49  52
ENDBRANCH  46  49
ENDBRANCH  29  46
ENDBRANCH  26  33
ENDBRANCH  22  26
ENDBRANCH  19  24
ENDBRANCH  17  19
BRANCH  17  59
ATOM     59  O   UNL     1     157.969 168.336 184.049  0.00  0.00    -0.390 OA
ATOM     60  H   UNL     1     157.565 169.056 184.566  0.00  0.00    +0.210 HD
ENDBRANCH  17  59
ENDBRANCH  11  17
ENDBRANCH   7  11
ENDBRANCH   4   9
ENDBRANCH   1   4
BRANCH   1  61
ATOM     61  C   UNL     1     155.111 166.454 188.483  0.00  0.00    -0.025 C 
ATOM     62  H   UNL     1     156.119 166.519 188.054  0.00  0.00    +0.029 HD
ATOM     63  H   UNL     1     155.056 167.160 189.319  0.00  0.00    +0.029 HD
BRANCH  61  64
ATOM     64  C   UNL     1     154.854 165.022 188.986  0.00  0.00    +0.065 C 
ATOM     65  C   UNL     1     155.990 164.057 188.577  0.00  0.00    -0.017 C 
ATOM     66  C   UNL     1     155.502 162.597 188.553  0.00  0.00    -0.043 C 
ATOM     67  C   UNL     1     154.282 162.418 189.447  0.00  0.00    +0.002 C 
ATOM     68  C   UNL     1     153.131 163.358 189.021  0.00  0.00    +0.171 C 
ATOM     69  O   UNL     1     153.635 164.552 188.404  0.00  0.00    -0.345 OA
ATOM     70  C   UNL     1     152.221 162.667 187.995  0.00  0.00    +0.002 C 
ATOM     71  C   UNL     1     151.053 163.565 187.582  0.00  0.00    -0.046 C 
ATOM     72  C   UNL     1     150.650 164.530 188.694  0.00  0.00    -0.026 C 
ATOM     73  C   UNL     1     151.008 163.959 190.064  0.00  0.00    +0.062 C 
ATOM     74  O   UNL     1     152.409 163.692 190.213  0.00  0.00    -0.345 OA
ATOM     75  H   UNL     1     154.742 165.054 190.079  0.00  0.00    +0.060 HD
ATOM     76  H   UNL     1     156.317 164.295 187.556  0.00  0.00    +0.032 HD
ATOM     77  H   UNL     1     156.296 161.903 188.854  0.00  0.00    +0.027 HD
ATOM     78  H   UNL     1     155.232 162.327 187.522  0.00  0.00    +0.027 HD
ATOM     79  H   UNL     1     154.574 162.629 190.485  0.00  0.00    +0.032 HD
ATOM     80  H   UNL     1     153.952 161.369 189.446  0.00  0.00    +0.032 HD
ATOM     81  H   UNL     1     151.810 161.749 188.430  0.00  0.00    +0.032 HD
ATOM     82  H   UNL     1     152.777 162.378 187.096  0.00  0.00    +0.032 HD
ATOM     83  H   UNL     1     151.314 164.137 186.685  0.00  0.00    +0.027 HD
ATOM     84  H   UNL     1     150.201 162.934 187.302  0.00  0.00    +0.027 HD
ATOM     85  H   UNL     1     151.178 165.475 188.526  0.00  0.00    +0.029 HD
ATOM     86  H   UNL     1     149.578 164.747 188.623  0.00  0.00    +0.029 HD
ATOM     87  H   UNL     1     150.490 163.001 190.187  0.00  0.00    +0.060 HD
BRANCH  65  88
ATOM     88  C   UNL     1     157.213 164.214 189.493  0.00  0.00    -0.060 C 
ATOM     89  H   UNL     1     156.899 164.357 190.531  0.00  0.00    +0.023 HD
ATOM     90  H   UNL     1     157.815 165.080 189.196  0.00  0.00    +0.023 HD
ATOM     91  H   UNL     1     157.849 163.326 189.459  0.00  0.00    +0.023 HD
ENDBRANCH  65  88
BRANCH  73  92
ATOM     92  C   UNL     1     150.559 164.864 191.226  0.00  0.00    -0.026 C 
ATOM     93  H   UNL     1     150.653 164.293 192.161  0.00  0.00    +0.029 HD
ATOM     94  H   UNL     1     149.501 165.121 191.090  0.00  0.00    +0.029 HD
BRANCH  92  95
ATOM     95  C   UNL     1     151.403 166.139 191.359  0.00  0.00    -0.045 C 
ATOM     96  H   UNL     1     151.545 166.595 190.373  0.00  0.00    +0.027 HD
ATOM     97  H   UNL     1     152.400 165.865 191.728  0.00  0.00    +0.027 HD
BRANCH  95  98
ATOM     98  C   UNL     1     150.799 167.185 192.320  0.00  0.00    -0.025 C 
ATOM     99  H   UNL     1     149.711 167.149 192.211  0.00  0.00    +0.034 HD
BRANCH  98 100
ATOM    100  C   UNL     1     151.260 168.606 192.003  0.00  0.00    -0.059 C 
ATOM    101  H   UNL     1     152.096 168.909 192.644  0.00  0.00    +0.024 HD
ATOM    102  H   UNL     1     150.441 169.324 192.148  0.00  0.00    +0.024 HD
ATOM    103  H   UNL     1     151.583 168.690 190.961  0.00  0.00    +0.024 HD
ENDBRANCH  98 100
BRANCH  98 104
ATOM    104  C   UNL     1     151.211 166.822 193.733  0.00  0.00    -0.080 C 
ATOM    105  C   UNL     1     150.453 166.304 194.723  0.00  0.00    -0.048 C 
ATOM    106  H   UNL     1     152.274 166.977 193.925  0.00  0.00    +0.058 HD
BRANCH 105 107
ATOM    107  C   UNL     1     148.969 166.062 194.606  0.00  0.00    -0.041 C 
ATOM    108  H   UNL     1     148.411 166.883 195.069  0.00  0.00    +0.028 HD
ATOM    109  H   UNL     1     148.644 165.131 195.078  0.00  0.00    +0.028 HD
ATOM    110  H   UNL     1     148.664 165.989 193.558  0.00  0.00    +0.028 HD
ENDBRANCH 105 107
BRANCH 105 111
ATOM    111  C   UNL     1     151.084 165.908 196.042  0.00  0.00    +0.073 C 
ATOM    112  H   UNL     1     152.117 166.273 196.093  0.00  0.00    +0.064 HD
BRANCH 111 113
ATOM    113  C   UNL     1     151.096 164.400 196.251  0.00  0.00    -0.035 C 
ATOM    114  H   UNL     1     152.118 164.000 196.240  0.00  0.00    +0.026 HD
ATOM    115  H   UNL     1     150.623 164.116 197.196  0.00  0.00    +0.026 HD
ATOM    116  H   UNL     1     150.562 163.897 195.435  0.00  0.00    +0.026 HD
ENDBRANCH 111 113
BRANCH 111 117
ATOM    117  O   UNL     1     150.373 166.542 197.101  0.00  0.00    -0.388 OA
ATOM    118  H   UNL     1     149.761 165.885 197.470  0.00  0.00    +0.210 HD
ENDBRANCH 111 117
ENDBRANCH 105 111
ENDBRANCH  98 104
ENDBRANCH  95  98
ENDBRANCH  92  95
ENDBRANCH  73  92
ENDBRANCH  61  64
ENDBRANCH   1  61
TORSDOF 27
ENDMDL
MODEL 5
REMARK VINA RESULT:      -6.3      2.161      4.718
REMARK  Name = Bistramide A_conf2
REMARK  27 active torsions:
REMARK  status: ('A' for Active; 'I' for Inactive)
REMARK    1  A    between atoms: C_1  and  C_2
REMARK    2  A    between atoms: C_3  and  C_4
REMARK    3  A    between atoms: C_4  and  C_6
REMARK    4  A    between atoms: C_6  and  C_7
REMARK    5  A    between atoms: C_10  and  C_50
REMARK    6  A    between atoms: C_11  and  C_13
REMARK    7  A    between atoms: C_13  and  C_14
REMARK    8  A    between atoms: N_16  and  C_17
REMARK    9  A    between atoms: C_17  and  C_18
REMARK   10  A    between atoms: C_18  and  C_19
REMARK   11  A    between atoms: C_18  and  O_49
REMARK   12  A    between atoms: C_19  and  C_20
REMARK   13  A    between atoms: C_19  and  C_21
REMARK   14  A    between atoms: N_23  and  C_24
REMARK   15  A    between atoms: C_24  and  C_25
REMARK   16  A    between atoms: C_25  and  C_26
REMARK   17  A    between atoms: C_26  and  C_27
REMARK   18  A    between atoms: C_28  and  C_48
REMARK   19  A    between atoms: C_36  and  C_38
REMARK   20  A    between atoms: C_38  and  C_39
REMARK   21  A    between atoms: C_39  and  C_40
REMARK   22  A    between atoms: C_40  and  C_41
REMARK   23  A    between atoms: C_40  and  C_42
REMARK   24  A    between atoms: C_43  and  C_44
REMARK   25  A    between atoms: C_43  and  C_45
REMARK   26  A    between atoms: C_45  and  C_46
REMARK   27  A    between atoms: C_45  and  O_47
REMARK                            x       y       z     vdW  Elec       q    Type
REMARK                         _______ _______ _______ _____ _____    ______ ____
ROOT
ATOM      1  C   UNL     1     147.864 167.834 192.302  0.00  0.00    -0.035 C 
ATOM      2  H   UNL     1     148.273 166.984 191.748  0.00  0.00    +0.028 HD
ATOM      3  H   UNL     1     146.869 168.036 191.881  0.00  0.00    +0.028 HD
ENDROOT
BRANCH   1   4
ATOM      4  C   UNL     1     148.743 169.058 192.083  0.00  0.00    +0.012 C 
ATOM      5  H   UNL     1     149.596 169.046 192.776  0.00  0.00    +0.046 HD
ATOM      6  H   UNL     1     149.135 169.075 191.061  0.00  0.00    +0.046 HD
BRANCH   4   9
ATOM      7  C   UNL     1     148.623 171.475 192.602  0.00  0.00    +0.218 C 
ATOM      8  O   UNL     1     149.838 171.582 192.746  0.00  0.00    -0.275 OA
ATOM      9  N   UNL     1     147.998 170.273 192.345  0.00  0.00    -0.315 N 
ATOM     10  H   UNL     1     146.992 170.250 192.252  0.00  0.00    +0.149 HD
BRANCH   7  11
ATOM     11  C   UNL     1     147.656 172.645 192.787  0.00  0.00    +0.060 C 
ATOM     12  H   UNL     1     146.646 172.232 192.930  0.00  0.00    +0.042 HD
BRANCH  11  13
ATOM     13  C   UNL     1     148.075 173.370 194.068  0.00  0.00    -0.052 C 
ATOM     14  H   UNL     1     147.216 173.525 194.733  0.00  0.00    +0.024 HD
ATOM     15  H   UNL     1     148.815 172.789 194.629  0.00  0.00    +0.024 HD
ATOM     16  H   UNL     1     148.523 174.342 193.849  0.00  0.00    +0.024 HD
ENDBRANCH  11  13
BRANCH  11  17
ATOM     17  C   UNL     1     147.666 173.517 191.516  0.00  0.00    +0.081 C 
ATOM     18  H   UNL     1     148.013 174.537 191.731  0.00  0.00    +0.062 HD
BRANCH  17  19
ATOM     19  C   UNL     1     146.313 173.618 190.788  0.00  0.00    +0.038 C 
ATOM     20  H   UNL     1     145.721 174.448 191.192  0.00  0.00    +0.049 HD
ATOM     21  H   UNL     1     146.451 173.771 189.713  0.00  0.00    +0.049 HD
BRANCH  19  24
ATOM     22  C   UNL     1     145.687 171.314 190.042  0.00  0.00    +0.216 C 
ATOM     23  O   UNL     1     146.373 171.366 189.026  0.00  0.00    -0.276 OA
ATOM     24  N   UNL     1     145.563 172.369 190.919  0.00  0.00    -0.313 N 
ATOM     25  H   UNL     1     144.966 172.264 191.731  0.00  0.00    +0.149 HD
BRANCH  22  26
ATOM     26  C   UNL     1     144.854 170.114 190.430  0.00  0.00    +0.050 C 
ATOM     27  H   UNL     1     145.021 169.937 191.499  0.00  0.00    +0.038 HD
ATOM     28  H   UNL     1     145.223 169.214 189.924  0.00  0.00    +0.038 HD
BRANCH  26  33
ATOM     29  C   UNL     1     141.535 171.515 191.253  0.00  0.00    +0.066 C 
ATOM     30  C   UNL     1     140.703 170.836 190.173  0.00  0.00    -0.026 C 
ATOM     31  C   UNL     1     141.017 169.345 190.108  0.00  0.00    -0.046 C 
ATOM     32  C   UNL     1     142.501 169.032 190.371  0.00  0.00    -0.017 C 
ATOM     33  C   UNL     1     143.358 170.303 190.166  0.00  0.00    +0.070 C 
ATOM     34  O   UNL     1     142.940 171.398 191.004  0.00  0.00    -0.372 OA
ATOM     35  H   UNL     1     141.337 171.031 192.216  0.00  0.00    +0.060 HD
ATOM     36  H   UNL     1     139.632 170.980 190.354  0.00  0.00    +0.029 HD
ATOM     37  H   UNL     1     140.920 171.289 189.199  0.00  0.00    +0.029 HD
ATOM     38  H   UNL     1     140.375 168.807 190.814  0.00  0.00    +0.027 HD
ATOM     39  H   UNL     1     140.739 168.977 189.112  0.00  0.00    +0.027 HD
ATOM     40  H   UNL     1     142.803 168.272 189.638  0.00  0.00    +0.032 HD
ATOM     41  H   UNL     1     143.241 170.636 189.128  0.00  0.00    +0.060 HD
BRANCH  32  42
ATOM     42  C   UNL     1     142.686 168.391 191.753  0.00  0.00    -0.060 C 
ATOM     43  H   UNL     1     143.103 167.383 191.692  0.00  0.00    +0.023 HD
ATOM     44  H   UNL     1     141.736 168.329 192.284  0.00  0.00    +0.023 HD
ATOM     45  H   UNL     1     143.353 169.003 192.373  0.00  0.00    +0.023 HD
ENDBRANCH  32  42
BRANCH  29  46
ATOM     46  C   UNL     1     141.197 173.001 191.355  0.00  0.00    +0.036 C 
ATOM     47  H   UNL     1     140.825 173.396 190.405  0.00  0.00    +0.037 HD
ATOM     48  H   UNL     1     142.087 173.578 191.629  0.00  0.00    +0.037 HD
BRANCH  46  49
ATOM     49  C   UNL     1     140.102 173.219 192.379  0.00  0.00    +0.158 C 
ATOM     50  O   UNL     1     138.915 173.055 192.099  0.00  0.00    -0.293 OA
BRANCH  49  52
ATOM     51  C   UNL     1     141.251 174.786 193.902  0.00  0.00    -0.084 C 
ATOM     52  C   UNL     1     140.526 173.670 193.739  0.00  0.00    -0.023 C 
ATOM     53  H   UNL     1     141.532 175.381 193.032  0.00  0.00    +0.057 HD
ATOM     54  H   UNL     1     140.224 173.060 194.583  0.00  0.00    +0.065 HD
BRANCH  51  55
ATOM     55  C   UNL     1     141.730 175.279 195.225  0.00  0.00    -0.046 C 
ATOM     56  H   UNL     1     142.824 175.360 195.267  0.00  0.00    +0.027 HD
ATOM     57  H   UNL     1     141.405 174.603 196.029  0.00  0.00    +0.027 HD
ATOM     58  H   UNL     1     141.309 176.271 195.428  0.00  0.00    +0.027 HD
ENDBRANCH  51  55
ENDBRANCH  49  52
ENDBRANCH  46  49
ENDBRANCH  29  46
ENDBRANCH  26  33
ENDBRANCH  22  26
ENDBRANCH  19  24
ENDBRANCH  17  19
BRANCH  17  59
ATOM     59  O   UNL     1     148.628 172.938 190.615  0.00  0.00    -0.390 OA
ATOM     60  H   UNL     1     148.195 172.857 189.747  0.00  0.00    +0.210 HD
ENDBRANCH  17  59
ENDBRANCH  11  17
ENDBRANCH   7  11
ENDBRANCH   4   9
ENDBRANCH   1   4
BRANCH   1  61
ATOM     61  C   UNL     1     147.727 167.483 193.785  0.00  0.00    -0.025 C 
ATOM     62  H   UNL     1     147.761 168.415 194.364  0.00  0.00    +0.029 HD
ATOM     63  H   UNL     1     146.751 167.016 193.957  0.00  0.00    +0.029 HD
BRANCH  61  64
ATOM     64  C   UNL     1     148.852 166.541 194.254  0.00  0.00    +0.065 C 
ATOM     65  C   UNL     1     149.070 166.624 195.781  0.00  0.00    -0.017 C 
ATOM     66  C   UNL     1     150.490 166.170 196.169  0.00  0.00    -0.043 C 
ATOM     67  C   UNL     1     151.078 165.258 195.100  0.00  0.00    +0.002 C 
ATOM     68  C   UNL     1     151.112 165.957 193.722  0.00  0.00    +0.171 C 
ATOM     69  O   UNL     1     150.064 166.931 193.605  0.00  0.00    -0.345 OA
ATOM     70  C   UNL     1     152.444 166.698 193.525  0.00  0.00    +0.002 C 
ATOM     71  C   UNL     1     152.518 167.371 192.153  0.00  0.00    -0.046 C 
ATOM     72  C   UNL     1     151.694 166.629 191.105  0.00  0.00    -0.026 C 
ATOM     73  C   UNL     1     151.565 165.150 191.464  0.00  0.00    +0.062 C 
ATOM     74  O   UNL     1     150.939 164.932 192.735  0.00  0.00    -0.345 OA
ATOM     75  H   UNL     1     148.594 165.516 193.950  0.00  0.00    +0.060 HD
ATOM     76  H   UNL     1     148.976 167.669 196.105  0.00  0.00    +0.032 HD
ATOM     77  H   UNL     1     150.499 165.666 197.143  0.00  0.00    +0.027 HD
ATOM     78  H   UNL     1     151.132 167.056 196.274  0.00  0.00    +0.027 HD
ATOM     79  H   UNL     1     150.467 164.347 195.043  0.00  0.00    +0.032 HD
ATOM     80  H   UNL     1     152.082 164.916 195.392  0.00  0.00    +0.032 HD
ATOM     81  H   UNL     1     153.274 165.986 193.603  0.00  0.00    +0.032 HD
ATOM     82  H   UNL     1     152.597 167.458 194.299  0.00  0.00    +0.032 HD
ATOM     83  H   UNL     1     152.168 168.406 192.220  0.00  0.00    +0.027 HD
ATOM     84  H   UNL     1     153.567 167.425 191.840  0.00  0.00    +0.027 HD
ATOM     85  H   UNL     1     150.704 167.097 191.062  0.00  0.00    +0.029 HD
ATOM     86  H   UNL     1     152.151 166.758 190.117  0.00  0.00    +0.029 HD
ATOM     87  H   UNL     1     152.570 164.719 191.529  0.00  0.00    +0.060 HD
BRANCH  65  88
ATOM     88  C   UNL     1     148.007 165.817 196.543  0.00  0.00    -0.060 C 
ATOM     89  H   UNL     1     147.003 166.117 196.231  0.00  0.00    +0.023 HD
ATOM     90  H   UNL     1     148.094 165.979 197.623  0.00  0.00    +0.023 HD
ATOM     91  H   UNL     1     148.108 164.747 196.347  0.00  0.00    +0.023 HD
ENDBRANCH  65  88
BRANCH  73  92
ATOM     92  C   UNL     1     150.800 164.341 190.400  0.00  0.00    -0.026 C 
ATOM     93  H   UNL     1     151.291 163.362 190.295  0.00  0.00    +0.029 HD
ATOM     94  H   UNL     1     150.870 164.861 189.436  0.00  0.00    +0.029 HD
BRANCH  92  95
ATOM     95  C   UNL     1     149.329 164.098 190.768  0.00  0.00    -0.045 C 
ATOM     96  H   UNL     1     149.188 164.242 191.845  0.00  0.00    +0.027 HD
ATOM     97  H   UNL     1     149.080 163.051 190.553  0.00  0.00    +0.027 HD
BRANCH  95  98
ATOM     98  C   UNL     1     148.341 165.002 190.000  0.00  0.00    -0.025 C 
ATOM     99  H   UNL     1     148.063 165.828 190.660  0.00  0.00    +0.034 HD
BRANCH  98 100
ATOM    100  C   UNL     1     147.064 164.264 189.600  0.00  0.00    -0.059 C 
ATOM    101  H   UNL     1     146.171 164.860 189.820  0.00  0.00    +0.024 HD
ATOM    102  H   UNL     1     146.980 163.310 190.139  0.00  0.00    +0.024 HD
ATOM    103  H   UNL     1     147.063 164.034 188.531  0.00  0.00    +0.024 HD
ENDBRANCH  98 100
BRANCH  98 104
ATOM    104  C   UNL     1     149.039 165.515 188.757  0.00  0.00    -0.080 C 
ATOM    105  C   UNL     1     148.910 166.719 188.157  0.00  0.00    -0.048 C 
ATOM    106  H   UNL     1     149.759 164.808 188.344  0.00  0.00    +0.058 HD
BRANCH 105 107
ATOM    107  C   UNL     1     147.937 167.780 188.604  0.00  0.00    -0.041 C 
ATOM    108  H   UNL     1     148.212 168.158 189.594  0.00  0.00    +0.028 HD
ATOM    109  H   UNL     1     146.905 167.425 188.659  0.00  0.00    +0.028 HD
ATOM    110  H   UNL     1     147.926 168.623 187.907  0.00  0.00    +0.028 HD
ENDBRANCH 105 107
BRANCH 105 111
ATOM    111  C   UNL     1     149.785 167.081 186.974  0.00  0.00    +0.073 C 
ATOM    112  H   UNL     1     149.625 166.372 186.153  0.00  0.00    +0.064 HD
BRANCH 111 113
ATOM    113  C   UNL     1     151.266 167.082 187.326  0.00  0.00    -0.035 C 
ATOM    114  H   UNL     1     151.490 166.366 188.126  0.00  0.00    +0.026 HD
ATOM    115  H   UNL     1     151.890 166.842 186.460  0.00  0.00    +0.026 HD
ATOM    116  H   UNL     1     151.568 168.067 187.704  0.00  0.00    +0.026 HD
ENDBRANCH 111 113
BRANCH 111 117
ATOM    117  O   UNL     1     149.396 168.363 186.491  0.00  0.00    -0.388 OA
ATOM    118  H   UNL     1     149.876 169.025 187.014  0.00  0.00    +0.210 HD
ENDBRANCH 111 117
ENDBRANCH 105 111
ENDBRANCH  98 104
ENDBRANCH  95  98
ENDBRANCH  92  95
ENDBRANCH  73  92
ENDBRANCH  61  64
ENDBRANCH   1  61
TORSDOF 27
ENDMDL
MODEL 6
REMARK VINA RESULT:      -6.2      7.891     12.227
REMARK  Name = Bistramide A_conf2
REMARK  27 active torsions:
REMARK  status: ('A' for Active; 'I' for Inactive)
REMARK    1  A    between atoms: C_1  and  C_2
REMARK    2  A    between atoms: C_3  and  C_4
REMARK    3  A    between atoms: C_4  and  C_6
REMARK    4  A    between atoms: C_6  and  C_7
REMARK    5  A    between atoms: C_10  and  C_50
REMARK    6  A    between atoms: C_11  and  C_13
REMARK    7  A    between atoms: C_13  and  C_14
REMARK    8  A    between atoms: N_16  and  C_17
REMARK    9  A    between atoms: C_17  and  C_18
REMARK   10  A    between atoms: C_18  and  C_19
REMARK   11  A    between atoms: C_18  and  O_49
REMARK   12  A    between atoms: C_19  and  C_20
REMARK   13  A    between atoms: C_19  and  C_21
REMARK   14  A    between atoms: N_23  and  C_24
REMARK   15  A    between atoms: C_24  and  C_25
REMARK   16  A    between atoms: C_25  and  C_26
REMARK   17  A    between atoms: C_26  and  C_27
REMARK   18  A    between atoms: C_28  and  C_48
REMARK   19  A    between atoms: C_36  and  C_38
REMARK   20  A    between atoms: C_38  and  C_39
REMARK   21  A    between atoms: C_39  and  C_40
REMARK   22  A    between atoms: C_40  and  C_41
REMARK   23  A    between atoms: C_40  and  C_42
REMARK   24  A    between atoms: C_43  and  C_44
REMARK   25  A    between atoms: C_43  and  C_45
REMARK   26  A    between atoms: C_45  and  C_46
REMARK   27  A    between atoms: C_45  and  O_47
REMARK                            x       y       z     vdW  Elec       q    Type
REMARK                         _______ _______ _______ _____ _____    ______ ____
ROOT
ATOM      1  C   UNL     1     158.038 169.763 185.178  0.00  0.00    -0.035 C 
ATOM      2  H   UNL     1     157.889 170.174 186.181  0.00  0.00    +0.028 HD
ATOM      3  H   UNL     1     157.315 170.265 184.520  0.00  0.00    +0.028 HD
ENDROOT
BRANCH   1   4
ATOM      4  C   UNL     1     157.735 168.271 185.186  0.00  0.00    +0.012 C 
ATOM      5  H   UNL     1     158.002 167.821 184.220  0.00  0.00    +0.046 HD
ATOM      6  H   UNL     1     158.312 167.765 185.968  0.00  0.00    +0.046 HD
BRANCH   4   9
ATOM      7  C   UNL     1     155.826 166.812 185.775  0.00  0.00    +0.218 C 
ATOM      8  O   UNL     1     156.523 165.804 185.858  0.00  0.00    -0.275 OA
ATOM      9  N   UNL     1     156.320 168.040 185.390  0.00  0.00    -0.315 N 
ATOM     10  H   UNL     1     155.690 168.828 185.328  0.00  0.00    +0.149 HD
BRANCH   7  11
ATOM     11  C   UNL     1     154.312 166.798 185.998  0.00  0.00    +0.060 C 
ATOM     12  H   UNL     1     153.919 167.785 185.709  0.00  0.00    +0.042 HD
BRANCH  11  13
ATOM     13  C   UNL     1     153.735 165.743 185.052  0.00  0.00    -0.052 C 
ATOM     14  H   UNL     1     152.924 166.162 184.442  0.00  0.00    +0.024 HD
ATOM     15  H   UNL     1     154.497 165.369 184.360  0.00  0.00    +0.024 HD
ATOM     16  H   UNL     1     153.344 164.884 185.602  0.00  0.00    +0.024 HD
ENDBRANCH  11  13
BRANCH  11  17
ATOM     17  C   UNL     1     154.022 166.559 187.492  0.00  0.00    +0.081 C 
ATOM     18  H   UNL     1     153.942 165.486 187.719  0.00  0.00    +0.062 HD
BRANCH  17  19
ATOM     19  C   UNL     1     152.756 167.253 188.026  0.00  0.00    +0.038 C 
ATOM     20  H   UNL     1     152.870 168.343 187.986  0.00  0.00    +0.049 HD
ATOM     21  H   UNL     1     151.873 166.967 187.447  0.00  0.00    +0.049 HD
BRANCH  19  24
ATOM     22  C   UNL     1     151.719 165.736 189.723  0.00  0.00    +0.216 C 
ATOM     23  O   UNL     1     151.132 165.060 188.884  0.00  0.00    -0.276 OA
ATOM     24  N   UNL     1     152.481 166.837 189.402  0.00  0.00    -0.313 N 
ATOM     25  H   UNL     1     152.926 167.360 190.147  0.00  0.00    +0.149 HD
BRANCH  22  26
ATOM     26  C   UNL     1     151.636 165.480 191.211  0.00  0.00    +0.050 C 
ATOM     27  H   UNL     1     152.526 165.931 191.666  0.00  0.00    +0.038 HD
ATOM     28  H   UNL     1     151.715 164.406 191.417  0.00  0.00    +0.038 HD
BRANCH  26  33
ATOM     29  C   UNL     1     149.568 168.304 192.397  0.00  0.00    +0.066 C 
ATOM     30  C   UNL     1     148.416 167.525 193.019  0.00  0.00    -0.026 C 
ATOM     31  C   UNL     1     148.942 166.406 193.913  0.00  0.00    -0.046 C 
ATOM     32  C   UNL     1     150.223 165.752 193.365  0.00  0.00    -0.017 C 
ATOM     33  C   UNL     1     150.376 166.061 191.858  0.00  0.00    +0.070 C 
ATOM     34  O   UNL     1     150.399 167.474 191.578  0.00  0.00    -0.372 OA
ATOM     35  H   UNL     1     150.202 168.706 193.195  0.00  0.00    +0.060 HD
ATOM     36  H   UNL     1     147.765 168.186 193.601  0.00  0.00    +0.029 HD
ATOM     37  H   UNL     1     147.796 167.087 192.229  0.00  0.00    +0.029 HD
ATOM     38  H   UNL     1     149.106 166.795 194.924  0.00  0.00    +0.027 HD
ATOM     39  H   UNL     1     148.158 165.645 194.010  0.00  0.00    +0.027 HD
ATOM     40  H   UNL     1     150.112 164.668 193.501  0.00  0.00    +0.032 HD
ATOM     41  H   UNL     1     149.508 165.647 191.329  0.00  0.00    +0.060 HD
BRANCH  32  42
ATOM     42  C   UNL     1     151.445 166.165 194.197  0.00  0.00    -0.060 C 
ATOM     43  H   UNL     1     151.485 167.243 194.370  0.00  0.00    +0.023 HD
ATOM     44  H   UNL     1     152.370 165.870 193.701  0.00  0.00    +0.023 HD
ATOM     45  H   UNL     1     151.435 165.659 195.171  0.00  0.00    +0.023 HD
ENDBRANCH  32  42
BRANCH  29  46
ATOM     46  C   UNL     1     149.053 169.453 191.534  0.00  0.00    +0.036 C 
ATOM     47  H   UNL     1     147.959 169.499 191.535  0.00  0.00    +0.037 HD
ATOM     48  H   UNL     1     149.378 169.328 190.496  0.00  0.00    +0.037 HD
BRANCH  46  49
ATOM     49  C   UNL     1     149.547 170.777 192.077  0.00  0.00    +0.158 C 
ATOM     50  O   UNL     1     150.746 171.003 192.238  0.00  0.00    -0.293 OA
BRANCH  49  52
ATOM     51  C   UNL     1     148.686 172.621 193.476  0.00  0.00    -0.084 C 
ATOM     52  C   UNL     1     148.510 171.792 192.437  0.00  0.00    -0.023 C 
ATOM     53  H   UNL     1     149.601 172.563 194.066  0.00  0.00    +0.057 HD
ATOM     54  H   UNL     1     147.615 171.828 191.826  0.00  0.00    +0.065 HD
BRANCH  51  55
ATOM     55  C   UNL     1     147.683 173.636 193.907  0.00  0.00    -0.046 C 
ATOM     56  H   UNL     1     148.045 174.251 194.740  0.00  0.00    +0.027 HD
ATOM     57  H   UNL     1     146.750 173.147 194.221  0.00  0.00    +0.027 HD
ATOM     58  H   UNL     1     147.447 174.305 193.071  0.00  0.00    +0.027 HD
ENDBRANCH  51  55
ENDBRANCH  49  52
ENDBRANCH  46  49
ENDBRANCH  29  46
ENDBRANCH  26  33
ENDBRANCH  22  26
ENDBRANCH  19  24
ENDBRANCH  17  19
BRANCH  17  59
ATOM     59  O   UNL     1     155.159 167.048 188.227  0.00  0.00    -0.390 OA
ATOM     60  H   UNL     1     154.821 167.418 189.062  0.00  0.00    +0.210 HD
ENDBRANCH  17  59
ENDBRANCH  11  17
ENDBRANCH   7  11
ENDBRANCH   4   9
ENDBRANCH   1   4
BRANCH   1  61
ATOM     61  C   UNL     1     159.459 170.058 184.691  0.00  0.00    -0.025 C 
ATOM     62  H   UNL     1     160.013 170.531 185.513  0.00  0.00    +0.029 HD
ATOM     63  H   UNL     1     159.960 169.114 184.448  0.00  0.00    +0.029 HD
BRANCH  61  64
ATOM     64  C   UNL     1     159.461 170.987 183.464  0.00  0.00    +0.065 C 
ATOM     65  C   UNL     1     160.892 171.412 183.067  0.00  0.00    -0.017 C 
ATOM     66  C   UNL     1     160.884 172.728 182.267  0.00  0.00    -0.043 C 
ATOM     67  C   UNL     1     159.531 172.950 181.604  0.00  0.00    +0.002 C 
ATOM     68  C   UNL     1     158.390 172.967 182.646  0.00  0.00    +0.171 C 
ATOM     69  O   UNL     1     158.717 172.164 183.790  0.00  0.00    -0.345 OA
ATOM     70  C   UNL     1     158.142 174.397 183.152  0.00  0.00    +0.002 C 
ATOM     71  C   UNL     1     156.993 174.447 184.161  0.00  0.00    -0.046 C 
ATOM     72  C   UNL     1     155.964 173.348 183.914  0.00  0.00    -0.026 C 
ATOM     73  C   UNL     1     155.959 172.931 182.445  0.00  0.00    +0.062 C 
ATOM     74  O   UNL     1     157.228 172.440 181.995  0.00  0.00    -0.345 OA
ATOM     75  H   UNL     1     158.963 170.465 182.634  0.00  0.00    +0.060 HD
ATOM     76  H   UNL     1     161.479 171.602 183.976  0.00  0.00    +0.032 HD
ATOM     77  H   UNL     1     161.681 172.745 181.514  0.00  0.00    +0.027 HD
ATOM     78  H   UNL     1     161.087 173.563 182.951  0.00  0.00    +0.027 HD
ATOM     79  H   UNL     1     159.361 172.144 180.876  0.00  0.00    +0.032 HD
ATOM     80  H   UNL     1     159.537 173.878 181.013  0.00  0.00    +0.032 HD
ATOM     81  H   UNL     1     157.884 175.045 182.306  0.00  0.00    +0.032 HD
ATOM     82  H   UNL     1     159.040 174.818 183.619  0.00  0.00    +0.032 HD
ATOM     83  H   UNL     1     157.382 174.355 185.181  0.00  0.00    +0.027 HD
ATOM     84  H   UNL     1     156.516 175.432 184.106  0.00  0.00    +0.027 HD
ATOM     85  H   UNL     1     156.224 172.495 184.550  0.00  0.00    +0.029 HD
ATOM     86  H   UNL     1     154.973 173.693 184.232  0.00  0.00    +0.029 HD
ATOM     87  H   UNL     1     155.727 173.811 181.835  0.00  0.00    +0.060 HD
BRANCH  65  88
ATOM     88  C   UNL     1     161.610 170.299 182.288  0.00  0.00    -0.060 C 
ATOM     89  H   UNL     1     160.913 169.492 182.043  0.00  0.00    +0.023 HD
ATOM     90  H   UNL     1     162.429 169.874 182.880  0.00  0.00    +0.023 HD
ATOM     91  H   UNL     1     162.024 170.676 181.350  0.00  0.00    +0.023 HD
ENDBRANCH  65  88
BRANCH  73  92
ATOM     92  C   UNL     1     154.886 171.872 182.128  0.00  0.00    -0.026 C 
ATOM     93  H   UNL     1     154.510 171.470 183.081  0.00  0.00    +0.029 HD
ATOM     94  H   UNL     1     155.351 171.048 181.572  0.00  0.00    +0.029 HD
BRANCH  92  95
ATOM     95  C   UNL     1     153.693 172.437 181.345  0.00  0.00    -0.045 C 
ATOM     96  H   UNL     1     152.781 171.892 181.613  0.00  0.00    +0.027 HD
ATOM     97  H   UNL     1     153.861 172.266 180.274  0.00  0.00    +0.027 HD
BRANCH  95  98
ATOM     98  C   UNL     1     153.466 173.948 181.568  0.00  0.00    -0.025 C 
ATOM     99  H   UNL     1     154.234 174.302 182.260  0.00  0.00    +0.034 HD
BRANCH  98 100
ATOM    100  C   UNL     1     152.100 174.249 182.181  0.00  0.00    -0.059 C 
ATOM    101  H   UNL     1     151.763 173.433 182.831  0.00  0.00    +0.024 HD
ATOM    102  H   UNL     1     151.344 174.396 181.397  0.00  0.00    +0.024 HD
ATOM    103  H   UNL     1     152.131 175.167 182.776  0.00  0.00    +0.024 HD
ENDBRANCH  98 100
BRANCH  98 104
ATOM    104  C   UNL     1     153.584 174.646 180.227  0.00  0.00    -0.080 C 
ATOM    105  C   UNL     1     154.568 175.462 179.789  0.00  0.00    -0.048 C 
ATOM    106  H   UNL     1     152.772 174.402 179.542  0.00  0.00    +0.058 HD
BRANCH 105 107
ATOM    107  C   UNL     1     155.734 175.902 180.637  0.00  0.00    -0.041 C 
ATOM    108  H   UNL     1     156.230 175.035 181.085  0.00  0.00    +0.028 HD
ATOM    109  H   UNL     1     155.449 176.578 181.447  0.00  0.00    +0.028 HD
ATOM    110  H   UNL     1     156.471 176.447 180.039  0.00  0.00    +0.028 HD
ENDBRANCH 105 107
BRANCH 105 111
ATOM    111  C   UNL     1     154.554 175.978 178.364  0.00  0.00    +0.073 C 
ATOM    112  H   UNL     1     155.403 175.567 177.804  0.00  0.00    +0.064 HD
BRANCH 111 113
ATOM    113  C   UNL     1     154.624 177.497 178.296  0.00  0.00    -0.035 C 
ATOM    114  H   UNL     1     154.079 177.963 179.127  0.00  0.00    +0.026 HD
ATOM    115  H   UNL     1     155.656 177.858 178.313  0.00  0.00    +0.026 HD
ATOM    116  H   UNL     1     154.147 177.861 177.377  0.00  0.00    +0.026 HD
ENDBRANCH 111 113
BRANCH 111 117
ATOM    117  O   UNL     1     153.373 175.513 177.719  0.00  0.00    -0.388 OA
ATOM    118  H   UNL     1     152.640 175.622 178.347  0.00  0.00    +0.210 HD
ENDBRANCH 111 117
ENDBRANCH 105 111
ENDBRANCH  98 104
ENDBRANCH  95  98
ENDBRANCH  92  95
ENDBRANCH  73  92
ENDBRANCH  61  64
ENDBRANCH   1  61
TORSDOF 27
ENDMDL
MODEL 7
REMARK VINA RESULT:      -6.2      2.163      3.508
REMARK  Name = Bistramide A_conf2
REMARK  27 active torsions:
REMARK  status: ('A' for Active; 'I' for Inactive)
REMARK    1  A    between atoms: C_1  and  C_2
REMARK    2  A    between atoms: C_3  and  C_4
REMARK    3  A    between atoms: C_4  and  C_6
REMARK    4  A    between atoms: C_6  and  C_7
REMARK    5  A    between atoms: C_10  and  C_50
REMARK    6  A    between atoms: C_11  and  C_13
REMARK    7  A    between atoms: C_13  and  C_14
REMARK    8  A    between atoms: N_16  and  C_17
REMARK    9  A    between atoms: C_17  and  C_18
REMARK   10  A    between atoms: C_18  and  C_19
REMARK   11  A    between atoms: C_18  and  O_49
REMARK   12  A    between atoms: C_19  and  C_20
REMARK   13  A    between atoms: C_19  and  C_21
REMARK   14  A    between atoms: N_23  and  C_24
REMARK   15  A    between atoms: C_24  and  C_25
REMARK   16  A    between atoms: C_25  and  C_26
REMARK   17  A    between atoms: C_26  and  C_27
REMARK   18  A    between atoms: C_28  and  C_48
REMARK   19  A    between atoms: C_36  and  C_38
REMARK   20  A    between atoms: C_38  and  C_39
REMARK   21  A    between atoms: C_39  and  C_40
REMARK   22  A    between atoms: C_40  and  C_41
REMARK   23  A    between atoms: C_40  and  C_42
REMARK   24  A    between atoms: C_43  and  C_44
REMARK   25  A    between atoms: C_43  and  C_45
REMARK   26  A    between atoms: C_45  and  C_46
REMARK   27  A    between atoms: C_45  and  O_47
REMARK                            x       y       z     vdW  Elec       q    Type
REMARK                         _______ _______ _______ _____ _____    ______ ____
ROOT
ATOM      1  C   UNL     1     147.382 167.002 194.169  0.00  0.00    -0.035 C 
ATOM      2  H   UNL     1     146.965 167.700 194.901  0.00  0.00    +0.028 HD
ATOM      3  H   UNL     1     147.838 167.611 193.376  0.00  0.00    +0.028 HD
ENDROOT
BRANCH   1   4
ATOM      4  C   UNL     1     146.262 166.168 193.561  0.00  0.00    +0.012 C 
ATOM      5  H   UNL     1     146.674 165.282 193.059  0.00  0.00    +0.046 HD
ATOM      6  H   UNL     1     145.569 165.828 194.338  0.00  0.00    +0.046 HD
BRANCH   4   9
ATOM      7  C   UNL     1     145.389 166.480 191.267  0.00  0.00    +0.218 C 
ATOM      8  O   UNL     1     145.940 165.470 190.838  0.00  0.00    -0.275 OA
ATOM      9  N   UNL     1     145.545 166.931 192.560  0.00  0.00    -0.315 N 
ATOM     10  H   UNL     1     145.075 167.779 192.847  0.00  0.00    +0.149 HD
BRANCH   7  11
ATOM     11  C   UNL     1     144.545 167.405 190.389  0.00  0.00    +0.060 C 
ATOM     12  H   UNL     1     145.134 168.313 190.188  0.00  0.00    +0.042 HD
BRANCH  11  13
ATOM     13  C   UNL     1     144.310 166.670 189.067  0.00  0.00    -0.052 C 
ATOM     14  H   UNL     1     145.046 165.868 188.926  0.00  0.00    +0.024 HD
ATOM     15  H   UNL     1     143.319 166.205 189.042  0.00  0.00    +0.024 HD
ATOM     16  H   UNL     1     144.372 167.350 188.215  0.00  0.00    +0.024 HD
ENDBRANCH  11  13
BRANCH  11  17
ATOM     17  C   UNL     1     143.263 167.796 191.151  0.00  0.00    +0.081 C 
ATOM     18  H   UNL     1     142.976 167.023 191.877  0.00  0.00    +0.062 HD
BRANCH  17  19
ATOM     19  C   UNL     1     142.042 168.087 190.259  0.00  0.00    +0.038 C 
ATOM     20  H   UNL     1     142.248 167.800 189.221  0.00  0.00    +0.049 HD
ATOM     21  H   UNL     1     141.158 167.544 190.609  0.00  0.00    +0.049 HD
BRANCH  19  24
ATOM     22  C   UNL     1     141.603 170.312 189.205  0.00  0.00    +0.216 C 
ATOM     23  O   UNL     1     141.903 169.932 188.078  0.00  0.00    -0.276 OA
ATOM     24  N   UNL     1     141.688 169.505 190.318  0.00  0.00    -0.313 N 
ATOM     25  H   UNL     1     141.438 169.888 191.222  0.00  0.00    +0.149 HD
BRANCH  22  26
ATOM     26  C   UNL     1     141.156 171.721 189.522  0.00  0.00    +0.050 C 
ATOM     27  H   UNL     1     140.371 171.647 190.284  0.00  0.00    +0.038 HD
ATOM     28  H   UNL     1     140.674 172.174 188.648  0.00  0.00    +0.038 HD
BRANCH  26  33
ATOM     29  C   UNL     1     144.425 172.250 191.164  0.00  0.00    +0.066 C 
ATOM     30  C   UNL     1     144.453 173.773 191.178  0.00  0.00    -0.026 C 
ATOM     31  C   UNL     1     143.130 174.332 191.692  0.00  0.00    -0.046 C 
ATOM     32  C   UNL     1     141.914 173.501 191.247  0.00  0.00    -0.017 C 
ATOM     33  C   UNL     1     142.288 172.616 190.035  0.00  0.00    +0.070 C 
ATOM     34  O   UNL     1     143.398 171.739 190.307  0.00  0.00    -0.372 OA
ATOM     35  H   UNL     1     144.212 171.886 192.175  0.00  0.00    +0.060 HD
ATOM     36  H   UNL     1     145.276 174.145 191.799  0.00  0.00    +0.029 HD
ATOM     37  H   UNL     1     144.629 174.150 190.164  0.00  0.00    +0.029 HD
ATOM     38  H   UNL     1     143.168 174.411 192.784  0.00  0.00    +0.027 HD
ATOM     39  H   UNL     1     143.023 175.360 191.323  0.00  0.00    +0.027 HD
ATOM     40  H   UNL     1     141.133 174.212 190.945  0.00  0.00    +0.032 HD
ATOM     41  H   UNL     1     142.597 173.270 189.210  0.00  0.00    +0.060 HD
BRANCH  32  42
ATOM     42  C   UNL     1     141.336 172.704 192.425  0.00  0.00    -0.060 C 
ATOM     43  H   UNL     1     141.660 171.661 192.419  0.00  0.00    +0.023 HD
ATOM     44  H   UNL     1     140.246 172.718 192.406  0.00  0.00    +0.023 HD
ATOM     45  H   UNL     1     141.641 173.155 193.378  0.00  0.00    +0.023 HD
ENDBRANCH  32  42
BRANCH  29  46
ATOM     46  C   UNL     1     145.760 171.680 190.691  0.00  0.00    +0.036 C 
ATOM     47  H   UNL     1     145.773 171.528 189.607  0.00  0.00    +0.037 HD
ATOM     48  H   UNL     1     145.952 170.712 191.164  0.00  0.00    +0.037 HD
BRANCH  46  49
ATOM     49  C   UNL     1     146.883 172.645 191.010  0.00  0.00    +0.158 C 
ATOM     50  O   UNL     1     147.252 173.497 190.201  0.00  0.00    -0.293 OA
BRANCH  49  52
ATOM     51  C   UNL     1     148.713 173.104 192.603  0.00  0.00    -0.084 C 
ATOM     52  C   UNL     1     147.544 172.500 192.342  0.00  0.00    -0.023 C 
ATOM     53  H   UNL     1     149.188 173.717 191.837  0.00  0.00    +0.057 HD
ATOM     54  H   UNL     1     147.042 171.889 193.084  0.00  0.00    +0.065 HD
BRANCH  51  55
ATOM     55  C   UNL     1     149.440 172.979 193.899  0.00  0.00    -0.046 C 
ATOM     56  H   UNL     1     150.335 172.350 193.813  0.00  0.00    +0.027 HD
ATOM     57  H   UNL     1     148.786 172.544 194.667  0.00  0.00    +0.027 HD
ATOM     58  H   UNL     1     149.756 173.970 194.246  0.00  0.00    +0.027 HD
ENDBRANCH  51  55
ENDBRANCH  49  52
ENDBRANCH  46  49
ENDBRANCH  29  46
ENDBRANCH  26  33
ENDBRANCH  22  26
ENDBRANCH  19  24
ENDBRANCH  17  19
BRANCH  17  59
ATOM     59  O   UNL     1     143.569 168.979 191.911  0.00  0.00    -0.390 OA
ATOM     60  H   UNL     1     144.515 169.168 191.778  0.00  0.00    +0.210 HD
ENDBRANCH  17  59
ENDBRANCH  11  17
ENDBRANCH   7  11
ENDBRANCH   4   9
ENDBRANCH   1   4
BRANCH   1  61
ATOM     61  C   UNL     1     148.457 166.130 194.823  0.00  0.00    -0.025 C 
ATOM     62  H   UNL     1     148.630 166.502 195.842  0.00  0.00    +0.029 HD
ATOM     63  H   UNL     1     148.088 165.101 194.901  0.00  0.00    +0.029 HD
BRANCH  61  64
ATOM     64  C   UNL     1     149.776 166.159 194.030  0.00  0.00    +0.065 C 
ATOM     65  C   UNL     1     150.999 165.914 194.941  0.00  0.00    -0.017 C 
ATOM     66  C   UNL     1     152.284 166.492 194.320  0.00  0.00    -0.043 C 
ATOM     67  C   UNL     1     152.145 166.622 192.808  0.00  0.00    +0.002 C 
ATOM     68  C   UNL     1     150.938 167.510 192.429  0.00  0.00    +0.171 C 
ATOM     69  O   UNL     1     149.912 167.451 193.432  0.00  0.00    -0.345 OA
ATOM     70  C   UNL     1     151.367 168.980 192.305  0.00  0.00    +0.002 C 
ATOM     71  C   UNL     1     150.196 169.876 191.897  0.00  0.00    -0.046 C 
ATOM     72  C   UNL     1     149.164 169.127 191.060  0.00  0.00    -0.026 C 
ATOM     73  C   UNL     1     149.813 167.964 190.312  0.00  0.00    +0.062 C 
ATOM     74  O   UNL     1     150.433 167.010 191.184  0.00  0.00    -0.345 OA
ATOM     75  H   UNL     1     149.719 165.399 193.237  0.00  0.00    +0.060 HD
ATOM     76  H   UNL     1     150.851 166.436 195.896  0.00  0.00    +0.032 HD
ATOM     77  H   UNL     1     153.161 165.881 194.567  0.00  0.00    +0.027 HD
ATOM     78  H   UNL     1     152.471 167.487 194.747  0.00  0.00    +0.027 HD
ATOM     79  H   UNL     1     152.019 165.617 192.381  0.00  0.00    +0.032 HD
ATOM     80  H   UNL     1     153.073 167.011 192.366  0.00  0.00    +0.032 HD
ATOM     81  H   UNL     1     152.149 169.070 191.543  0.00  0.00    +0.032 HD
ATOM     82  H   UNL     1     151.787 169.355 193.245  0.00  0.00    +0.032 HD
ATOM     83  H   UNL     1     149.708 170.290 192.787  0.00  0.00    +0.027 HD
ATOM     84  H   UNL     1     150.585 170.735 191.338  0.00  0.00    +0.027 HD
ATOM     85  H   UNL     1     148.387 168.756 191.737  0.00  0.00    +0.029 HD
ATOM     86  H   UNL     1     148.677 169.822 190.366  0.00  0.00    +0.029 HD
ATOM     87  H   UNL     1     150.604 168.364 189.668  0.00  0.00    +0.060 HD
BRANCH  65  88
ATOM     88  C   UNL     1     151.167 164.421 195.263  0.00  0.00    -0.060 C 
ATOM     89  H   UNL     1     152.062 164.259 195.871  0.00  0.00    +0.023 HD
ATOM     90  H   UNL     1     151.266 163.832 194.344  0.00  0.00    +0.023 HD
ATOM     91  H   UNL     1     150.312 164.039 195.824  0.00  0.00    +0.023 HD
ENDBRANCH  65  88
BRANCH  73  92
ATOM     92  C   UNL     1     148.826 167.217 189.396  0.00  0.00    -0.026 C 
ATOM     93  H   UNL     1     148.376 166.397 189.975  0.00  0.00    +0.029 HD
ATOM     94  H   UNL     1     149.380 166.776 188.558  0.00  0.00    +0.029 HD
BRANCH  92  95
ATOM     95  C   UNL     1     147.692 168.110 188.874  0.00  0.00    -0.045 C 
ATOM     96  H   UNL     1     147.841 169.139 189.220  0.00  0.00    +0.027 HD
ATOM     97  H   UNL     1     146.743 167.765 189.306  0.00  0.00    +0.027 HD
BRANCH  95  98
ATOM     98  C   UNL     1     147.558 168.105 187.336  0.00  0.00    -0.025 C 
ATOM     99  H   UNL     1     146.733 167.436 187.076  0.00  0.00    +0.034 HD
BRANCH  98 100
ATOM    100  C   UNL     1     148.819 167.597 186.641  0.00  0.00    -0.059 C 
ATOM    101  H   UNL     1     148.585 167.125 185.679  0.00  0.00    +0.024 HD
ATOM    102  H   UNL     1     149.338 166.857 187.266  0.00  0.00    +0.024 HD
ATOM    103  H   UNL     1     149.522 168.415 186.456  0.00  0.00    +0.024 HD
ENDBRANCH  98 100
BRANCH  98 104
ATOM    104  C   UNL     1     147.267 169.522 186.883  0.00  0.00    -0.080 C 
ATOM    105  C   UNL     1     146.133 170.013 186.335  0.00  0.00    -0.048 C 
ATOM    106  H   UNL     1     148.088 170.213 187.076  0.00  0.00    +0.058 HD
BRANCH 105 107
ATOM    107  C   UNL     1     144.933 169.169 185.992  0.00  0.00    -0.041 C 
ATOM    108  H   UNL     1     144.406 169.588 185.128  0.00  0.00    +0.028 HD
ATOM    109  H   UNL     1     144.213 169.086 186.811  0.00  0.00    +0.028 HD
ATOM    110  H   UNL     1     145.228 168.145 185.748  0.00  0.00    +0.028 HD
ENDBRANCH 105 107
BRANCH 105 111
ATOM    111  C   UNL     1     146.003 171.495 186.048  0.00  0.00    +0.073 C 
ATOM    112  H   UNL     1     146.162 172.075 186.965  0.00  0.00    +0.064 HD
BRANCH 111 113
ATOM    113  C   UNL     1     144.638 171.859 185.480  0.00  0.00    -0.035 C 
ATOM    114  H   UNL     1     143.999 172.328 186.238  0.00  0.00    +0.026 HD
ATOM    115  H   UNL     1     144.721 172.539 184.627  0.00  0.00    +0.026 HD
ATOM    116  H   UNL     1     144.109 170.956 185.150  0.00  0.00    +0.026 HD
ENDBRANCH 111 113
BRANCH 111 117
ATOM    117  O   UNL     1     147.029 171.878 185.137  0.00  0.00    -0.388 OA
ATOM    118  H   UNL     1     147.753 172.256 185.662  0.00  0.00    +0.210 HD
ENDBRANCH 111 117
ENDBRANCH 105 111
ENDBRANCH  98 104
ENDBRANCH  95  98
ENDBRANCH  92  95
ENDBRANCH  73  92
ENDBRANCH  61  64
ENDBRANCH   1  61
TORSDOF 27
ENDMDL
MODEL 8
REMARK VINA RESULT:      -6.2      2.170      4.790
REMARK  Name = Bistramide A_conf2
REMARK  27 active torsions:
REMARK  status: ('A' for Active; 'I' for Inactive)
REMARK    1  A    between atoms: C_1  and  C_2
REMARK    2  A    between atoms: C_3  and  C_4
REMARK    3  A    between atoms: C_4  and  C_6
REMARK    4  A    between atoms: C_6  and  C_7
REMARK    5  A    between atoms: C_10  and  C_50
REMARK    6  A    between atoms: C_11  and  C_13
REMARK    7  A    between atoms: C_13  and  C_14
REMARK    8  A    between atoms: N_16  and  C_17
REMARK    9  A    between atoms: C_17  and  C_18
REMARK   10  A    between atoms: C_18  and  C_19
REMARK   11  A    between atoms: C_18  and  O_49
REMARK   12  A    between atoms: C_19  and  C_20
REMARK   13  A    between atoms: C_19  and  C_21
REMARK   14  A    between atoms: N_23  and  C_24
REMARK   15  A    between atoms: C_24  and  C_25
REMARK   16  A    between atoms: C_25  and  C_26
REMARK   17  A    between atoms: C_26  and  C_27
REMARK   18  A    between atoms: C_28  and  C_48
REMARK   19  A    between atoms: C_36  and  C_38
REMARK   20  A    between atoms: C_38  and  C_39
REMARK   21  A    between atoms: C_39  and  C_40
REMARK   22  A    between atoms: C_40  and  C_41
REMARK   23  A    between atoms: C_40  and  C_42
REMARK   24  A    between atoms: C_43  and  C_44
REMARK   25  A    between atoms: C_43  and  C_45
REMARK   26  A    between atoms: C_45  and  C_46
REMARK   27  A    between atoms: C_45  and  O_47
REMARK                            x       y       z     vdW  Elec       q    Type
REMARK                         _______ _______ _______ _____ _____    ______ ____
ROOT
ATOM      1  C   UNL     1     147.667 167.555 192.350  0.00  0.00    -0.035 C 
ATOM      2  H   UNL     1     148.047 166.630 191.907  0.00  0.00    +0.028 HD
ATOM      3  H   UNL     1     146.634 167.675 191.995  0.00  0.00    +0.028 HD
ENDROOT
BRANCH   1   4
ATOM      4  C   UNL     1     148.492 168.736 191.856  0.00  0.00    +0.012 C 
ATOM      5  H   UNL     1     149.521 168.669 192.237  0.00  0.00    +0.046 HD
ATOM      6  H   UNL     1     148.534 168.746 190.762  0.00  0.00    +0.046 HD
BRANCH   4   9
ATOM      7  C   UNL     1     148.573 171.191 192.150  0.00  0.00    +0.218 C 
ATOM      8  O   UNL     1     149.698 171.289 191.668  0.00  0.00    -0.275 OA
ATOM      9  N   UNL     1     147.937 169.983 192.341  0.00  0.00    -0.315 N 
ATOM     10  H   UNL     1     147.016 169.970 192.756  0.00  0.00    +0.149 HD
BRANCH   7  11
ATOM     11  C   UNL     1     147.788 172.392 192.681  0.00  0.00    +0.060 C 
ATOM     12  H   UNL     1     146.817 172.026 193.049  0.00  0.00    +0.042 HD
BRANCH  11  13
ATOM     13  C   UNL     1     148.581 172.953 193.863  0.00  0.00    -0.052 C 
ATOM     14  H   UNL     1     149.486 172.360 194.048  0.00  0.00    +0.024 HD
ATOM     15  H   UNL     1     148.904 173.982 193.673  0.00  0.00    +0.024 HD
ATOM     16  H   UNL     1     147.983 172.963 194.778  0.00  0.00    +0.024 HD
ENDBRANCH  11  13
BRANCH  11  17
ATOM     17  C   UNL     1     147.546 173.389 191.530  0.00  0.00    +0.081 C 
ATOM     18  H   UNL     1     147.061 174.307 191.890  0.00  0.00    +0.062 HD
BRANCH  17  19
ATOM     19  C   UNL     1     146.711 172.838 190.360  0.00  0.00    +0.038 C 
ATOM     20  H   UNL     1     146.461 173.640 189.656  0.00  0.00    +0.049 HD
ATOM     21  H   UNL     1     147.251 172.050 189.825  0.00  0.00    +0.049 HD
BRANCH  19  24
ATOM     22  C   UNL     1     144.260 172.356 190.236  0.00  0.00    +0.216 C 
ATOM     23  O   UNL     1     144.079 173.091 189.270  0.00  0.00    -0.276 OA
ATOM     24  N   UNL     1     145.483 172.213 190.852  0.00  0.00    -0.313 N 
ATOM     25  H   UNL     1     145.559 171.601 191.656  0.00  0.00    +0.149 HD
BRANCH  22  26
ATOM     26  C   UNL     1     143.159 171.561 190.901  0.00  0.00    +0.050 C 
ATOM     27  H   UNL     1     142.250 171.707 190.306  0.00  0.00    +0.038 HD
ATOM     28  H   UNL     1     142.932 171.977 191.889  0.00  0.00    +0.038 HD
BRANCH  26  33
ATOM     29  C   UNL     1     144.550 168.404 189.575  0.00  0.00    +0.066 C 
ATOM     30  C   UNL     1     144.128 167.457 190.691  0.00  0.00    -0.026 C 
ATOM     31  C   UNL     1     142.661 167.669 191.052  0.00  0.00    -0.046 C 
ATOM     32  C   UNL     1     142.229 169.143 190.969  0.00  0.00    -0.017 C 
ATOM     33  C   UNL     1     143.470 170.065 191.006  0.00  0.00    +0.070 C 
ATOM     34  O   UNL     1     144.409 169.778 189.952  0.00  0.00    -0.372 OA
ATOM     35  H   UNL     1     143.906 168.241 188.704  0.00  0.00    +0.060 HD
ATOM     36  H   UNL     1     144.290 166.413 190.402  0.00  0.00    +0.029 HD
ATOM     37  H   UNL     1     144.743 167.636 191.581  0.00  0.00    +0.029 HD
ATOM     38  H   UNL     1     142.035 167.043 190.407  0.00  0.00    +0.027 HD
ATOM     39  H   UNL     1     142.500 167.300 192.073  0.00  0.00    +0.027 HD
ATOM     40  H   UNL     1     141.605 169.345 191.850  0.00  0.00    +0.032 HD
ATOM     41  H   UNL     1     143.997 169.899 191.953  0.00  0.00    +0.060 HD
BRANCH  32  42
ATOM     42  C   UNL     1     141.333 169.381 189.746  0.00  0.00    -0.060 C 
ATOM     43  H   UNL     1     140.807 170.337 189.795  0.00  0.00    +0.023 HD
ATOM     44  H   UNL     1     140.587 168.592 189.651  0.00  0.00    +0.023 HD
ATOM     45  H   UNL     1     141.929 169.363 188.824  0.00  0.00    +0.023 HD
ENDBRANCH  32  42
BRANCH  29  46
ATOM     46  C   UNL     1     146.006 168.171 189.177  0.00  0.00    +0.036 C 
ATOM     47  H   UNL     1     146.526 167.538 189.903  0.00  0.00    +0.037 HD
ATOM     48  H   UNL     1     146.544 169.123 189.121  0.00  0.00    +0.037 HD
BRANCH  46  49
ATOM     49  C   UNL     1     146.076 167.456 187.844  0.00  0.00    +0.158 C 
ATOM     50  O   UNL     1     145.064 167.034 187.283  0.00  0.00    -0.293 OA
BRANCH  49  52
ATOM     51  C   UNL     1     147.580 166.776 186.007  0.00  0.00    -0.084 C 
ATOM     52  C   UNL     1     147.433 167.260 187.250  0.00  0.00    -0.023 C 
ATOM     53  H   UNL     1     146.699 166.527 185.416  0.00  0.00    +0.057 HD
ATOM     54  H   UNL     1     148.288 167.524 187.861  0.00  0.00    +0.065 HD
BRANCH  51  55
ATOM     55  C   UNL     1     148.902 166.530 185.364  0.00  0.00    -0.046 C 
ATOM     56  H   UNL     1     148.820 165.886 184.479  0.00  0.00    +0.027 HD
ATOM     57  H   UNL     1     149.593 166.052 186.073  0.00  0.00    +0.027 HD
ATOM     58  H   UNL     1     149.346 167.482 185.049  0.00  0.00    +0.027 HD
ENDBRANCH  51  55
ENDBRANCH  49  52
ENDBRANCH  46  49
ENDBRANCH  29  46
ENDBRANCH  26  33
ENDBRANCH  22  26
ENDBRANCH  19  24
ENDBRANCH  17  19
BRANCH  17  59
ATOM     59  O   UNL     1     148.838 173.777 191.030  0.00  0.00    -0.390 OA
ATOM     60  H   UNL     1     149.149 173.057 190.453  0.00  0.00    +0.210 HD
ENDBRANCH  17  59
ENDBRANCH  11  17
ENDBRANCH   7  11
ENDBRANCH   4   9
ENDBRANCH   1   4
BRANCH   1  61
ATOM     61  C   UNL     1     147.672 167.450 193.877  0.00  0.00    -0.025 C 
ATOM     62  H   UNL     1     147.817 168.457 194.291  0.00  0.00    +0.029 HD
ATOM     63  H   UNL     1     146.695 167.086 194.217  0.00  0.00    +0.029 HD
BRANCH  61  64
ATOM     64  C   UNL     1     148.787 166.517 194.382  0.00  0.00    +0.065 C 
ATOM     65  C   UNL     1     148.992 166.640 195.908  0.00  0.00    -0.017 C 
ATOM     66  C   UNL     1     150.406 166.191 196.321  0.00  0.00    -0.043 C 
ATOM     67  C   UNL     1     151.000 165.248 195.282  0.00  0.00    +0.002 C 
ATOM     68  C   UNL     1     151.050 165.909 193.886  0.00  0.00    +0.171 C 
ATOM     69  O   UNL     1     150.008 166.884 193.733  0.00  0.00    -0.345 OA
ATOM     70  C   UNL     1     152.387 166.639 193.682  0.00  0.00    +0.002 C 
ATOM     71  C   UNL     1     152.476 167.275 192.293  0.00  0.00    -0.046 C 
ATOM     72  C   UNL     1     151.658 166.508 191.257  0.00  0.00    -0.026 C 
ATOM     73  C   UNL     1     151.519 165.040 191.655  0.00  0.00    +0.062 C 
ATOM     74  O   UNL     1     150.881 164.859 192.926  0.00  0.00    -0.345 OA
ATOM     75  H   UNL     1     148.528 165.486 194.103  0.00  0.00    +0.060 HD
ATOM     76  H   UNL     1     148.900 167.694 196.203  0.00  0.00    +0.032 HD
ATOM     77  H   UNL     1     150.404 165.713 197.308  0.00  0.00    +0.027 HD
ATOM     78  H   UNL     1     151.051 167.077 196.408  0.00  0.00    +0.027 HD
ATOM     79  H   UNL     1     150.385 164.338 195.244  0.00  0.00    +0.032 HD
ATOM     80  H   UNL     1     152.000 164.910 195.593  0.00  0.00    +0.032 HD
ATOM     81  H   UNL     1     153.213 165.926 193.786  0.00  0.00    +0.032 HD
ATOM     82  H   UNL     1     152.536 167.419 194.437  0.00  0.00    +0.032 HD
ATOM     83  H   UNL     1     152.130 168.313 192.329  0.00  0.00    +0.027 HD
ATOM     84  H   UNL     1     153.528 167.316 191.989  0.00  0.00    +0.027 HD
ATOM     85  H   UNL     1     150.671 166.979 191.193  0.00  0.00    +0.029 HD
ATOM     86  H   UNL     1     152.125 166.609 190.271  0.00  0.00    +0.029 HD
ATOM     87  H   UNL     1     152.522 164.607 191.741  0.00  0.00    +0.060 HD
BRANCH  65  88
ATOM     88  C   UNL     1     147.919 165.858 196.681  0.00  0.00    -0.060 C 
ATOM     89  H   UNL     1     148.289 165.577 197.672  0.00  0.00    +0.023 HD
ATOM     90  H   UNL     1     147.642 164.942 196.147  0.00  0.00    +0.023 HD
ATOM     91  H   UNL     1     147.018 166.458 196.823  0.00  0.00    +0.023 HD
ENDBRANCH  65  88
BRANCH  73  92
ATOM     92  C   UNL     1     150.760 164.206 190.606  0.00  0.00    -0.026 C 
ATOM     93  H   UNL     1     150.055 163.549 191.137  0.00  0.00    +0.029 HD
ATOM     94  H   UNL     1     151.476 163.571 190.068  0.00  0.00    +0.029 HD
BRANCH  92  95
ATOM     95  C   UNL     1     149.960 165.064 189.617  0.00  0.00    -0.045 C 
ATOM     96  H   UNL     1     150.102 166.125 189.847  0.00  0.00    +0.027 HD
ATOM     97  H   UNL     1     148.891 164.851 189.749  0.00  0.00    +0.027 HD
BRANCH  95  98
ATOM     98  C   UNL     1     150.327 164.810 188.139  0.00  0.00    -0.025 C 
ATOM     99  H   UNL     1     149.806 165.556 187.533  0.00  0.00    +0.034 HD
BRANCH  98 100
ATOM    100  C   UNL     1     149.897 163.425 187.659  0.00  0.00    -0.059 C 
ATOM    101  H   UNL     1     149.712 163.414 186.579  0.00  0.00    +0.024 HD
ATOM    102  H   UNL     1     148.978 163.104 188.167  0.00  0.00    +0.024 HD
ATOM    103  H   UNL     1     150.666 162.678 187.879  0.00  0.00    +0.024 HD
ENDBRANCH  98 100
BRANCH  98 104
ATOM    104  C   UNL     1     151.829 164.952 187.994  0.00  0.00    -0.080 C 
ATOM    105  C   UNL     1     152.551 166.075 187.784  0.00  0.00    -0.048 C 
ATOM    106  H   UNL     1     152.365 164.011 188.121  0.00  0.00    +0.058 HD
BRANCH 105 107
ATOM    107  C   UNL     1     151.942 167.436 187.567  0.00  0.00    -0.041 C 
ATOM    108  H   UNL     1     151.538 167.829 188.506  0.00  0.00    +0.028 HD
ATOM    109  H   UNL     1     151.133 167.436 186.832  0.00  0.00    +0.028 HD
ATOM    110  H   UNL     1     152.686 168.144 187.191  0.00  0.00    +0.028 HD
ENDBRANCH 105 107
BRANCH 105 111
ATOM    111  C   UNL     1     154.065 166.019 187.777  0.00  0.00    +0.073 C 
ATOM    112  H   UNL     1     154.426 165.622 186.821  0.00  0.00    +0.064 HD
BRANCH 111 113
ATOM    113  C   UNL     1     154.620 165.152 188.899  0.00  0.00    -0.035 C 
ATOM    114  H   UNL     1     155.249 164.343 188.508  0.00  0.00    +0.026 HD
ATOM    115  H   UNL     1     155.209 165.736 189.611  0.00  0.00    +0.026 HD
ATOM    116  H   UNL     1     153.803 164.666 189.446  0.00  0.00    +0.026 HD
ENDBRANCH 111 113
BRANCH 111 117
ATOM    117  O   UNL     1     154.573 167.345 187.888  0.00  0.00    -0.388 OA
ATOM    118  H   UNL     1     155.495 167.327 187.583  0.00  0.00    +0.210 HD
ENDBRANCH 111 117
ENDBRANCH 105 111
ENDBRANCH  98 104
ENDBRANCH  95  98
ENDBRANCH  92  95
ENDBRANCH  73  92
ENDBRANCH  61  64
ENDBRANCH   1  61
TORSDOF 27
ENDMDL
MODEL 9
REMARK VINA RESULT:      -6.2      2.026      3.013
REMARK  Name = Bistramide A_conf2
REMARK  27 active torsions:
REMARK  status: ('A' for Active; 'I' for Inactive)
REMARK    1  A    between atoms: C_1  and  C_2
REMARK    2  A    between atoms: C_3  and  C_4
REMARK    3  A    between atoms: C_4  and  C_6
REMARK    4  A    between atoms: C_6  and  C_7
REMARK    5  A    between atoms: C_10  and  C_50
REMARK    6  A    between atoms: C_11  and  C_13
REMARK    7  A    between atoms: C_13  and  C_14
REMARK    8  A    between atoms: N_16  and  C_17
REMARK    9  A    between atoms: C_17  and  C_18
REMARK   10  A    between atoms: C_18  and  C_19
REMARK   11  A    between atoms: C_18  and  O_49
REMARK   12  A    between atoms: C_19  and  C_20
REMARK   13  A    between atoms: C_19  and  C_21
REMARK   14  A    between atoms: N_23  and  C_24
REMARK   15  A    between atoms: C_24  and  C_25
REMARK   16  A    between atoms: C_25  and  C_26
REMARK   17  A    between atoms: C_26  and  C_27
REMARK   18  A    between atoms: C_28  and  C_48
REMARK   19  A    between atoms: C_36  and  C_38
REMARK   20  A    between atoms: C_38  and  C_39
REMARK   21  A    between atoms: C_39  and  C_40
REMARK   22  A    between atoms: C_40  and  C_41
REMARK   23  A    between atoms: C_40  and  C_42
REMARK   24  A    between atoms: C_43  and  C_44
REMARK   25  A    between atoms: C_43  and  C_45
REMARK   26  A    between atoms: C_45  and  C_46
REMARK   27  A    between atoms: C_45  and  O_47
REMARK                            x       y       z     vdW  Elec       q    Type
REMARK                         _______ _______ _______ _____ _____    ______ ____
ROOT
ATOM      1  C   UNL     1     147.205 166.861 192.560  0.00  0.00    -0.035 C 
ATOM      2  H   UNL     1     147.151 167.717 191.881  0.00  0.00    +0.028 HD
ATOM      3  H   UNL     1     147.934 166.161 192.129  0.00  0.00    +0.028 HD
ENDROOT
BRANCH   1   4
ATOM      4  C   UNL     1     145.849 166.173 192.627  0.00  0.00    +0.012 C 
ATOM      5  H   UNL     1     145.962 165.137 192.976  0.00  0.00    +0.046 HD
ATOM      6  H   UNL     1     145.184 166.696 193.323  0.00  0.00    +0.046 HD
BRANCH   4   9
ATOM      7  C   UNL     1     144.513 167.167 190.797  0.00  0.00    +0.218 C 
ATOM      8  O   UNL     1     144.225 168.168 191.447  0.00  0.00    -0.275 OA
ATOM      9  N   UNL     1     145.241 166.117 191.313  0.00  0.00    -0.315 N 
ATOM     10  H   UNL     1     145.432 165.314 190.729  0.00  0.00    +0.149 HD
BRANCH   7  11
ATOM     11  C   UNL     1     144.014 166.929 189.370  0.00  0.00    +0.060 C 
ATOM     12  H   UNL     1     144.282 167.808 188.766  0.00  0.00    +0.042 HD
BRANCH  11  13
ATOM     13  C   UNL     1     144.772 165.713 188.833  0.00  0.00    -0.052 C 
ATOM     14  H   UNL     1     145.805 165.697 189.203  0.00  0.00    +0.024 HD
ATOM     15  H   UNL     1     144.301 164.778 189.154  0.00  0.00    +0.024 HD
ATOM     16  H   UNL     1     144.795 165.707 187.741  0.00  0.00    +0.024 HD
ENDBRANCH  11  13
BRANCH  11  17
ATOM     17  C   UNL     1     142.479 166.781 189.389  0.00  0.00    +0.081 C 
ATOM     18  H   UNL     1     142.153 165.908 188.806  0.00  0.00    +0.062 HD
BRANCH  17  19
ATOM     19  C   UNL     1     141.704 168.009 188.879  0.00  0.00    +0.038 C 
ATOM     20  H   UNL     1     141.795 168.097 187.790  0.00  0.00    +0.049 HD
ATOM     21  H   UNL     1     140.643 167.946 189.142  0.00  0.00    +0.049 HD
BRANCH  19  24
ATOM     22  C   UNL     1     141.468 169.961 190.426  0.00  0.00    +0.216 C 
ATOM     23  O   UNL     1     140.306 169.697 190.718  0.00  0.00    -0.276 OA
ATOM     24  N   UNL     1     142.198 169.231 189.514  0.00  0.00    -0.313 N 
ATOM     25  H   UNL     1     143.149 169.514 189.308  0.00  0.00    +0.149 HD
BRANCH  22  26
ATOM     26  C   UNL     1     142.224 171.144 190.986  0.00  0.00    +0.050 C 
ATOM     27  H   UNL     1     142.439 170.921 192.038  0.00  0.00    +0.038 HD
ATOM     28  H   UNL     1     141.583 172.033 191.001  0.00  0.00    +0.038 HD
BRANCH  26  33
ATOM     29  C   UNL     1     145.805 172.050 190.893  0.00  0.00    +0.066 C 
ATOM     30  C   UNL     1     146.004 172.128 189.384  0.00  0.00    -0.026 C 
ATOM     31  C   UNL     1     144.890 172.944 188.735  0.00  0.00    -0.046 C 
ATOM     32  C   UNL     1     143.523 172.739 189.411  0.00  0.00    -0.017 C 
ATOM     33  C   UNL     1     143.531 171.436 190.244  0.00  0.00    +0.070 C 
ATOM     34  O   UNL     1     144.570 171.418 191.241  0.00  0.00    -0.372 OA
ATOM     35  H   UNL     1     145.775 173.066 191.302  0.00  0.00    +0.060 HD
ATOM     36  H   UNL     1     146.975 172.569 189.138  0.00  0.00    +0.029 HD
ATOM     37  H   UNL     1     145.999 171.118 188.958  0.00  0.00    +0.029 HD
ATOM     38  H   UNL     1     145.169 174.003 188.735  0.00  0.00    +0.027 HD
ATOM     39  H   UNL     1     144.821 172.654 187.679  0.00  0.00    +0.027 HD
ATOM     40  H   UNL     1     142.779 172.649 188.608  0.00  0.00    +0.032 HD
ATOM     41  H   UNL     1     143.726 170.594 189.568  0.00  0.00    +0.060 HD
BRANCH  32  42
ATOM     42  C   UNL     1     143.126 173.978 190.226  0.00  0.00    -0.060 C 
ATOM     43  H   UNL     1     143.739 174.099 191.122  0.00  0.00    +0.023 HD
ATOM     44  H   UNL     1     142.083 173.921 190.537  0.00  0.00    +0.023 HD
ATOM     45  H   UNL     1     143.224 174.885 189.617  0.00  0.00    +0.023 HD
ENDBRANCH  32  42
BRANCH  29  46
ATOM     46  C   UNL     1     146.938 171.271 191.557  0.00  0.00    +0.036 C 
ATOM     47  H   UNL     1     147.659 170.901 190.821  0.00  0.00    +0.037 HD
ATOM     48  H   UNL     1     146.541 170.405 192.097  0.00  0.00    +0.037 HD
BRANCH  46  49
ATOM     49  C   UNL     1     147.704 172.168 192.506  0.00  0.00    +0.158 C 
ATOM     50  O   UNL     1     147.148 173.070 193.133  0.00  0.00    -0.293 OA
BRANCH  49  52
ATOM     51  C   UNL     1     149.765 170.917 191.976  0.00  0.00    -0.084 C 
ATOM     52  C   UNL     1     149.174 171.929 192.628  0.00  0.00    -0.023 C 
ATOM     53  H   UNL     1     149.170 170.261 191.341  0.00  0.00    +0.057 HD
ATOM     54  H   UNL     1     149.738 172.604 193.261  0.00  0.00    +0.065 HD
BRANCH  51  55
ATOM     55  C   UNL     1     151.220 170.605 192.074  0.00  0.00    -0.046 C 
ATOM     56  H   UNL     1     151.748 170.786 191.128  0.00  0.00    +0.027 HD
ATOM     57  H   UNL     1     151.371 169.554 192.355  0.00  0.00    +0.027 HD
ATOM     58  H   UNL     1     151.684 171.231 192.845  0.00  0.00    +0.027 HD
ENDBRANCH  51  55
ENDBRANCH  49  52
ENDBRANCH  46  49
ENDBRANCH  29  46
ENDBRANCH  26  33
ENDBRANCH  22  26
ENDBRANCH  19  24
ENDBRANCH  17  19
BRANCH  17  59
ATOM     59  O   UNL     1     142.096 166.530 190.753  0.00  0.00    -0.390 OA
ATOM     60  H   UNL     1     141.233 166.079 190.729  0.00  0.00    +0.210 HD
ENDBRANCH  17  59
ENDBRANCH  11  17
ENDBRANCH   7  11
ENDBRANCH   4   9
ENDBRANCH   1   4
BRANCH   1  61
ATOM     61  C   UNL     1     147.689 167.312 193.941  0.00  0.00    -0.025 C 
ATOM     62  H   UNL     1     148.017 168.357 193.866  0.00  0.00    +0.029 HD
ATOM     63  H   UNL     1     146.851 167.273 194.647  0.00  0.00    +0.029 HD
BRANCH  61  64
ATOM     64  C   UNL     1     148.849 166.440 194.452  0.00  0.00    +0.065 C 
ATOM     65  C   UNL     1     149.052 166.589 195.976  0.00  0.00    -0.017 C 
ATOM     66  C   UNL     1     150.487 166.214 196.390  0.00  0.00    -0.043 C 
ATOM     67  C   UNL     1     151.124 165.290 195.360  0.00  0.00    +0.002 C 
ATOM     68  C   UNL     1     151.138 165.937 193.957  0.00  0.00    +0.171 C 
ATOM     69  O   UNL     1     150.049 166.859 193.797  0.00  0.00    -0.345 OA
ATOM     70  C   UNL     1     152.437 166.729 193.741  0.00  0.00    +0.002 C 
ATOM     71  C   UNL     1     152.492 167.353 192.345  0.00  0.00    -0.046 C 
ATOM     72  C   UNL     1     151.710 166.536 191.320  0.00  0.00    -0.026 C 
ATOM     73  C   UNL     1     151.644 165.067 191.734  0.00  0.00    +0.062 C 
ATOM     74  O   UNL     1     151.018 164.869 193.009  0.00  0.00    -0.345 OA
ATOM     75  H   UNL     1     148.640 165.394 194.185  0.00  0.00    +0.060 HD
ATOM     76  H   UNL     1     148.909 167.641 196.260  0.00  0.00    +0.032 HD
ATOM     77  H   UNL     1     150.511 165.747 197.382  0.00  0.00    +0.027 HD
ATOM     78  H   UNL     1     151.088 167.131 196.466  0.00  0.00    +0.027 HD
ATOM     79  H   UNL     1     150.554 164.350 195.334  0.00  0.00    +0.032 HD
ATOM     80  H   UNL     1     152.139 165.004 195.672  0.00  0.00    +0.032 HD
ATOM     81  H   UNL     1     153.297 166.058 193.851  0.00  0.00    +0.032 HD
ATOM     82  H   UNL     1     152.550 167.524 194.487  0.00  0.00    +0.032 HD
ATOM     83  H   UNL     1     152.096 168.373 192.371  0.00  0.00    +0.027 HD
ATOM     84  H   UNL     1     153.541 167.442 192.037  0.00  0.00    +0.027 HD
ATOM     85  H   UNL     1     150.702 166.957 191.253  0.00  0.00    +0.029 HD
ATOM     86  H   UNL     1     152.169 166.648 190.331  0.00  0.00    +0.029 HD
ATOM     87  H   UNL     1     152.667 164.685 191.822  0.00  0.00    +0.060 HD
BRANCH  65  88
ATOM     88  C   UNL     1     148.020 165.765 196.761  0.00  0.00    -0.060 C 
ATOM     89  H   UNL     1     147.754 166.272 197.693  0.00  0.00    +0.023 HD
ATOM     90  H   UNL     1     148.419 164.776 197.012  0.00  0.00    +0.023 HD
ATOM     91  H   UNL     1     147.102 165.628 196.185  0.00  0.00    +0.023 HD
ENDBRANCH  65  88
BRANCH  73  92
ATOM     92  C   UNL     1     150.924 164.186 190.696  0.00  0.00    -0.026 C 
ATOM     93  H   UNL     1     150.336 164.842 190.038  0.00  0.00    +0.029 HD
ATOM     94  H   UNL     1     150.228 163.516 191.217  0.00  0.00    +0.029 HD
BRANCH  92  95
ATOM     95  C   UNL     1     151.889 163.375 189.821  0.00  0.00    -0.045 C 
ATOM     96  H   UNL     1     151.419 162.430 189.527  0.00  0.00    +0.027 HD
ATOM     97  H   UNL     1     152.775 163.117 190.416  0.00  0.00    +0.027 HD
BRANCH  95  98
ATOM     98  C   UNL     1     152.356 164.125 188.555  0.00  0.00    -0.025 C 
ATOM     99  H   UNL     1     151.828 165.082 188.521  0.00  0.00    +0.034 HD
BRANCH  98 100
ATOM    100  C   UNL     1     152.037 163.362 187.271  0.00  0.00    -0.059 C 
ATOM    101  H   UNL     1     151.931 164.040 186.416  0.00  0.00    +0.024 HD
ATOM    102  H   UNL     1     151.101 162.797 187.376  0.00  0.00    +0.024 HD
ATOM    103  H   UNL     1     152.826 162.641 187.037  0.00  0.00    +0.024 HD
ENDBRANCH  98 100
BRANCH  98 104
ATOM    104  C   UNL     1     153.853 164.338 188.657  0.00  0.00    -0.080 C 
ATOM    105  C   UNL     1     154.544 165.498 188.589  0.00  0.00    -0.048 C 
ATOM    106  H   UNL     1     154.407 163.419 188.850  0.00  0.00    +0.058 HD
BRANCH 105 107
ATOM    107  C   UNL     1     153.912 166.836 188.303  0.00  0.00    -0.041 C 
ATOM    108  H   UNL     1     153.931 167.467 189.198  0.00  0.00    +0.028 HD
ATOM    109  H   UNL     1     152.873 166.762 187.971  0.00  0.00    +0.028 HD
ATOM    110  H   UNL     1     154.444 167.360 187.504  0.00  0.00    +0.028 HD
ENDBRANCH 105 107
BRANCH 105 111
ATOM    111  C   UNL     1     156.040 165.511 188.825  0.00  0.00    +0.073 C 
ATOM    112  H   UNL     1     156.569 165.746 187.893  0.00  0.00    +0.064 HD
BRANCH 111 113
ATOM    113  C   UNL     1     156.557 164.177 189.348  0.00  0.00    -0.035 C 
ATOM    114  H   UNL     1     157.387 163.800 188.737  0.00  0.00    +0.026 HD
ATOM    115  H   UNL     1     156.896 164.252 190.385  0.00  0.00    +0.026 HD
ATOM    116  H   UNL     1     155.770 163.416 189.297  0.00  0.00    +0.026 HD
ENDBRANCH 111 113
BRANCH 111 117
ATOM    117  O   UNL     1     156.351 166.551 189.747  0.00  0.00    -0.388 OA
ATOM    118  H   UNL     1     156.922 167.185 189.284  0.00  0.00    +0.210 HD
ENDBRANCH 111 117
ENDBRANCH 105 111
ENDBRANCH  98 104
ENDBRANCH  95  98
ENDBRANCH  92  95
ENDBRANCH  73  92
ENDBRANCH  61  64
ENDBRANCH   1  61
TORSDOF 27
ENDMDL
MODEL 10
REMARK VINA RESULT:      -6.2      6.013     11.347
REMARK  Name = Bistramide A_conf2
REMARK  27 active torsions:
REMARK  status: ('A' for Active; 'I' for Inactive)
REMARK    1  A    between atoms: C_1  and  C_2
REMARK    2  A    between atoms: C_3  and  C_4
REMARK    3  A    between atoms: C_4  and  C_6
REMARK    4  A    between atoms: C_6  and  C_7
REMARK    5  A    between atoms: C_10  and  C_50
REMARK    6  A    between atoms: C_11  and  C_13
REMARK    7  A    between atoms: C_13  and  C_14
REMARK    8  A    between atoms: N_16  and  C_17
REMARK    9  A    between atoms: C_17  and  C_18
REMARK   10  A    between atoms: C_18  and  C_19
REMARK   11  A    between atoms: C_18  and  O_49
REMARK   12  A    between atoms: C_19  and  C_20
REMARK   13  A    between atoms: C_19  and  C_21
REMARK   14  A    between atoms: N_23  and  C_24
REMARK   15  A    between atoms: C_24  and  C_25
REMARK   16  A    between atoms: C_25  and  C_26
REMARK   17  A    between atoms: C_26  and  C_27
REMARK   18  A    between atoms: C_28  and  C_48
REMARK   19  A    between atoms: C_36  and  C_38
REMARK   20  A    between atoms: C_38  and  C_39
REMARK   21  A    between atoms: C_39  and  C_40
REMARK   22  A    between atoms: C_40  and  C_41
REMARK   23  A    between atoms: C_40  and  C_42
REMARK   24  A    between atoms: C_43  and  C_44
REMARK   25  A    between atoms: C_43  and  C_45
REMARK   26  A    between atoms: C_45  and  C_46
REMARK   27  A    between atoms: C_45  and  O_47
REMARK                            x       y       z     vdW  Elec       q    Type
REMARK                         _______ _______ _______ _____ _____    ______ ____
ROOT
ATOM      1  C   UNL     1     152.956 163.295 190.006  0.00  0.00    -0.035 C 
ATOM      2  H   UNL     1     151.959 163.727 189.880  0.00  0.00    +0.028 HD
ATOM      3  H   UNL     1     153.439 163.849 190.823  0.00  0.00    +0.028 HD
ENDROOT
BRANCH   1   4
ATOM      4  C   UNL     1     153.767 163.499 188.733  0.00  0.00    +0.012 C 
ATOM      5  H   UNL     1     154.840 163.386 188.941  0.00  0.00    +0.046 HD
ATOM      6  H   UNL     1     153.488 162.759 187.975  0.00  0.00    +0.046 HD
BRANCH   4   9
ATOM      7  C   UNL     1     153.814 165.152 186.893  0.00  0.00    +0.218 C 
ATOM      8  O   UNL     1     154.323 164.367 186.098  0.00  0.00    -0.275 OA
ATOM      9  N   UNL     1     153.571 164.836 188.213  0.00  0.00    -0.315 N 
ATOM     10  H   UNL     1     153.163 165.534 188.820  0.00  0.00    +0.149 HD
BRANCH   7  11
ATOM     11  C   UNL     1     153.482 166.602 186.535  0.00  0.00    +0.060 C 
ATOM     12  H   UNL     1     153.076 166.615 185.512  0.00  0.00    +0.042 HD
BRANCH  11  13
ATOM     13  C   UNL     1     152.388 167.058 187.503  0.00  0.00    -0.052 C 
ATOM     14  H   UNL     1     151.449 166.520 187.320  0.00  0.00    +0.024 HD
ATOM     15  H   UNL     1     152.672 166.865 188.543  0.00  0.00    +0.024 HD
ATOM     16  H   UNL     1     152.195 168.130 187.413  0.00  0.00    +0.024 HD
ENDBRANCH  11  13
BRANCH  11  17
ATOM     17  C   UNL     1     154.774 167.442 186.573  0.00  0.00    +0.081 C 
ATOM     18  H   UNL     1     154.611 168.407 187.074  0.00  0.00    +0.062 HD
BRANCH  17  19
ATOM     19  C   UNL     1     155.406 167.722 185.197  0.00  0.00    +0.038 C 
ATOM     20  H   UNL     1     156.031 166.878 184.883  0.00  0.00    +0.049 HD
ATOM     21  H   UNL     1     154.638 167.898 184.437  0.00  0.00    +0.049 HD
BRANCH  19  24
ATOM     22  C   UNL     1     157.314 169.152 184.441  0.00  0.00    +0.216 C 
ATOM     23  O   UNL     1     157.767 168.296 183.688  0.00  0.00    -0.276 OA
ATOM     24  N   UNL     1     156.210 168.943 185.239  0.00  0.00    -0.313 N 
ATOM     25  H   UNL     1     155.898 169.689 185.849  0.00  0.00    +0.149 HD
BRANCH  22  26
ATOM     26  C   UNL     1     157.935 170.518 184.626  0.00  0.00    +0.050 C 
ATOM     27  H   UNL     1     158.818 170.562 183.978  0.00  0.00    +0.038 HD
ATOM     28  H   UNL     1     158.316 170.627 185.648  0.00  0.00    +0.038 HD
BRANCH  26  33
ATOM     29  C   UNL     1     155.597 172.267 182.360  0.00  0.00    +0.066 C 
ATOM     30  C   UNL     1     155.327 173.513 183.194  0.00  0.00    -0.026 C 
ATOM     31  C   UNL     1     156.633 174.108 183.713  0.00  0.00    -0.046 C 
ATOM     32  C   UNL     1     157.676 173.038 184.083  0.00  0.00    -0.017 C 
ATOM     33  C   UNL     1     156.985 171.668 184.281  0.00  0.00    +0.070 C 
ATOM     34  O   UNL     1     156.248 171.242 183.119  0.00  0.00    -0.372 OA
ATOM     35  H   UNL     1     156.265 172.528 181.532  0.00  0.00    +0.060 HD
ATOM     36  H   UNL     1     154.786 174.266 182.611  0.00  0.00    +0.029 HD
ATOM     37  H   UNL     1     154.689 173.257 184.048  0.00  0.00    +0.029 HD
ATOM     38  H   UNL     1     157.036 174.804 182.969  0.00  0.00    +0.027 HD
ATOM     39  H   UNL     1     156.407 174.717 184.598  0.00  0.00    +0.027 HD
ATOM     40  H   UNL     1     158.133 173.351 185.031  0.00  0.00    +0.032 HD
ATOM     41  H   UNL     1     156.261 171.761 185.099  0.00  0.00    +0.060 HD
BRANCH  32  42
ATOM     42  C   UNL     1     158.810 173.002 183.050  0.00  0.00    -0.060 C 
ATOM     43  H   UNL     1     159.543 172.221 183.265  0.00  0.00    +0.023 HD
ATOM     44  H   UNL     1     159.336 173.956 183.016  0.00  0.00    +0.023 HD
ATOM     45  H   UNL     1     158.408 172.829 182.044  0.00  0.00    +0.023 HD
ENDBRANCH  32  42
BRANCH  29  46
ATOM     46  C   UNL     1     154.300 171.688 181.801  0.00  0.00    +0.036 C 
ATOM     47  H   UNL     1     153.716 172.446 181.269  0.00  0.00    +0.037 HD
ATOM     48  H   UNL     1     153.676 171.296 182.610  0.00  0.00    +0.037 HD
BRANCH  46  49
ATOM     49  C   UNL     1     154.605 170.592 180.802  0.00  0.00    +0.158 C 
ATOM     50  O   UNL     1     155.319 170.793 179.819  0.00  0.00    -0.293 OA
BRANCH  49  52
ATOM     51  C   UNL     1     154.690 168.240 181.551  0.00  0.00    -0.084 C 
ATOM     52  C   UNL     1     153.977 169.258 181.046  0.00  0.00    -0.023 C 
ATOM     53  H   UNL     1     155.742 168.386 181.795  0.00  0.00    +0.057 HD
ATOM     54  H   UNL     1     152.927 169.148 180.798  0.00  0.00    +0.065 HD
BRANCH  51  55
ATOM     55  C   UNL     1     154.134 166.878 181.794  0.00  0.00    -0.046 C 
ATOM     56  H   UNL     1     153.162 166.911 182.302  0.00  0.00    +0.027 HD
ATOM     57  H   UNL     1     154.824 166.284 182.410  0.00  0.00    +0.027 HD
ATOM     58  H   UNL     1     153.999 166.356 180.839  0.00  0.00    +0.027 HD
ENDBRANCH  51  55
ENDBRANCH  49  52
ENDBRANCH  46  49
ENDBRANCH  29  46
ENDBRANCH  26  33
ENDBRANCH  22  26
ENDBRANCH  19  24
ENDBRANCH  17  19
BRANCH  17  59
ATOM     59  O   UNL     1     155.724 166.719 187.376  0.00  0.00    -0.390 OA
ATOM     60  H   UNL     1     155.731 165.801 187.053  0.00  0.00    +0.210 HD
ENDBRANCH  17  59
ENDBRANCH  11  17
ENDBRANCH   7  11
ENDBRANCH   4   9
ENDBRANCH   1   4
BRANCH   1  61
ATOM     61  C   UNL     1     152.848 161.817 190.387  0.00  0.00    -0.025 C 
ATOM     62  H   UNL     1     153.193 161.216 189.536  0.00  0.00    +0.029 HD
ATOM     63  H   UNL     1     153.514 161.613 191.234  0.00  0.00    +0.029 HD
BRANCH  61  64
ATOM     64  C   UNL     1     151.403 161.425 190.747  0.00  0.00    +0.065 C 
ATOM     65  C   UNL     1     151.047 160.012 190.235  0.00  0.00    -0.017 C 
ATOM     66  C   UNL     1     149.526 159.843 190.069  0.00  0.00    -0.043 C 
ATOM     67  C   UNL     1     148.772 160.831 190.950  0.00  0.00    +0.002 C 
ATOM     68  C   UNL     1     149.173 162.289 190.631  0.00  0.00    +0.171 C 
ATOM     69  O   UNL     1     150.517 162.363 190.132  0.00  0.00    -0.345 OA
ATOM     70  C   UNL     1     148.254 162.876 189.548  0.00  0.00    +0.002 C 
ATOM     71  C   UNL     1     148.608 164.332 189.237  0.00  0.00    -0.046 C 
ATOM     72  C   UNL     1     149.212 165.046 190.442  0.00  0.00    -0.026 C 
ATOM     73  C   UNL     1     148.729 164.413 191.745  0.00  0.00    +0.062 C 
ATOM     74  O   UNL     1     149.065 163.024 191.856  0.00  0.00    -0.345 OA
ATOM     75  H   UNL     1     151.290 161.486 191.839  0.00  0.00    +0.060 HD
ATOM     76  H   UNL     1     151.489 159.865 189.239  0.00  0.00    +0.032 HD
ATOM     77  H   UNL     1     149.208 158.818 190.293  0.00  0.00    +0.027 HD
ATOM     78  H   UNL     1     149.258 160.026 189.019  0.00  0.00    +0.027 HD
ATOM     79  H   UNL     1     148.996 160.602 192.002  0.00  0.00    +0.032 HD
ATOM     80  H   UNL     1     147.686 160.690 190.848  0.00  0.00    +0.032 HD
ATOM     81  H   UNL     1     147.214 162.842 189.893  0.00  0.00    +0.032 HD
ATOM     82  H   UNL     1     148.306 162.295 188.621  0.00  0.00    +0.032 HD
ATOM     83  H   UNL     1     149.312 164.379 188.399  0.00  0.00    +0.027 HD
ATOM     84  H   UNL     1     147.703 164.853 188.902  0.00  0.00    +0.027 HD
ATOM     85  H   UNL     1     150.302 164.971 190.366  0.00  0.00    +0.029 HD
ATOM     86  H   UNL     1     148.962 166.112 190.403  0.00  0.00    +0.029 HD
ATOM     87  H   UNL     1     147.635 164.476 191.777  0.00  0.00    +0.060 HD
BRANCH  65  88
ATOM     88  C   UNL     1     151.625 158.922 191.152  0.00  0.00    -0.060 C 
ATOM     89  H   UNL     1     152.394 158.348 190.626  0.00  0.00    +0.023 HD
ATOM     90  H   UNL     1     150.842 158.229 191.476  0.00  0.00    +0.023 HD
ATOM     91  H   UNL     1     152.088 159.357 192.040  0.00  0.00    +0.023 HD
ENDBRANCH  65  88
BRANCH  73  92
ATOM     92  C   UNL     1     149.255 165.143 192.996  0.00  0.00    -0.026 C 
ATOM     93  H   UNL     1     148.606 164.879 193.844  0.00  0.00    +0.029 HD
ATOM     94  H   UNL     1     149.182 166.225 192.835  0.00  0.00    +0.029 HD
BRANCH  92  95
ATOM     95  C   UNL     1     150.695 164.754 193.359  0.00  0.00    -0.045 C 
ATOM     96  H   UNL     1     151.213 164.374 192.471  0.00  0.00    +0.027 HD
ATOM     97  H   UNL     1     150.666 163.931 194.086  0.00  0.00    +0.027 HD
BRANCH  95  98
ATOM     98  C   UNL     1     151.515 165.913 193.968  0.00  0.00    -0.025 C 
ATOM     99  H   UNL     1     152.572 165.640 193.910  0.00  0.00    +0.034 HD
BRANCH  98 100
ATOM    100  C   UNL     1     151.170 166.165 195.434  0.00  0.00    -0.059 C 
ATOM    101  H   UNL     1     150.127 165.907 195.651  0.00  0.00    +0.024 HD
ATOM    102  H   UNL     1     151.322 167.221 195.695  0.00  0.00    +0.024 HD
ATOM    103  H   UNL     1     151.810 165.572 196.095  0.00  0.00    +0.024 HD
ENDBRANCH  98 100
BRANCH  98 104
ATOM    104  C   UNL     1     151.235 167.164 193.160  0.00  0.00    -0.080 C 
ATOM    105  C   UNL     1     151.752 167.526 191.966  0.00  0.00    -0.048 C 
ATOM    106  H   UNL     1     150.485 167.812 193.615  0.00  0.00    +0.058 HD
BRANCH 105 107
ATOM    107  C   UNL     1     152.812 166.741 191.237  0.00  0.00    -0.041 C 
ATOM    108  H   UNL     1     153.476 166.241 191.950  0.00  0.00    +0.028 HD
ATOM    109  H   UNL     1     153.433 167.357 190.581  0.00  0.00    +0.028 HD
ATOM    110  H   UNL     1     152.364 165.978 190.593  0.00  0.00    +0.028 HD
ENDBRANCH 105 107
BRANCH 105 111
ATOM    111  C   UNL     1     151.258 168.777 191.267  0.00  0.00    +0.073 C 
ATOM    112  H   UNL     1     151.843 168.959 190.357  0.00  0.00    +0.064 HD
BRANCH 111 113
ATOM    113  C   UNL     1     151.350 170.012 192.153  0.00  0.00    -0.035 C 
ATOM    114  H   UNL     1     152.250 169.991 192.780  0.00  0.00    +0.026 HD
ATOM    115  H   UNL     1     151.358 170.934 191.565  0.00  0.00    +0.026 HD
ATOM    116  H   UNL     1     150.498 170.052 192.843  0.00  0.00    +0.026 HD
ENDBRANCH 111 113
BRANCH 111 117
ATOM    117  O   UNL     1     149.911 168.571 190.855  0.00  0.00    -0.388 OA
ATOM    118  H   UNL     1     149.443 169.413 190.969  0.00  0.00    +0.210 HD
ENDBRANCH 111 117
ENDBRANCH 105 111
ENDBRANCH  98 104
ENDBRANCH  95  98
ENDBRANCH  92  95
ENDBRANCH  73  92
ENDBRANCH  61  64
ENDBRANCH   1  61
TORSDOF 27
ENDMDL
