MODEL 1
REMARK VINA RESULT:      -7.7      0.000      0.000
REMARK  Name = Cytochalasin B_conf1
REMARK  6 active torsions:
REMARK  status: ('A' for Active; 'I' for Inactive)
REMARK    1  A    between atoms: C_1  and  C_2
REMARK    2  A    between atoms: C_6  and  O_35
REMARK    3  A    between atoms: C_17  and  O_34
REMARK    4  A    between atoms: C_20  and  C_33
REMARK    5  A    between atoms: C_22  and  C_26
REMARK    6  A    between atoms: C_26  and  C_27
REMARK                            x       y       z     vdW  Elec       q    Type
REMARK                         _______ _______ _______ _____ _____    ______ ____
ROOT
ATOM      1  C   UNL     1     151.716 163.084 187.680  0.00  0.00    -0.040 C 
ATOM      2  C   UNL     1     152.403 164.450 187.457  0.00  0.00    -0.050 C 
ATOM      3  C   UNL     1     152.285 165.052 186.046  0.00  0.00    -0.050 C 
ATOM      4  C   UNL     1     150.868 165.260 185.493  0.00  0.00    -0.023 C 
ATOM      5  C   UNL     1     150.138 166.535 185.951  0.00  0.00    +0.074 C 
ATOM      6  C   UNL     1     149.957 166.626 187.434  0.00  0.00    -0.049 C 
ATOM      7  C   UNL     1     148.867 166.245 188.118  0.00  0.00    +0.021 C 
ATOM      8  C   UNL     1     148.783 166.223 189.591  0.00  0.00    +0.333 C 
ATOM      9  O   UNL     1     147.827 165.749 190.185  0.00  0.00    -0.246 OA
ATOM     10  O   UNL     1     149.893 166.747 190.156  0.00  0.00    -0.444 OA
ATOM     11  C   UNL     1     150.128 166.527 191.568  0.00  0.00    +0.202 C 
ATOM     12  C   UNL     1     150.304 165.026 191.922  0.00  0.00    +0.056 C 
ATOM     13  C   UNL     1     151.269 164.285 190.998  0.00  0.00    -0.078 C 
ATOM     14  C   UNL     1     150.885 163.401 190.063  0.00  0.00    -0.087 C 
ATOM     15  C   UNL     1     151.826 162.649 189.160  0.00  0.00    -0.032 C 
ATOM     16  C   UNL     1     150.716 164.858 193.412  0.00  0.00    +0.087 C 
ATOM     17  C   UNL     1     150.127 165.923 194.322  0.00  0.00    -0.045 C 
ATOM     18  C   UNL     1     150.756 166.296 195.449  0.00  0.00    -0.097 C 
ATOM     19  C   UNL     1     148.834 166.525 193.802  0.00  0.00    -0.012 C 
ATOM     20  C   UNL     1     149.085 167.279 192.463  0.00  0.00    +0.033 C 
ATOM     21  C   UNL     1     149.669 168.703 192.596  0.00  0.00    +0.035 C 
ATOM     22  N   UNL     1     151.084 168.516 192.435  0.00  0.00    -0.308 N 
ATOM     23  C   UNL     1     151.417 167.320 191.845  0.00  0.00    +0.258 C 
ATOM     24  O   UNL     1     152.565 167.002 191.582  0.00  0.00    -0.271 OA
ATOM     25  H   UNL     1     150.652 163.164 187.429  0.00  0.00    +0.030 HD
ATOM     26  H   UNL     1     153.475 164.342 187.677  0.00  0.00    +0.027 HD
ATOM     27  H   UNL     1     152.037 165.172 188.190  0.00  0.00    +0.027 HD
ATOM     28  H   UNL     1     152.821 166.009 186.027  0.00  0.00    +0.027 HD
ATOM     29  H   UNL     1     152.827 164.400 185.350  0.00  0.00    +0.027 HD
ATOM     30  H   UNL     1     150.240 164.380 185.670  0.00  0.00    +0.029 HD
ATOM     31  H   UNL     1     150.949 165.316 184.398  0.00  0.00    +0.029 HD
ATOM     32  H   UNL     1     150.682 167.423 185.611  0.00  0.00    +0.064 HD
ATOM     33  H   UNL     1     150.823 167.008 187.972  0.00  0.00    +0.060 HD
ATOM     34  H   UNL     1     147.995 165.846 187.609  0.00  0.00    +0.069 HD
ATOM     35  H   UNL     1     149.328 164.535 191.796  0.00  0.00    +0.042 HD
ATOM     36  H   UNL     1     152.330 164.504 191.116  0.00  0.00    +0.057 HD
ATOM     37  H   UNL     1     149.826 163.176 189.940  0.00  0.00    +0.057 HD
ATOM     38  H   UNL     1     151.575 161.585 189.254  0.00  0.00    +0.031 HD
ATOM     39  H   UNL     1     152.863 162.750 189.505  0.00  0.00    +0.031 HD
ATOM     40  H   UNL     1     151.809 164.848 193.506  0.00  0.00    +0.065 HD
ATOM     41  H   UNL     1     150.373 167.068 196.107  0.00  0.00    +0.054 HD
ATOM     42  H   UNL     1     151.696 165.838 195.749  0.00  0.00    +0.054 HD
ATOM     43  H   UNL     1     148.187 165.668 193.558  0.00  0.00    +0.035 HD
ATOM     44  H   UNL     1     148.109 167.356 191.972  0.00  0.00    +0.037 HD
ATOM     45  H   UNL     1     149.513 169.136 193.587  0.00  0.00    +0.051 HD
ATOM     46  H   UNL     1     151.791 169.202 192.671  0.00  0.00    +0.149 HD
ENDROOT
BRANCH   1  47
ATOM     47  C   UNL     1     152.331 162.004 186.784  0.00  0.00    -0.062 C 
ATOM     48  H   UNL     1     152.104 162.187 185.728  0.00  0.00    +0.023 HD
ATOM     49  H   UNL     1     151.960 161.010 187.047  0.00  0.00    +0.023 HD
ATOM     50  H   UNL     1     153.420 161.981 186.896  0.00  0.00    +0.023 HD
ENDBRANCH   1  47
BRANCH  19  51
ATOM     51  C   UNL     1     148.010 167.338 194.807  0.00  0.00    -0.058 C 
ATOM     52  H   UNL     1     148.521 167.378 195.776  0.00  0.00    +0.024 HD
ATOM     53  H   UNL     1     147.836 168.368 194.488  0.00  0.00    +0.024 HD
ATOM     54  H   UNL     1     147.034 166.867 194.972  0.00  0.00    +0.024 HD
ENDBRANCH  19  51
BRANCH  21  55
ATOM     55  C   UNL     1     149.098 169.661 191.528  0.00  0.00    -0.009 C 
ATOM     56  H   UNL     1     149.804 169.798 190.700  0.00  0.00    +0.033 HD
ATOM     57  H   UNL     1     148.193 169.225 191.085  0.00  0.00    +0.033 HD
BRANCH  55  58
ATOM     58  C   UNL     1     148.742 171.015 192.100  0.00  0.00    -0.046 A 
ATOM     59  C   UNL     1     147.442 171.522 191.969  0.00  0.00    -0.059 A 
ATOM     60  C   UNL     1     147.110 172.762 192.516  0.00  0.00    -0.062 A 
ATOM     61  C   UNL     1     148.071 173.502 193.204  0.00  0.00    -0.062 A 
ATOM     62  C   UNL     1     149.364 173.005 193.342  0.00  0.00    -0.062 A 
ATOM     63  C   UNL     1     149.700 171.766 192.795  0.00  0.00    -0.059 A 
ATOM     64  H   UNL     1     146.681 170.958 191.435  0.00  0.00    +0.062 HD
ATOM     65  H   UNL     1     146.101 173.152 192.407  0.00  0.00    +0.062 HD
ATOM     66  H   UNL     1     147.811 174.468 193.629  0.00  0.00    +0.062 HD
ATOM     67  H   UNL     1     150.115 173.582 193.877  0.00  0.00    +0.062 HD
ATOM     68  H   UNL     1     150.714 171.390 192.913  0.00  0.00    +0.062 HD
ENDBRANCH  55  58
ENDBRANCH  21  55
BRANCH  16  69
ATOM     69  O   UNL     1     150.237 163.594 193.878  0.00  0.00    -0.387 OA
ATOM     70  H   UNL     1     149.430 163.394 193.376  0.00  0.00    +0.210 HD
ENDBRANCH  16  69
BRANCH   5  71
ATOM     71  O   UNL     1     148.854 166.566 185.330  0.00  0.00    -0.388 OA
ATOM     72  H   UNL     1     148.792 167.404 184.842  0.00  0.00    +0.210 HD
ENDBRANCH   5  71
TORSDOF 6
ENDMDL
MODEL 2
REMARK VINA RESULT:      -7.5      2.126      3.225
REMARK  Name = Cytochalasin B_conf1
REMARK  6 active torsions:
REMARK  status: ('A' for Active; 'I' for Inactive)
REMARK    1  A    between atoms: C_1  and  C_2
REMARK    2  A    between atoms: C_6  and  O_35
REMARK    3  A    between atoms: C_17  and  O_34
REMARK    4  A    between atoms: C_20  and  C_33
REMARK    5  A    between atoms: C_22  and  C_26
REMARK    6  A    between atoms: C_26  and  C_27
REMARK                            x       y       z     vdW  Elec       q    Type
REMARK                         _______ _______ _______ _____ _____    ______ ____
ROOT
ATOM      1  C   UNL     1     152.200 162.950 188.592  0.00  0.00    -0.040 C 
ATOM      2  C   UNL     1     152.870 163.648 189.798  0.00  0.00    -0.050 C 
ATOM      3  C   UNL     1     154.290 164.194 189.568  0.00  0.00    -0.050 C 
ATOM      4  C   UNL     1     154.475 165.192 188.416  0.00  0.00    -0.023 C 
ATOM      5  C   UNL     1     154.107 166.656 188.717  0.00  0.00    +0.074 C 
ATOM      6  C   UNL     1     152.680 166.847 189.126  0.00  0.00    -0.049 C 
ATOM      7  C   UNL     1     151.668 167.185 188.312  0.00  0.00    +0.021 C 
ATOM      8  C   UNL     1     150.253 167.228 188.730  0.00  0.00    +0.333 C 
ATOM      9  O   UNL     1     149.342 167.412 187.936  0.00  0.00    -0.246 OA
ATOM     10  O   UNL     1     150.123 167.002 190.056  0.00  0.00    -0.444 OA
ATOM     11  C   UNL     1     148.810 166.696 190.586  0.00  0.00    +0.202 C 
ATOM     12  C   UNL     1     148.219 165.381 190.009  0.00  0.00    +0.056 C 
ATOM     13  C   UNL     1     149.198 164.208 190.026  0.00  0.00    -0.078 C 
ATOM     14  C   UNL     1     149.797 163.712 188.931  0.00  0.00    -0.087 C 
ATOM     15  C   UNL     1     150.747 162.544 188.932  0.00  0.00    -0.032 C 
ATOM     16  C   UNL     1     146.891 165.013 190.729  0.00  0.00    +0.087 C 
ATOM     17  C   UNL     1     146.093 166.227 191.173  0.00  0.00    -0.045 C 
ATOM     18  C   UNL     1     145.274 166.167 192.237  0.00  0.00    -0.097 C 
ATOM     19  C   UNL     1     146.360 167.471 190.345  0.00  0.00    -0.012 C 
ATOM     20  C   UNL     1     147.840 167.924 190.505  0.00  0.00    +0.033 C 
ATOM     21  C   UNL     1     148.160 168.732 191.783  0.00  0.00    +0.035 C 
ATOM     22  N   UNL     1     148.651 167.748 192.705  0.00  0.00    -0.308 N 
ATOM     23  C   UNL     1     149.053 166.580 192.101  0.00  0.00    +0.258 C 
ATOM     24  O   UNL     1     149.543 165.645 192.713  0.00  0.00    -0.271 OA
ATOM     25  H   UNL     1     152.169 163.639 187.740  0.00  0.00    +0.030 HD
ATOM     26  H   UNL     1     152.927 162.932 190.629  0.00  0.00    +0.027 HD
ATOM     27  H   UNL     1     152.227 164.452 190.162  0.00  0.00    +0.027 HD
ATOM     28  H   UNL     1     154.645 164.652 190.499  0.00  0.00    +0.027 HD
ATOM     29  H   UNL     1     154.958 163.343 189.388  0.00  0.00    +0.027 HD
ATOM     30  H   UNL     1     153.963 164.851 187.509  0.00  0.00    +0.029 HD
ATOM     31  H   UNL     1     155.539 165.182 188.142  0.00  0.00    +0.029 HD
ATOM     32  H   UNL     1     154.752 167.051 189.509  0.00  0.00    +0.064 HD
ATOM     33  H   UNL     1     152.481 166.650 190.178  0.00  0.00    +0.060 HD
ATOM     34  H   UNL     1     151.833 167.373 187.256  0.00  0.00    +0.069 HD
ATOM     35  H   UNL     1     147.979 165.558 188.950  0.00  0.00    +0.042 HD
ATOM     36  H   UNL     1     149.414 163.762 190.996  0.00  0.00    +0.057 HD
ATOM     37  H   UNL     1     149.585 164.153 187.958  0.00  0.00    +0.057 HD
ATOM     38  H   UNL     1     150.376 161.833 188.183  0.00  0.00    +0.031 HD
ATOM     39  H   UNL     1     150.718 162.018 189.895  0.00  0.00    +0.031 HD
ATOM     40  H   UNL     1     147.093 164.362 191.589  0.00  0.00    +0.065 HD
ATOM     41  H   UNL     1     144.708 167.022 192.591  0.00  0.00    +0.054 HD
ATOM     42  H   UNL     1     145.149 165.245 192.801  0.00  0.00    +0.054 HD
ATOM     43  H   UNL     1     146.244 167.158 189.296  0.00  0.00    +0.035 HD
ATOM     44  H   UNL     1     148.059 168.557 189.638  0.00  0.00    +0.037 HD
ATOM     45  H   UNL     1     147.272 169.181 192.234  0.00  0.00    +0.051 HD
ATOM     46  H   UNL     1     148.756 167.887 193.703  0.00  0.00    +0.149 HD
ENDROOT
BRANCH   1  47
ATOM     47  C   UNL     1     152.990 161.708 188.165  0.00  0.00    -0.062 C 
ATOM     48  H   UNL     1     152.895 161.528 187.090  0.00  0.00    +0.023 HD
ATOM     49  H   UNL     1     152.643 160.816 188.694  0.00  0.00    +0.023 HD
ATOM     50  H   UNL     1     154.054 161.826 188.397  0.00  0.00    +0.023 HD
ENDBRANCH   1  47
BRANCH  19  51
ATOM     51  C   UNL     1     145.357 168.621 190.501  0.00  0.00    -0.058 C 
ATOM     52  H   UNL     1     145.040 168.987 189.518  0.00  0.00    +0.024 HD
ATOM     53  H   UNL     1     144.455 168.335 191.048  0.00  0.00    +0.024 HD
ATOM     54  H   UNL     1     145.819 169.463 191.030  0.00  0.00    +0.024 HD
ENDBRANCH  19  51
BRANCH  21  55
ATOM     55  C   UNL     1     149.207 169.835 191.519  0.00  0.00    -0.009 C 
ATOM     56  H   UNL     1     150.200 169.534 191.877  0.00  0.00    +0.033 HD
ATOM     57  H   UNL     1     149.313 169.996 190.438  0.00  0.00    +0.033 HD
BRANCH  55  58
ATOM     58  C   UNL     1     148.832 171.152 192.160  0.00  0.00    -0.046 A 
ATOM     59  C   UNL     1     147.513 171.621 192.101  0.00  0.00    -0.059 A 
ATOM     60  C   UNL     1     147.164 172.826 192.713  0.00  0.00    -0.062 A 
ATOM     61  C   UNL     1     148.128 173.569 193.392  0.00  0.00    -0.062 A 
ATOM     62  C   UNL     1     149.441 173.110 193.459  0.00  0.00    -0.062 A 
ATOM     63  C   UNL     1     149.793 171.906 192.847  0.00  0.00    -0.059 A 
ATOM     64  H   UNL     1     146.748 171.054 191.575  0.00  0.00    +0.062 HD
ATOM     65  H   UNL     1     146.139 173.186 192.660  0.00  0.00    +0.062 HD
ATOM     66  H   UNL     1     147.855 174.508 193.867  0.00  0.00    +0.062 HD
ATOM     67  H   UNL     1     150.194 173.690 193.987  0.00  0.00    +0.062 HD
ATOM     68  H   UNL     1     150.822 171.559 192.910  0.00  0.00    +0.062 HD
ENDBRANCH  55  58
ENDBRANCH  21  55
BRANCH  16  69
ATOM     69  O   UNL     1     146.068 164.277 189.822  0.00  0.00    -0.387 OA
ATOM     70  H   UNL     1     146.665 163.764 189.251  0.00  0.00    +0.210 HD
ENDBRANCH  16  69
BRANCH   5  71
ATOM     71  O   UNL     1     154.356 167.432 187.547  0.00  0.00    -0.388 OA
ATOM     72  H   UNL     1     154.304 166.829 186.786  0.00  0.00    +0.210 HD
ENDBRANCH   5  71
TORSDOF 6
ENDMDL
MODEL 3
REMARK VINA RESULT:      -7.4      3.282      6.501
REMARK  Name = Cytochalasin B_conf1
REMARK  6 active torsions:
REMARK  status: ('A' for Active; 'I' for Inactive)
REMARK    1  A    between atoms: C_1  and  C_2
REMARK    2  A    between atoms: C_6  and  O_35
REMARK    3  A    between atoms: C_17  and  O_34
REMARK    4  A    between atoms: C_20  and  C_33
REMARK    5  A    between atoms: C_22  and  C_26
REMARK    6  A    between atoms: C_26  and  C_27
REMARK                            x       y       z     vdW  Elec       q    Type
REMARK                         _______ _______ _______ _____ _____    ______ ____
ROOT
ATOM      1  C   UNL     1     143.488 166.830 192.463  0.00  0.00    -0.040 C 
ATOM      2  C   UNL     1     143.892 166.149 191.135  0.00  0.00    -0.050 C 
ATOM      3  C   UNL     1     143.280 166.738 189.852  0.00  0.00    -0.050 C 
ATOM      4  C   UNL     1     143.518 168.230 189.587  0.00  0.00    -0.023 C 
ATOM      5  C   UNL     1     144.869 168.602 188.951  0.00  0.00    +0.074 C 
ATOM      6  C   UNL     1     146.054 168.195 189.770  0.00  0.00    -0.049 C 
ATOM      7  C   UNL     1     146.712 168.974 190.643  0.00  0.00    +0.021 C 
ATOM      8  C   UNL     1     147.787 168.490 191.531  0.00  0.00    +0.333 C 
ATOM      9  O   UNL     1     148.277 169.189 192.405  0.00  0.00    -0.246 OA
ATOM     10  O   UNL     1     148.104 167.203 191.268  0.00  0.00    -0.444 OA
ATOM     11  C   UNL     1     148.902 166.470 192.229  0.00  0.00    +0.202 C 
ATOM     12  C   UNL     1     148.200 166.320 193.604  0.00  0.00    +0.056 C 
ATOM     13  C   UNL     1     146.746 165.858 193.506  0.00  0.00    -0.078 C 
ATOM     14  C   UNL     1     145.688 166.654 193.728  0.00  0.00    -0.087 C 
ATOM     15  C   UNL     1     144.252 166.206 193.654  0.00  0.00    -0.032 C 
ATOM     16  C   UNL     1     149.020 165.389 194.541  0.00  0.00    +0.087 C 
ATOM     17  C   UNL     1     150.520 165.480 194.314  0.00  0.00    -0.045 C 
ATOM     18  C   UNL     1     151.324 164.435 194.574  0.00  0.00    -0.097 C 
ATOM     19  C   UNL     1     150.972 166.808 193.734  0.00  0.00    -0.012 C 
ATOM     20  C   UNL     1     150.369 167.015 192.314  0.00  0.00    +0.033 C 
ATOM     21  C   UNL     1     151.101 166.288 191.163  0.00  0.00    +0.035 C 
ATOM     22  N   UNL     1     150.363 165.067 190.996  0.00  0.00    -0.308 N 
ATOM     23  C   UNL     1     149.107 165.102 191.555  0.00  0.00    +0.258 C 
ATOM     24  O   UNL     1     148.315 164.178 191.475  0.00  0.00    -0.271 OA
ATOM     25  H   UNL     1     143.739 167.896 192.420  0.00  0.00    +0.030 HD
ATOM     26  H   UNL     1     143.599 165.091 191.181  0.00  0.00    +0.027 HD
ATOM     27  H   UNL     1     144.981 166.136 191.044  0.00  0.00    +0.027 HD
ATOM     28  H   UNL     1     143.642 166.159 188.994  0.00  0.00    +0.027 HD
ATOM     29  H   UNL     1     142.197 166.569 189.883  0.00  0.00    +0.027 HD
ATOM     30  H   UNL     1     143.348 168.826 190.491  0.00  0.00    +0.029 HD
ATOM     31  H   UNL     1     142.736 168.568 188.893  0.00  0.00    +0.029 HD
ATOM     32  H   UNL     1     144.957 168.146 187.959  0.00  0.00    +0.064 HD
ATOM     33  H   UNL     1     146.355 167.156 189.642  0.00  0.00    +0.060 HD
ATOM     34  H   UNL     1     146.424 170.008 190.802  0.00  0.00    +0.069 HD
ATOM     35  H   UNL     1     148.169 167.313 194.076  0.00  0.00    +0.042 HD
ATOM     36  H   UNL     1     146.579 164.817 193.233  0.00  0.00    +0.057 HD
ATOM     37  H   UNL     1     145.848 167.696 194.002  0.00  0.00    +0.057 HD
ATOM     38  H   UNL     1     143.777 166.505 194.597  0.00  0.00    +0.031 HD
ATOM     39  H   UNL     1     144.186 165.111 193.612  0.00  0.00    +0.031 HD
ATOM     40  H   UNL     1     148.687 164.350 194.432  0.00  0.00    +0.065 HD
ATOM     41  H   UNL     1     152.395 164.462 194.401  0.00  0.00    +0.054 HD
ATOM     42  H   UNL     1     150.928 163.502 194.966  0.00  0.00    +0.054 HD
ATOM     43  H   UNL     1     150.520 167.580 194.376  0.00  0.00    +0.035 HD
ATOM     44  H   UNL     1     150.414 168.092 192.119  0.00  0.00    +0.037 HD
ATOM     45  H   UNL     1     152.126 166.011 191.419  0.00  0.00    +0.051 HD
ATOM     46  H   UNL     1     150.685 164.260 190.476  0.00  0.00    +0.149 HD
ENDROOT
BRANCH   1  47
ATOM     47  C   UNL     1     141.980 166.711 192.706  0.00  0.00    -0.062 C 
ATOM     48  H   UNL     1     141.754 165.908 193.416  0.00  0.00    +0.023 HD
ATOM     49  H   UNL     1     141.442 166.507 191.776  0.00  0.00    +0.023 HD
ATOM     50  H   UNL     1     141.577 167.645 193.112  0.00  0.00    +0.023 HD
ENDBRANCH   1  47
BRANCH  19  51
ATOM     51  C   UNL     1     152.475 167.103 193.800  0.00  0.00    -0.058 C 
ATOM     52  H   UNL     1     152.843 167.427 192.819  0.00  0.00    +0.024 HD
ATOM     53  H   UNL     1     152.729 167.888 194.517  0.00  0.00    +0.024 HD
ATOM     54  H   UNL     1     153.031 166.201 194.076  0.00  0.00    +0.024 HD
ENDBRANCH  19  51
BRANCH  21  55
ATOM     55  C   UNL     1     151.110 167.127 189.867  0.00  0.00    -0.009 C 
ATOM     56  H   UNL     1     150.271 166.856 189.213  0.00  0.00    +0.033 HD
ATOM     57  H   UNL     1     150.973 168.189 190.111  0.00  0.00    +0.033 HD
BRANCH  55  58
ATOM     58  C   UNL     1     152.402 166.980 189.095  0.00  0.00    -0.046 A 
ATOM     59  C   UNL     1     153.556 166.497 189.726  0.00  0.00    -0.059 A 
ATOM     60  C   UNL     1     154.741 166.342 189.006  0.00  0.00    -0.062 A 
ATOM     61  C   UNL     1     154.783 166.663 187.650  0.00  0.00    -0.062 A 
ATOM     62  C   UNL     1     153.640 167.141 187.013  0.00  0.00    -0.062 A 
ATOM     63  C   UNL     1     152.453 167.299 187.731  0.00  0.00    -0.059 A 
ATOM     64  H   UNL     1     153.542 166.242 190.783  0.00  0.00    +0.062 HD
ATOM     65  H   UNL     1     155.634 165.970 189.503  0.00  0.00    +0.062 HD
ATOM     66  H   UNL     1     155.706 166.543 187.091  0.00  0.00    +0.062 HD
ATOM     67  H   UNL     1     153.671 167.394 185.956  0.00  0.00    +0.062 HD
ATOM     68  H   UNL     1     151.568 167.671 187.219  0.00  0.00    +0.062 HD
ENDBRANCH  55  58
ENDBRANCH  21  55
BRANCH  16  69
ATOM     69  O   UNL     1     148.776 165.775 195.896  0.00  0.00    -0.387 OA
ATOM     70  H   UNL     1     147.861 165.521 196.102  0.00  0.00    +0.210 HD
ENDBRANCH  16  69
BRANCH   5  71
ATOM     71  O   UNL     1     144.905 170.017 188.767  0.00  0.00    -0.388 OA
ATOM     72  H   UNL     1     144.013 170.353 188.954  0.00  0.00    +0.210 HD
ENDBRANCH   5  71
TORSDOF 6
ENDMDL
MODEL 4
REMARK VINA RESULT:      -7.3      2.760      5.560
REMARK  Name = Cytochalasin B_conf1
REMARK  6 active torsions:
REMARK  status: ('A' for Active; 'I' for Inactive)
REMARK    1  A    between atoms: C_1  and  C_2
REMARK    2  A    between atoms: C_6  and  O_35
REMARK    3  A    between atoms: C_17  and  O_34
REMARK    4  A    between atoms: C_20  and  C_33
REMARK    5  A    between atoms: C_22  and  C_26
REMARK    6  A    between atoms: C_26  and  C_27
REMARK                            x       y       z     vdW  Elec       q    Type
REMARK                         _______ _______ _______ _____ _____    ______ ____
ROOT
ATOM      1  C   UNL     1     147.464 167.942 185.074  0.00  0.00    -0.040 C 
ATOM      2  C   UNL     1     148.184 169.153 185.710  0.00  0.00    -0.050 C 
ATOM      3  C   UNL     1     147.304 170.365 186.059  0.00  0.00    -0.050 C 
ATOM      4  C   UNL     1     146.112 170.115 186.993  0.00  0.00    -0.023 C 
ATOM      5  C   UNL     1     146.424 170.079 188.500  0.00  0.00    +0.074 C 
ATOM      6  C   UNL     1     147.407 169.019 188.887  0.00  0.00    -0.049 C 
ATOM      7  C   UNL     1     147.102 167.790 189.334  0.00  0.00    +0.021 C 
ATOM      8  C   UNL     1     148.100 166.729 189.572  0.00  0.00    +0.333 C 
ATOM      9  O   UNL     1     147.781 165.583 189.853  0.00  0.00    -0.246 OA
ATOM     10  O   UNL     1     149.359 167.188 189.400  0.00  0.00    -0.444 OA
ATOM     11  C   UNL     1     150.440 166.231 189.283  0.00  0.00    +0.202 C 
ATOM     12  C   UNL     1     150.296 165.309 188.043  0.00  0.00    +0.056 C 
ATOM     13  C   UNL     1     149.973 166.060 186.752  0.00  0.00    -0.078 C 
ATOM     14  C   UNL     1     148.771 166.045 186.154  0.00  0.00    -0.087 C 
ATOM     15  C   UNL     1     148.446 166.764 184.871  0.00  0.00    -0.032 C 
ATOM     16  C   UNL     1     151.558 164.418 187.871  0.00  0.00    +0.087 C 
ATOM     17  C   UNL     1     152.209 164.038 189.190  0.00  0.00    -0.045 C 
ATOM     18  C   UNL     1     153.527 163.785 189.265  0.00  0.00    -0.097 C 
ATOM     19  C   UNL     1     151.250 164.032 190.366  0.00  0.00    -0.012 C 
ATOM     20  C   UNL     1     150.698 165.465 190.625  0.00  0.00    +0.033 C 
ATOM     21  C   UNL     1     151.630 166.409 191.418  0.00  0.00    +0.035 C 
ATOM     22  N   UNL     1     152.315 167.156 190.401  0.00  0.00    -0.308 N 
ATOM     23  C   UNL     1     151.693 167.118 189.176  0.00  0.00    +0.258 C 
ATOM     24  O   UNL     1     152.099 167.729 188.201  0.00  0.00    -0.271 OA
ATOM     25  H   UNL     1     146.661 167.603 185.739  0.00  0.00    +0.030 HD
ATOM     26  H   UNL     1     148.960 169.502 185.014  0.00  0.00    +0.027 HD
ATOM     27  H   UNL     1     148.729 168.832 186.600  0.00  0.00    +0.027 HD
ATOM     28  H   UNL     1     147.940 171.148 186.490  0.00  0.00    +0.027 HD
ATOM     29  H   UNL     1     146.916 170.786 185.123  0.00  0.00    +0.027 HD
ATOM     30  H   UNL     1     145.559 169.216 186.699  0.00  0.00    +0.029 HD
ATOM     31  H   UNL     1     145.396 170.934 186.836  0.00  0.00    +0.029 HD
ATOM     32  H   UNL     1     146.811 171.049 188.828  0.00  0.00    +0.064 HD
ATOM     33  H   UNL     1     148.450 169.296 188.745  0.00  0.00    +0.060 HD
ATOM     34  H   UNL     1     146.071 167.481 189.471  0.00  0.00    +0.069 HD
ATOM     35  H   UNL     1     149.444 164.637 188.222  0.00  0.00    +0.042 HD
ATOM     36  H   UNL     1     150.779 166.642 186.306  0.00  0.00    +0.057 HD
ATOM     37  H   UNL     1     147.960 165.465 186.593  0.00  0.00    +0.057 HD
ATOM     38  H   UNL     1     148.001 166.022 184.195  0.00  0.00    +0.031 HD
ATOM     39  H   UNL     1     149.361 167.117 184.379  0.00  0.00    +0.031 HD
ATOM     40  H   UNL     1     152.290 164.915 187.222  0.00  0.00    +0.065 HD
ATOM     41  H   UNL     1     154.024 163.534 190.196  0.00  0.00    +0.054 HD
ATOM     42  H   UNL     1     154.161 163.833 188.383  0.00  0.00    +0.054 HD
ATOM     43  H   UNL     1     150.391 163.424 190.044  0.00  0.00    +0.035 HD
ATOM     44  H   UNL     1     149.775 165.334 191.201  0.00  0.00    +0.037 HD
ATOM     45  H   UNL     1     152.390 165.873 191.990  0.00  0.00    +0.051 HD
ATOM     46  H   UNL     1     153.147 167.714 190.551  0.00  0.00    +0.149 HD
ENDROOT
BRANCH   1  47
ATOM     47  C   UNL     1     146.834 168.318 183.729  0.00  0.00    -0.062 C 
ATOM     48  H   UNL     1     147.562 168.240 182.915  0.00  0.00    +0.023 HD
ATOM     49  H   UNL     1     146.445 169.340 183.744  0.00  0.00    +0.023 HD
ATOM     50  H   UNL     1     145.993 167.657 183.495  0.00  0.00    +0.023 HD
ENDBRANCH   1  47
BRANCH  19  51
ATOM     51  C   UNL     1     151.740 163.336 191.641  0.00  0.00    -0.058 C 
ATOM     52  H   UNL     1     151.073 163.564 192.481  0.00  0.00    +0.024 HD
ATOM     53  H   UNL     1     151.785 162.248 191.548  0.00  0.00    +0.024 HD
ATOM     54  H   UNL     1     152.740 163.692 191.912  0.00  0.00    +0.024 HD
ENDBRANCH  19  51
BRANCH  21  55
ATOM     55  C   UNL     1     150.838 167.335 192.366  0.00  0.00    -0.009 C 
ATOM     56  H   UNL     1     151.368 168.282 192.530  0.00  0.00    +0.033 HD
ATOM     57  H   UNL     1     149.876 167.602 191.908  0.00  0.00    +0.033 HD
BRANCH  55  58
ATOM     58  C   UNL     1     150.562 166.688 193.705  0.00  0.00    -0.046 A 
ATOM     59  C   UNL     1     151.611 166.156 194.467  0.00  0.00    -0.059 A 
ATOM     60  C   UNL     1     151.356 165.579 195.712  0.00  0.00    -0.062 A 
ATOM     61  C   UNL     1     150.054 165.534 196.208  0.00  0.00    -0.062 A 
ATOM     62  C   UNL     1     149.006 166.063 195.459  0.00  0.00    -0.062 A 
ATOM     63  C   UNL     1     149.257 166.639 194.213  0.00  0.00    -0.059 A 
ATOM     64  H   UNL     1     152.632 166.182 194.095  0.00  0.00    +0.062 HD
ATOM     65  H   UNL     1     152.174 165.165 196.296  0.00  0.00    +0.062 HD
ATOM     66  H   UNL     1     149.857 165.084 197.177  0.00  0.00    +0.062 HD
ATOM     67  H   UNL     1     147.989 166.027 195.844  0.00  0.00    +0.062 HD
ATOM     68  H   UNL     1     148.428 167.051 193.641  0.00  0.00    +0.062 HD
ENDBRANCH  55  58
ENDBRANCH  21  55
BRANCH  16  69
ATOM     69  O   UNL     1     151.175 163.201 187.225  0.00  0.00    -0.387 OA
ATOM     70  H   UNL     1     151.978 162.661 187.141  0.00  0.00    +0.210 HD
ENDBRANCH  16  69
BRANCH   5  71
ATOM     71  O   UNL     1     145.205 169.853 189.206  0.00  0.00    -0.388 OA
ATOM     72  H   UNL     1     145.362 169.117 189.820  0.00  0.00    +0.210 HD
ENDBRANCH   5  71
TORSDOF 6
ENDMDL
MODEL 5
REMARK VINA RESULT:      -7.1      2.807      7.636
REMARK  Name = Cytochalasin B_conf1
REMARK  6 active torsions:
REMARK  status: ('A' for Active; 'I' for Inactive)
REMARK    1  A    between atoms: C_1  and  C_2
REMARK    2  A    between atoms: C_6  and  O_35
REMARK    3  A    between atoms: C_17  and  O_34
REMARK    4  A    between atoms: C_20  and  C_33
REMARK    5  A    between atoms: C_22  and  C_26
REMARK    6  A    between atoms: C_26  and  C_27
REMARK                            x       y       z     vdW  Elec       q    Type
REMARK                         _______ _______ _______ _____ _____    ______ ____
ROOT
ATOM      1  C   UNL     1     145.119 172.329 191.100  0.00  0.00    -0.040 C 
ATOM      2  C   UNL     1     146.344 172.606 190.198  0.00  0.00    -0.050 C 
ATOM      3  C   UNL     1     147.328 173.679 190.694  0.00  0.00    -0.050 C 
ATOM      4  C   UNL     1     147.938 173.476 192.087  0.00  0.00    -0.023 C 
ATOM      5  C   UNL     1     149.144 172.524 192.171  0.00  0.00    +0.074 C 
ATOM      6  C   UNL     1     148.847 171.132 191.707  0.00  0.00    -0.049 C 
ATOM      7  C   UNL     1     148.495 170.101 192.491  0.00  0.00    +0.021 C 
ATOM      8  C   UNL     1     148.077 168.781 191.978  0.00  0.00    +0.333 C 
ATOM      9  O   UNL     1     147.638 167.905 192.708  0.00  0.00    -0.246 OA
ATOM     10  O   UNL     1     148.210 168.709 190.635  0.00  0.00    -0.444 OA
ATOM     11  C   UNL     1     147.563 167.622 189.928  0.00  0.00    +0.202 C 
ATOM     12  C   UNL     1     146.018 167.651 190.065  0.00  0.00    +0.056 C 
ATOM     13  C   UNL     1     145.402 169.026 189.810  0.00  0.00    -0.078 C 
ATOM     14  C   UNL     1     144.901 169.816 190.775  0.00  0.00    -0.087 C 
ATOM     15  C   UNL     1     144.274 171.164 190.535  0.00  0.00    -0.032 C 
ATOM     16  C   UNL     1     145.366 166.570 189.158  0.00  0.00    +0.087 C 
ATOM     17  C   UNL     1     146.222 165.325 188.998  0.00  0.00    -0.045 C 
ATOM     18  C   UNL     1     146.142 164.567 187.891  0.00  0.00    -0.097 C 
ATOM     19  C   UNL     1     147.171 165.082 190.157  0.00  0.00    -0.012 C 
ATOM     20  C   UNL     1     148.211 166.235 190.259  0.00  0.00    +0.033 C 
ATOM     21  C   UNL     1     149.410 166.145 189.288  0.00  0.00    +0.035 C 
ATOM     22  N   UNL     1     149.020 166.966 188.176  0.00  0.00    -0.308 N 
ATOM     23  C   UNL     1     147.998 167.838 188.468  0.00  0.00    +0.258 C 
ATOM     24  O   UNL     1     147.562 168.648 187.666  0.00  0.00    -0.271 OA
ATOM     25  H   UNL     1     145.459 172.046 192.103  0.00  0.00    +0.030 HD
ATOM     26  H   UNL     1     145.985 172.924 189.209  0.00  0.00    +0.027 HD
ATOM     27  H   UNL     1     146.885 171.675 190.014  0.00  0.00    +0.027 HD
ATOM     28  H   UNL     1     148.137 173.779 189.960  0.00  0.00    +0.027 HD
ATOM     29  H   UNL     1     146.810 174.646 190.690  0.00  0.00    +0.027 HD
ATOM     30  H   UNL     1     147.173 173.184 192.816  0.00  0.00    +0.029 HD
ATOM     31  H   UNL     1     148.282 174.458 192.440  0.00  0.00    +0.029 HD
ATOM     32  H   UNL     1     149.977 172.918 191.580  0.00  0.00    +0.064 HD
ATOM     33  H   UNL     1     148.898 170.996 190.628  0.00  0.00    +0.060 HD
ATOM     34  H   UNL     1     148.422 170.212 193.568  0.00  0.00    +0.069 HD
ATOM     35  H   UNL     1     145.768 167.397 191.106  0.00  0.00    +0.042 HD
ATOM     36  H   UNL     1     145.382 169.373 188.778  0.00  0.00    +0.057 HD
ATOM     37  H   UNL     1     144.918 169.475 191.809  0.00  0.00    +0.057 HD
ATOM     38  H   UNL     1     143.291 171.148 191.022  0.00  0.00    +0.031 HD
ATOM     39  H   UNL     1     144.083 171.321 189.465  0.00  0.00    +0.031 HD
ATOM     40  H   UNL     1     145.130 166.992 188.172  0.00  0.00    +0.065 HD
ATOM     41  H   UNL     1     146.755 163.685 187.738  0.00  0.00    +0.054 HD
ATOM     42  H   UNL     1     145.455 164.815 187.086  0.00  0.00    +0.054 HD
ATOM     43  H   UNL     1     146.550 165.144 191.065  0.00  0.00    +0.035 HD
ATOM     44  H   UNL     1     148.600 166.203 191.283  0.00  0.00    +0.037 HD
ATOM     45  H   UNL     1     149.567 165.135 188.901  0.00  0.00    +0.051 HD
ATOM     46  H   UNL     1     149.470 166.968 187.269  0.00  0.00    +0.149 HD
ENDROOT
BRANCH   1  47
ATOM     47  C   UNL     1     144.241 173.577 191.235  0.00  0.00    -0.062 C 
ATOM     48  H   UNL     1     143.639 173.739 190.334  0.00  0.00    +0.023 HD
ATOM     49  H   UNL     1     144.845 174.472 191.408  0.00  0.00    +0.023 HD
ATOM     50  H   UNL     1     143.557 173.481 192.085  0.00  0.00    +0.023 HD
ENDBRANCH   1  47
BRANCH  19  51
ATOM     51  C   UNL     1     147.806 163.688 190.237  0.00  0.00    -0.058 C 
ATOM     52  H   UNL     1     148.383 163.479 189.328  0.00  0.00    +0.024 HD
ATOM     53  H   UNL     1     148.483 163.571 191.086  0.00  0.00    +0.024 HD
ATOM     54  H   UNL     1     147.030 162.918 190.316  0.00  0.00    +0.024 HD
ENDBRANCH  19  51
BRANCH  21  55
ATOM     55  C   UNL     1     150.716 166.650 189.937  0.00  0.00    -0.009 C 
ATOM     56  H   UNL     1     151.594 166.339 189.357  0.00  0.00    +0.033 HD
ATOM     57  H   UNL     1     150.728 167.748 189.940  0.00  0.00    +0.033 HD
BRANCH  55  58
ATOM     58  C   UNL     1     150.873 166.171 191.363  0.00  0.00    -0.046 A 
ATOM     59  C   UNL     1     151.055 167.089 192.405  0.00  0.00    -0.059 A 
ATOM     60  C   UNL     1     151.178 166.646 193.723  0.00  0.00    -0.062 A 
ATOM     61  C   UNL     1     151.116 165.284 194.010  0.00  0.00    -0.062 A 
ATOM     62  C   UNL     1     150.932 164.363 192.981  0.00  0.00    -0.062 A 
ATOM     63  C   UNL     1     150.810 164.803 191.663  0.00  0.00    -0.059 A 
ATOM     64  H   UNL     1     151.107 168.156 192.199  0.00  0.00    +0.062 HD
ATOM     65  H   UNL     1     151.323 167.364 194.527  0.00  0.00    +0.062 HD
ATOM     66  H   UNL     1     151.213 164.939 195.036  0.00  0.00    +0.062 HD
ATOM     67  H   UNL     1     150.884 163.300 193.204  0.00  0.00    +0.062 HD
ATOM     68  H   UNL     1     150.664 164.073 190.870  0.00  0.00    +0.062 HD
ENDBRANCH  55  58
ENDBRANCH  21  55
BRANCH  16  69
ATOM     69  O   UNL     1     144.132 166.159 189.750  0.00  0.00    -0.387 OA
ATOM     70  H   UNL     1     143.645 166.968 189.980  0.00  0.00    +0.210 HD
ENDBRANCH  16  69
BRANCH   5  71
ATOM     71  O   UNL     1     149.581 172.471 193.528  0.00  0.00    -0.388 OA
ATOM     72  H   UNL     1     150.250 173.167 193.641  0.00  0.00    +0.210 HD
ENDBRANCH   5  71
TORSDOF 6
ENDMDL
MODEL 6
REMARK VINA RESULT:      -7.1      2.690      5.682
REMARK  Name = Cytochalasin B_conf1
REMARK  6 active torsions:
REMARK  status: ('A' for Active; 'I' for Inactive)
REMARK    1  A    between atoms: C_1  and  C_2
REMARK    2  A    between atoms: C_6  and  O_35
REMARK    3  A    between atoms: C_17  and  O_34
REMARK    4  A    between atoms: C_20  and  C_33
REMARK    5  A    between atoms: C_22  and  C_26
REMARK    6  A    between atoms: C_26  and  C_27
REMARK                            x       y       z     vdW  Elec       q    Type
REMARK                         _______ _______ _______ _____ _____    ______ ____
ROOT
ATOM      1  C   UNL     1     154.359 164.701 185.212  0.00  0.00    -0.040 C 
ATOM      2  C   UNL     1     154.135 163.418 186.044  0.00  0.00    -0.050 C 
ATOM      3  C   UNL     1     155.401 162.692 186.533  0.00  0.00    -0.050 C 
ATOM      4  C   UNL     1     156.391 163.507 187.376  0.00  0.00    -0.023 C 
ATOM      5  C   UNL     1     156.058 163.649 188.871  0.00  0.00    +0.074 C 
ATOM      6  C   UNL     1     154.741 164.308 189.136  0.00  0.00    -0.049 C 
ATOM      7  C   UNL     1     154.551 165.613 189.387  0.00  0.00    +0.021 C 
ATOM      8  C   UNL     1     153.223 166.245 189.505  0.00  0.00    +0.333 C 
ATOM      9  O   UNL     1     153.080 167.454 189.604  0.00  0.00    -0.246 OA
ATOM     10  O   UNL     1     152.232 165.327 189.450  0.00  0.00    -0.444 OA
ATOM     11  C   UNL     1     150.873 165.779 189.235  0.00  0.00    +0.202 C 
ATOM     12  C   UNL     1     150.685 166.491 187.869  0.00  0.00    +0.056 C 
ATOM     13  C   UNL     1     151.293 165.732 186.690  0.00  0.00    -0.078 C 
ATOM     14  C   UNL     1     152.413 166.107 186.051  0.00  0.00    -0.087 C 
ATOM     15  C   UNL     1     153.011 165.380 184.876  0.00  0.00    -0.032 C 
ATOM     16  C   UNL     1     149.184 166.807 187.616  0.00  0.00    +0.087 C 
ATOM     17  C   UNL     1     148.411 167.107 188.890  0.00  0.00    -0.045 C 
ATOM     18  C   UNL     1     147.094 166.855 188.977  0.00  0.00    -0.097 C 
ATOM     19  C   UNL     1     149.274 167.648 190.015  0.00  0.00    -0.012 C 
ATOM     20  C   UNL     1     150.319 166.584 190.459  0.00  0.00    +0.033 C 
ATOM     21  C   UNL     1     149.796 165.489 191.416  0.00  0.00    +0.035 C 
ATOM     22  N   UNL     1     149.463 164.396 190.546  0.00  0.00    -0.308 N 
ATOM     23  C   UNL     1     150.049 164.481 189.306  0.00  0.00    +0.258 C 
ATOM     24  O   UNL     1     149.923 163.624 188.447  0.00  0.00    -0.271 OA
ATOM     25  H   UNL     1     154.962 165.412 185.789  0.00  0.00    +0.030 HD
ATOM     26  H   UNL     1     153.563 162.703 185.437  0.00  0.00    +0.027 HD
ATOM     27  H   UNL     1     153.492 163.640 186.898  0.00  0.00    +0.027 HD
ATOM     28  H   UNL     1     155.098 161.801 187.098  0.00  0.00    +0.027 HD
ATOM     29  H   UNL     1     155.937 162.312 185.655  0.00  0.00    +0.027 HD
ATOM     30  H   UNL     1     156.571 164.493 186.933  0.00  0.00    +0.029 HD
ATOM     31  H   UNL     1     157.366 163.004 187.313  0.00  0.00    +0.029 HD
ATOM     32  H   UNL     1     156.058 162.664 189.352  0.00  0.00    +0.064 HD
ATOM     33  H   UNL     1     153.882 163.641 189.076  0.00  0.00    +0.060 HD
ATOM     34  H   UNL     1     155.387 166.303 189.438  0.00  0.00    +0.069 HD
ATOM     35  H   UNL     1     151.217 167.452 187.915  0.00  0.00    +0.042 HD
ATOM     36  H   UNL     1     150.774 164.830 186.365  0.00  0.00    +0.057 HD
ATOM     37  H   UNL     1     152.936 167.008 186.370  0.00  0.00    +0.057 HD
ATOM     38  H   UNL     1     153.157 166.124 184.083  0.00  0.00    +0.031 HD
ATOM     39  H   UNL     1     152.306 164.639 184.476  0.00  0.00    +0.031 HD
ATOM     40  H   UNL     1     148.706 165.980 187.075  0.00  0.00    +0.065 HD
ATOM     41  H   UNL     1     146.520 167.038 189.879  0.00  0.00    +0.054 HD
ATOM     42  H   UNL     1     146.542 166.442 188.136  0.00  0.00    +0.054 HD
ATOM     43  H   UNL     1     149.846 168.479 189.575  0.00  0.00    +0.035 HD
ATOM     44  H   UNL     1     151.113 167.135 190.975  0.00  0.00    +0.037 HD
ATOM     45  H   UNL     1     148.878 165.779 191.932  0.00  0.00    +0.051 HD
ATOM     46  H   UNL     1     148.899 163.596 190.808  0.00  0.00    +0.149 HD
ENDROOT
BRANCH   1  47
ATOM     47  C   UNL     1     155.111 164.392 183.913  0.00  0.00    -0.062 C 
ATOM     48  H   UNL     1     156.125 164.032 184.118  0.00  0.00    +0.023 HD
ATOM     49  H   UNL     1     155.184 165.277 183.276  0.00  0.00    +0.023 HD
ATOM     50  H   UNL     1     154.589 163.622 183.336  0.00  0.00    +0.023 HD
ENDBRANCH   1  47
BRANCH  19  51
ATOM     51  C   UNL     1     148.531 168.292 191.192  0.00  0.00    -0.058 C 
ATOM     52  H   UNL     1     147.957 169.161 190.851  0.00  0.00    +0.024 HD
ATOM     53  H   UNL     1     147.831 167.612 191.684  0.00  0.00    +0.024 HD
ATOM     54  H   UNL     1     149.243 168.646 191.947  0.00  0.00    +0.024 HD
ENDBRANCH  19  51
BRANCH  21  55
ATOM     55  C   UNL     1     150.858 165.080 192.459  0.00  0.00    -0.009 C 
ATOM     56  H   UNL     1     151.053 164.001 192.425  0.00  0.00    +0.033 HD
ATOM     57  H   UNL     1     151.814 165.568 192.226  0.00  0.00    +0.033 HD
BRANCH  55  58
ATOM     58  C   UNL     1     150.461 165.464 193.867  0.00  0.00    -0.046 A 
ATOM     59  C   UNL     1     151.411 165.471 194.897  0.00  0.00    -0.059 A 
ATOM     60  C   UNL     1     151.047 165.847 196.190  0.00  0.00    -0.062 A 
ATOM     61  C   UNL     1     149.734 166.224 196.465  0.00  0.00    -0.062 A 
ATOM     62  C   UNL     1     148.783 166.224 195.447  0.00  0.00    -0.062 A 
ATOM     63  C   UNL     1     149.143 165.847 194.153  0.00  0.00    -0.059 A 
ATOM     64  H   UNL     1     152.440 165.179 194.700  0.00  0.00    +0.062 HD
ATOM     65  H   UNL     1     151.789 165.845 196.986  0.00  0.00    +0.062 HD
ATOM     66  H   UNL     1     149.451 166.515 197.473  0.00  0.00    +0.062 HD
ATOM     67  H   UNL     1     147.757 166.516 195.660  0.00  0.00    +0.062 HD
ATOM     68  H   UNL     1     148.390 165.854 193.368  0.00  0.00    +0.062 HD
ENDBRANCH  55  58
ENDBRANCH  21  55
BRANCH  16  69
ATOM     69  O   UNL     1     149.094 167.967 186.786  0.00  0.00    -0.387 OA
ATOM     70  H   UNL     1     149.323 168.731 187.342  0.00  0.00    +0.210 HD
ENDBRANCH  16  69
BRANCH   5  71
ATOM     71  O   UNL     1     157.088 164.418 189.490  0.00  0.00    -0.388 OA
ATOM     72  H   UNL     1     157.900 163.885 189.462  0.00  0.00    +0.210 HD
ENDBRANCH   5  71
TORSDOF 6
ENDMDL
MODEL 7
REMARK VINA RESULT:      -7.1      3.282      5.154
REMARK  Name = Cytochalasin B_conf1
REMARK  6 active torsions:
REMARK  status: ('A' for Active; 'I' for Inactive)
REMARK    1  A    between atoms: C_1  and  C_2
REMARK    2  A    between atoms: C_6  and  O_35
REMARK    3  A    between atoms: C_17  and  O_34
REMARK    4  A    between atoms: C_20  and  C_33
REMARK    5  A    between atoms: C_22  and  C_26
REMARK    6  A    between atoms: C_26  and  C_27
REMARK                            x       y       z     vdW  Elec       q    Type
REMARK                         _______ _______ _______ _____ _____    ______ ____
ROOT
ATOM      1  C   UNL     1     144.497 163.760 188.925  0.00  0.00    -0.040 C 
ATOM      2  C   UNL     1     144.157 165.235 188.615  0.00  0.00    -0.050 C 
ATOM      3  C   UNL     1     142.743 165.705 188.999  0.00  0.00    -0.050 C 
ATOM      4  C   UNL     1     142.325 165.533 190.465  0.00  0.00    -0.023 C 
ATOM      5  C   UNL     1     142.805 166.619 191.443  0.00  0.00    +0.074 C 
ATOM      6  C   UNL     1     144.294 166.753 191.512  0.00  0.00    -0.049 C 
ATOM      7  C   UNL     1     145.095 166.162 192.413  0.00  0.00    +0.021 C 
ATOM      8  C   UNL     1     146.569 166.210 192.361  0.00  0.00    +0.333 C 
ATOM      9  O   UNL     1     147.272 165.556 193.117  0.00  0.00    -0.246 OA
ATOM     10  O   UNL     1     147.003 167.018 191.369  0.00  0.00    -0.444 OA
ATOM     11  C   UNL     1     148.392 166.946 190.966  0.00  0.00    +0.202 C 
ATOM     12  C   UNL     1     148.782 165.556 190.398  0.00  0.00    +0.056 C 
ATOM     13  C   UNL     1     147.796 165.015 189.364  0.00  0.00    -0.078 C 
ATOM     14  C   UNL     1     146.936 164.009 189.599  0.00  0.00    -0.087 C 
ATOM     15  C   UNL     1     145.974 163.453 188.583  0.00  0.00    -0.032 C 
ATOM     16  C   UNL     1     150.229 165.581 189.830  0.00  0.00    +0.087 C 
ATOM     17  C   UNL     1     151.153 166.525 190.581  0.00  0.00    -0.045 C 
ATOM     18  C   UNL     1     152.198 167.106 189.968  0.00  0.00    -0.097 C 
ATOM     19  C   UNL     1     150.741 166.766 192.022  0.00  0.00    -0.012 C 
ATOM     20  C   UNL     1     149.357 167.477 192.080  0.00  0.00    +0.033 C 
ATOM     21  C   UNL     1     149.379 169.006 191.854  0.00  0.00    +0.035 C 
ATOM     22  N   UNL     1     149.087 169.155 190.456  0.00  0.00    -0.308 N 
ATOM     23  C   UNL     1     148.511 168.041 189.892  0.00  0.00    +0.258 C 
ATOM     24  O   UNL     1     148.149 167.994 188.728  0.00  0.00    -0.271 OA
ATOM     25  H   UNL     1     144.349 163.566 189.993  0.00  0.00    +0.030 HD
ATOM     26  H   UNL     1     144.274 165.402 187.535  0.00  0.00    +0.027 HD
ATOM     27  H   UNL     1     144.895 165.890 189.082  0.00  0.00    +0.027 HD
ATOM     28  H   UNL     1     142.636 166.760 188.717  0.00  0.00    +0.027 HD
ATOM     29  H   UNL     1     142.022 165.162 188.376  0.00  0.00    +0.027 HD
ATOM     30  H   UNL     1     142.595 164.539 190.841  0.00  0.00    +0.029 HD
ATOM     31  H   UNL     1     141.226 165.540 190.495  0.00  0.00    +0.029 HD
ATOM     32  H   UNL     1     142.380 167.590 191.165  0.00  0.00    +0.064 HD
ATOM     33  H   UNL     1     144.729 167.364 190.723  0.00  0.00    +0.060 HD
ATOM     34  H   UNL     1     144.690 165.536 193.201  0.00  0.00    +0.069 HD
ATOM     35  H   UNL     1     148.771 164.837 191.231  0.00  0.00    +0.042 HD
ATOM     36  H   UNL     1     147.800 165.489 188.383  0.00  0.00    +0.057 HD
ATOM     37  H   UNL     1     146.927 163.529 190.577  0.00  0.00    +0.057 HD
ATOM     38  H   UNL     1     146.131 162.368 188.557  0.00  0.00    +0.031 HD
ATOM     39  H   UNL     1     146.212 163.822 187.577  0.00  0.00    +0.031 HD
ATOM     40  H   UNL     1     150.216 165.840 188.763  0.00  0.00    +0.065 HD
ATOM     41  H   UNL     1     152.862 167.801 190.471  0.00  0.00    +0.054 HD
ATOM     42  H   UNL     1     152.421 166.906 188.922  0.00  0.00    +0.054 HD
ATOM     43  H   UNL     1     150.593 165.766 192.458  0.00  0.00    +0.035 HD
ATOM     44  H   UNL     1     148.961 167.287 193.084  0.00  0.00    +0.037 HD
ATOM     45  H   UNL     1     150.364 169.446 192.025  0.00  0.00    +0.051 HD
ATOM     46  H   UNL     1     149.226 170.003 189.921  0.00  0.00    +0.149 HD
ENDROOT
BRANCH   1  47
ATOM     47  C   UNL     1     143.585 162.808 188.143  0.00  0.00    -0.062 C 
ATOM     48  H   UNL     1     144.167 162.045 187.615  0.00  0.00    +0.023 HD
ATOM     49  H   UNL     1     142.983 163.349 187.407  0.00  0.00    +0.023 HD
ATOM     50  H   UNL     1     142.888 162.297 188.815  0.00  0.00    +0.023 HD
ENDBRANCH   1  47
BRANCH  19  51
ATOM     51  C   UNL     1     151.791 167.416 192.931  0.00  0.00    -0.058 C 
ATOM     52  H   UNL     1     152.436 168.086 192.350  0.00  0.00    +0.024 HD
ATOM     53  H   UNL     1     151.355 168.006 193.741  0.00  0.00    +0.024 HD
ATOM     54  H   UNL     1     152.434 166.651 193.380  0.00  0.00    +0.024 HD
ENDBRANCH  19  51
BRANCH  21  55
ATOM     55  C   UNL     1     148.338 169.732 192.732  0.00  0.00    -0.009 C 
ATOM     56  H   UNL     1     147.323 169.368 192.527  0.00  0.00    +0.033 HD
ATOM     57  H   UNL     1     148.529 169.514 193.792  0.00  0.00    +0.033 HD
BRANCH  55  58
ATOM     58  C   UNL     1     148.370 171.232 192.543  0.00  0.00    -0.046 A 
ATOM     59  C   UNL     1     147.323 171.888 191.881  0.00  0.00    -0.059 A 
ATOM     60  C   UNL     1     147.345 173.275 191.728  0.00  0.00    -0.062 A 
ATOM     61  C   UNL     1     148.408 174.018 192.237  0.00  0.00    -0.062 A 
ATOM     62  C   UNL     1     149.452 173.376 192.899  0.00  0.00    -0.062 A 
ATOM     63  C   UNL     1     149.434 171.989 193.053  0.00  0.00    -0.059 A 
ATOM     64  H   UNL     1     146.486 171.323 191.477  0.00  0.00    +0.062 HD
ATOM     65  H   UNL     1     146.531 173.777 191.209  0.00  0.00    +0.062 HD
ATOM     66  H   UNL     1     148.424 175.097 192.116  0.00  0.00    +0.062 HD
ATOM     67  H   UNL     1     150.283 173.954 193.296  0.00  0.00    +0.062 HD
ATOM     68  H   UNL     1     150.255 171.501 193.575  0.00  0.00    +0.062 HD
ENDBRANCH  55  58
ENDBRANCH  21  55
BRANCH  16  69
ATOM     69  O   UNL     1     150.787 164.270 189.942  0.00  0.00    -0.387 OA
ATOM     70  H   UNL     1     151.735 164.380 190.128  0.00  0.00    +0.210 HD
ENDBRANCH  16  69
BRANCH   5  71
ATOM     71  O   UNL     1     142.313 166.303 192.744  0.00  0.00    -0.388 OA
ATOM     72  H   UNL     1     143.076 166.037 193.283  0.00  0.00    +0.210 HD
ENDBRANCH   5  71
TORSDOF 6
ENDMDL
MODEL 8
REMARK VINA RESULT:      -7.0      4.741      6.811
REMARK  Name = Cytochalasin B_conf1
REMARK  6 active torsions:
REMARK  status: ('A' for Active; 'I' for Inactive)
REMARK    1  A    between atoms: C_1  and  C_2
REMARK    2  A    between atoms: C_6  and  O_35
REMARK    3  A    between atoms: C_17  and  O_34
REMARK    4  A    between atoms: C_20  and  C_33
REMARK    5  A    between atoms: C_22  and  C_26
REMARK    6  A    between atoms: C_26  and  C_27
REMARK                            x       y       z     vdW  Elec       q    Type
REMARK                         _______ _______ _______ _____ _____    ______ ____
ROOT
ATOM      1  C   UNL     1     141.390 165.977 187.748  0.00  0.00    -0.040 C 
ATOM      2  C   UNL     1     141.777 167.268 186.992  0.00  0.00    -0.050 C 
ATOM      3  C   UNL     1     140.671 168.327 186.839  0.00  0.00    -0.050 C 
ATOM      4  C   UNL     1     140.013 168.839 188.128  0.00  0.00    -0.023 C 
ATOM      5  C   UNL     1     140.773 169.939 188.890  0.00  0.00    +0.074 C 
ATOM      6  C   UNL     1     142.143 169.530 189.330  0.00  0.00    -0.049 C 
ATOM      7  C   UNL     1     142.467 169.037 190.536  0.00  0.00    +0.021 C 
ATOM      8  C   UNL     1     143.805 168.517 190.882  0.00  0.00    +0.333 C 
ATOM      9  O   UNL     1     144.034 167.956 191.943  0.00  0.00    -0.246 OA
ATOM     10  O   UNL     1     144.685 168.713 189.876  0.00  0.00    -0.444 OA
ATOM     11  C   UNL     1     145.946 167.999 189.904  0.00  0.00    +0.202 C 
ATOM     12  C   UNL     1     145.767 166.459 189.838  0.00  0.00    +0.056 C 
ATOM     13  C   UNL     1     144.804 165.998 188.745  0.00  0.00    -0.078 C 
ATOM     14  C   UNL     1     143.568 165.527 188.982  0.00  0.00    -0.087 C 
ATOM     15  C   UNL     1     142.617 165.051 187.916  0.00  0.00    -0.032 C 
ATOM     16  C   UNL     1     147.146 165.752 189.703  0.00  0.00    +0.087 C 
ATOM     17  C   UNL     1     148.270 166.487 190.414  0.00  0.00    -0.045 C 
ATOM     18  C   UNL     1     149.540 166.391 189.986  0.00  0.00    -0.097 C 
ATOM     19  C   UNL     1     147.801 167.345 191.575  0.00  0.00    -0.012 C 
ATOM     20  C   UNL     1     146.874 168.488 191.067  0.00  0.00    +0.033 C 
ATOM     21  C   UNL     1     147.593 169.721 190.475  0.00  0.00    +0.035 C 
ATOM     22  N   UNL     1     147.600 169.474 189.060  0.00  0.00    -0.308 N 
ATOM     23  C   UNL     1     146.685 168.529 188.662  0.00  0.00    +0.258 C 
ATOM     24  O   UNL     1     146.510 168.219 187.495  0.00  0.00    -0.271 OA
ATOM     25  H   UNL     1     141.020 166.233 188.748  0.00  0.00    +0.030 HD
ATOM     26  H   UNL     1     142.109 166.995 185.981  0.00  0.00    +0.027 HD
ATOM     27  H   UNL     1     142.651 167.723 187.463  0.00  0.00    +0.027 HD
ATOM     28  H   UNL     1     141.076 169.179 186.280  0.00  0.00    +0.027 HD
ATOM     29  H   UNL     1     139.883 167.908 186.201  0.00  0.00    +0.027 HD
ATOM     30  H   UNL     1     139.765 168.012 188.803  0.00  0.00    +0.029 HD
ATOM     31  H   UNL     1     139.036 169.260 187.851  0.00  0.00    +0.029 HD
ATOM     32  H   UNL     1     140.859 170.837 188.269  0.00  0.00    +0.064 HD
ATOM     33  H   UNL     1     142.910 169.624 188.563  0.00  0.00    +0.060 HD
ATOM     34  H   UNL     1     141.721 168.918 191.315  0.00  0.00    +0.069 HD
ATOM     35  H   UNL     1     145.324 166.132 190.789  0.00  0.00    +0.042 HD
ATOM     36  H   UNL     1     145.157 166.066 187.717  0.00  0.00    +0.057 HD
ATOM     37  H   UNL     1     143.209 165.456 190.008  0.00  0.00    +0.057 HD
ATOM     38  H   UNL     1     142.287 164.047 188.212  0.00  0.00    +0.031 HD
ATOM     39  H   UNL     1     143.134 164.933 186.956  0.00  0.00    +0.031 HD
ATOM     40  H   UNL     1     147.400 165.612 188.645  0.00  0.00    +0.065 HD
ATOM     41  H   UNL     1     150.360 166.921 190.458  0.00  0.00    +0.054 HD
ATOM     42  H   UNL     1     149.801 165.775 189.128  0.00  0.00    +0.054 HD
ATOM     43  H   UNL     1     147.171 166.687 192.193  0.00  0.00    +0.035 HD
ATOM     44  H   UNL     1     146.295 168.818 191.937  0.00  0.00    +0.037 HD
ATOM     45  H   UNL     1     148.636 169.798 190.792  0.00  0.00    +0.051 HD
ATOM     46  H   UNL     1     148.172 169.969 188.387  0.00  0.00    +0.149 HD
ENDROOT
BRANCH   1  47
ATOM     47  C   UNL     1     140.278 165.220 187.014  0.00  0.00    -0.062 C 
ATOM     48  H   UNL     1     139.840 164.443 187.649  0.00  0.00    +0.023 HD
ATOM     49  H   UNL     1     140.654 164.746 186.103  0.00  0.00    +0.023 HD
ATOM     50  H   UNL     1     139.476 165.903 186.714  0.00  0.00    +0.023 HD
ENDBRANCH   1  47
BRANCH  19  51
ATOM     51  C   UNL     1     148.886 167.834 192.542  0.00  0.00    -0.058 C 
ATOM     52  H   UNL     1     149.043 167.100 193.342  0.00  0.00    +0.024 HD
ATOM     53  H   UNL     1     149.853 167.998 192.058  0.00  0.00    +0.024 HD
ATOM     54  H   UNL     1     148.583 168.774 193.015  0.00  0.00    +0.024 HD
ENDBRANCH  19  51
BRANCH  21  55
ATOM     55  C   UNL     1     146.859 171.035 190.818  0.00  0.00    -0.009 C 
ATOM     56  H   UNL     1     146.729 171.661 189.926  0.00  0.00    +0.033 HD
ATOM     57  H   UNL     1     145.847 170.811 191.180  0.00  0.00    +0.033 HD
BRANCH  55  58
ATOM     58  C   UNL     1     147.577 171.836 191.881  0.00  0.00    -0.046 A 
ATOM     59  C   UNL     1     146.900 172.829 192.601  0.00  0.00    -0.059 A 
ATOM     60  C   UNL     1     147.559 173.552 193.597  0.00  0.00    -0.062 A 
ATOM     61  C   UNL     1     148.896 173.285 193.885  0.00  0.00    -0.062 A 
ATOM     62  C   UNL     1     149.577 172.297 193.177  0.00  0.00    -0.062 A 
ATOM     63  C   UNL     1     148.921 171.574 192.179  0.00  0.00    -0.059 A 
ATOM     64  H   UNL     1     145.856 173.051 192.389  0.00  0.00    +0.062 HD
ATOM     65  H   UNL     1     147.028 174.324 194.149  0.00  0.00    +0.062 HD
ATOM     66  H   UNL     1     149.408 173.849 194.660  0.00  0.00    +0.062 HD
ATOM     67  H   UNL     1     150.620 172.089 193.400  0.00  0.00    +0.062 HD
ATOM     68  H   UNL     1     149.465 170.804 191.637  0.00  0.00    +0.062 HD
ENDBRANCH  55  58
ENDBRANCH  21  55
BRANCH  16  69
ATOM     69  O   UNL     1     147.053 164.454 190.294  0.00  0.00    -0.387 OA
ATOM     70  H   UNL     1     146.108 164.276 190.440  0.00  0.00    +0.210 HD
ENDBRANCH  16  69
BRANCH   5  71
ATOM     71  O   UNL     1     140.010 170.297 190.041  0.00  0.00    -0.388 OA
ATOM     72  H   UNL     1     139.970 169.513 190.614  0.00  0.00    +0.210 HD
ENDBRANCH   5  71
TORSDOF 6
ENDMDL
MODEL 9
REMARK VINA RESULT:      -6.9     10.857     14.561
REMARK  Name = Cytochalasin B_conf1
REMARK  6 active torsions:
REMARK  status: ('A' for Active; 'I' for Inactive)
REMARK    1  A    between atoms: C_1  and  C_2
REMARK    2  A    between atoms: C_6  and  O_35
REMARK    3  A    between atoms: C_17  and  O_34
REMARK    4  A    between atoms: C_20  and  C_33
REMARK    5  A    between atoms: C_22  and  C_26
REMARK    6  A    between atoms: C_26  and  C_27
REMARK                            x       y       z     vdW  Elec       q    Type
REMARK                         _______ _______ _______ _____ _____    ______ ____
ROOT
ATOM      1  C   UNL     1     160.549 171.657 182.875  0.00  0.00    -0.040 C 
ATOM      2  C   UNL     1     159.568 170.575 182.370  0.00  0.00    -0.050 C 
ATOM      3  C   UNL     1     159.162 169.494 183.387  0.00  0.00    -0.050 C 
ATOM      4  C   UNL     1     158.533 169.976 184.702  0.00  0.00    -0.023 C 
ATOM      5  C   UNL     1     157.031 170.308 184.658  0.00  0.00    +0.074 C 
ATOM      6  C   UNL     1     156.680 171.386 183.681  0.00  0.00    -0.049 C 
ATOM      7  C   UNL     1     156.545 172.691 183.967  0.00  0.00    +0.021 C 
ATOM      8  C   UNL     1     156.334 173.739 182.949  0.00  0.00    +0.333 C 
ATOM      9  O   UNL     1     156.345 174.929 183.225  0.00  0.00    -0.246 OA
ATOM     10  O   UNL     1     156.175 173.207 181.717  0.00  0.00    -0.444 OA
ATOM     11  C   UNL     1     156.272 174.077 180.563  0.00  0.00    +0.202 C 
ATOM     12  C   UNL     1     157.672 174.731 180.418  0.00  0.00    +0.056 C 
ATOM     13  C   UNL     1     158.830 173.744 180.564  0.00  0.00    -0.078 C 
ATOM     14  C   UNL     1     159.634 173.683 181.639  0.00  0.00    -0.087 C 
ATOM     15  C   UNL     1     160.790 172.730 181.787  0.00  0.00    -0.032 C 
ATOM     16  C   UNL     1     157.774 175.519 179.082  0.00  0.00    +0.087 C 
ATOM     17  C   UNL     1     156.455 176.135 178.646  0.00  0.00    -0.045 C 
ATOM     18  C   UNL     1     156.185 176.347 177.346  0.00  0.00    -0.097 C 
ATOM     19  C   UNL     1     155.503 176.418 179.793  0.00  0.00    -0.012 C 
ATOM     20  C   UNL     1     155.080 175.091 180.489  0.00  0.00    +0.033 C 
ATOM     21  C   UNL     1     153.959 174.293 179.784  0.00  0.00    +0.035 C 
ATOM     22  N   UNL     1     154.664 173.328 178.989  0.00  0.00    -0.308 N 
ATOM     23  C   UNL     1     155.968 173.139 179.382  0.00  0.00    +0.258 C 
ATOM     24  O   UNL     1     156.713 172.327 178.858  0.00  0.00    -0.271 OA
ATOM     25  H   UNL     1     160.126 172.156 183.754  0.00  0.00    +0.030 HD
ATOM     26  H   UNL     1     160.025 170.061 181.513  0.00  0.00    +0.027 HD
ATOM     27  H   UNL     1     158.670 171.050 181.968  0.00  0.00    +0.027 HD
ATOM     28  H   UNL     1     158.475 168.793 182.898  0.00  0.00    +0.027 HD
ATOM     29  H   UNL     1     160.054 168.906 183.635  0.00  0.00    +0.027 HD
ATOM     30  H   UNL     1     159.094 170.816 185.126  0.00  0.00    +0.029 HD
ATOM     31  H   UNL     1     158.659 169.171 185.439  0.00  0.00    +0.029 HD
ATOM     32  H   UNL     1     156.454 169.410 184.409  0.00  0.00    +0.064 HD
ATOM     33  H   UNL     1     156.567 171.045 182.654  0.00  0.00    +0.060 HD
ATOM     34  H   UNL     1     156.666 173.061 184.979  0.00  0.00    +0.069 HD
ATOM     35  H   UNL     1     157.789 175.458 181.235  0.00  0.00    +0.042 HD
ATOM     36  H   UNL     1     158.995 173.053 179.739  0.00  0.00    +0.057 HD
ATOM     37  H   UNL     1     159.475 174.372 182.468  0.00  0.00    +0.057 HD
ATOM     38  H   UNL     1     161.668 173.334 182.049  0.00  0.00    +0.031 HD
ATOM     39  H   UNL     1     161.024 172.248 180.829  0.00  0.00    +0.031 HD
ATOM     40  H   UNL     1     158.166 174.871 178.287  0.00  0.00    +0.065 HD
ATOM     41  H   UNL     1     155.245 176.764 177.002  0.00  0.00    +0.054 HD
ATOM     42  H   UNL     1     156.907 176.096 176.572  0.00  0.00    +0.054 HD
ATOM     43  H   UNL     1     156.092 176.980 180.534  0.00  0.00    +0.035 HD
ATOM     44  H   UNL     1     154.723 175.372 181.486  0.00  0.00    +0.037 HD
ATOM     45  H   UNL     1     153.369 174.906 179.098  0.00  0.00    +0.051 HD
ATOM     46  H   UNL     1     154.256 172.782 178.241  0.00  0.00    +0.149 HD
ENDROOT
BRANCH   1  47
ATOM     47  C   UNL     1     161.890 171.038 183.285  0.00  0.00    -0.062 C 
ATOM     48  H   UNL     1     162.704 171.765 183.205  0.00  0.00    +0.023 HD
ATOM     49  H   UNL     1     162.137 170.176 182.659  0.00  0.00    +0.023 HD
ATOM     50  H   UNL     1     161.853 170.684 184.320  0.00  0.00    +0.023 HD
ENDBRANCH   1  47
BRANCH  19  51
ATOM     51  C   UNL     1     154.319 177.341 179.484  0.00  0.00    -0.058 C 
ATOM     52  H   UNL     1     153.603 176.835 178.825  0.00  0.00    +0.024 HD
ATOM     53  H   UNL     1     153.772 177.655 180.376  0.00  0.00    +0.024 HD
ATOM     54  H   UNL     1     154.662 178.242 178.964  0.00  0.00    +0.024 HD
ENDBRANCH  19  51
BRANCH  21  55
ATOM     55  C   UNL     1     153.014 173.612 180.797  0.00  0.00    -0.009 C 
ATOM     56  H   UNL     1     153.379 173.735 181.825  0.00  0.00    +0.033 HD
ATOM     57  H   UNL     1     152.027 174.093 180.767  0.00  0.00    +0.033 HD
BRANCH  55  58
ATOM     58  C   UNL     1     152.832 172.138 180.514  0.00  0.00    -0.046 A 
ATOM     59  C   UNL     1     151.845 171.703 179.619  0.00  0.00    -0.059 A 
ATOM     60  C   UNL     1     151.693 170.344 179.342  0.00  0.00    -0.062 A 
ATOM     61  C   UNL     1     152.528 169.409 179.952  0.00  0.00    -0.062 A 
ATOM     62  C   UNL     1     153.513 169.831 180.841  0.00  0.00    -0.062 A 
ATOM     63  C   UNL     1     153.667 171.190 181.121  0.00  0.00    -0.059 A 
ATOM     64  H   UNL     1     151.184 172.419 179.134  0.00  0.00    +0.062 HD
ATOM     65  H   UNL     1     150.923 170.013 178.649  0.00  0.00    +0.062 HD
ATOM     66  H   UNL     1     152.408 168.351 179.736  0.00  0.00    +0.062 HD
ATOM     67  H   UNL     1     154.164 169.103 181.318  0.00  0.00    +0.062 HD
ATOM     68  H   UNL     1     154.443 171.505 181.815  0.00  0.00    +0.062 HD
ENDBRANCH  55  58
ENDBRANCH  21  55
BRANCH  16  69
ATOM     69  O   UNL     1     158.703 176.591 179.253  0.00  0.00    -0.387 OA
ATOM     70  H   UNL     1     158.298 177.382 178.859  0.00  0.00    +0.210 HD
ENDBRANCH  16  69
BRANCH   5  71
ATOM     71  O   UNL     1     156.623 170.719 185.961  0.00  0.00    -0.388 OA
ATOM     72  H   UNL     1     155.726 170.371 186.104  0.00  0.00    +0.210 HD
ENDBRANCH   5  71
TORSDOF 6
ENDMDL
MODEL 10
REMARK VINA RESULT:      -6.9      8.856     12.853
REMARK  Name = Cytochalasin B_conf1
REMARK  6 active torsions:
REMARK  status: ('A' for Active; 'I' for Inactive)
REMARK    1  A    between atoms: C_1  and  C_2
REMARK    2  A    between atoms: C_6  and  O_35
REMARK    3  A    between atoms: C_17  and  O_34
REMARK    4  A    between atoms: C_20  and  C_33
REMARK    5  A    between atoms: C_22  and  C_26
REMARK    6  A    between atoms: C_26  and  C_27
REMARK                            x       y       z     vdW  Elec       q    Type
REMARK                         _______ _______ _______ _____ _____    ______ ____
ROOT
ATOM      1  C   UNL     1     157.435 173.188 183.786  0.00  0.00    -0.040 C 
ATOM      2  C   UNL     1     157.916 172.572 182.452  0.00  0.00    -0.050 C 
ATOM      3  C   UNL     1     159.163 173.210 181.817  0.00  0.00    -0.050 C 
ATOM      4  C   UNL     1     160.434 173.263 182.675  0.00  0.00    -0.023 C 
ATOM      5  C   UNL     1     161.280 171.978 182.721  0.00  0.00    +0.074 C 
ATOM      6  C   UNL     1     160.543 170.789 183.251  0.00  0.00    -0.049 C 
ATOM      7  C   UNL     1     160.557 170.359 184.523  0.00  0.00    +0.021 C 
ATOM      8  C   UNL     1     159.707 169.265 185.032  0.00  0.00    +0.333 C 
ATOM      9  O   UNL     1     159.647 168.982 186.219  0.00  0.00    -0.246 OA
ATOM     10  O   UNL     1     159.007 168.679 184.036  0.00  0.00    -0.444 OA
ATOM     11  C   UNL     1     157.900 167.810 184.379  0.00  0.00    +0.202 C 
ATOM     12  C   UNL     1     156.764 168.551 185.132  0.00  0.00    +0.056 C 
ATOM     13  C   UNL     1     156.354 169.872 184.482  0.00  0.00    -0.078 C 
ATOM     14  C   UNL     1     156.657 171.082 184.981  0.00  0.00    -0.087 C 
ATOM     15  C   UNL     1     156.242 172.390 184.360  0.00  0.00    -0.032 C 
ATOM     16  C   UNL     1     155.535 167.619 185.329  0.00  0.00    +0.087 C 
ATOM     17  C   UNL     1     155.913 166.158 185.504  0.00  0.00    -0.045 C 
ATOM     18  C   UNL     1     155.072 165.176 185.136  0.00  0.00    -0.097 C 
ATOM     19  C   UNL     1     157.307 165.949 186.067  0.00  0.00    -0.012 C 
ATOM     20  C   UNL     1     158.379 166.492 185.077  0.00  0.00    +0.033 C 
ATOM     21  C   UNL     1     158.738 165.558 183.899  0.00  0.00    +0.035 C 
ATOM     22  N   UNL     1     157.910 166.021 182.822  0.00  0.00    -0.308 N 
ATOM     23  C   UNL     1     157.417 167.290 183.013  0.00  0.00    +0.258 C 
ATOM     24  O   UNL     1     156.733 167.873 182.188  0.00  0.00    -0.271 OA
ATOM     25  H   UNL     1     158.249 173.156 184.520  0.00  0.00    +0.030 HD
ATOM     26  H   UNL     1     157.101 172.647 181.719  0.00  0.00    +0.027 HD
ATOM     27  H   UNL     1     158.082 171.501 182.580  0.00  0.00    +0.027 HD
ATOM     28  H   UNL     1     159.386 172.686 180.879  0.00  0.00    +0.027 HD
ATOM     29  H   UNL     1     158.910 174.237 181.524  0.00  0.00    +0.027 HD
ATOM     30  H   UNL     1     160.212 173.606 183.692  0.00  0.00    +0.029 HD
ATOM     31  H   UNL     1     161.076 174.053 182.261  0.00  0.00    +0.029 HD
ATOM     32  H   UNL     1     161.654 171.738 181.720  0.00  0.00    +0.064 HD
ATOM     33  H   UNL     1     159.924 170.277 182.517  0.00  0.00    +0.060 HD
ATOM     34  H   UNL     1     161.153 170.859 185.280  0.00  0.00    +0.069 HD
ATOM     35  H   UNL     1     157.140 168.812 186.133  0.00  0.00    +0.042 HD
ATOM     36  H   UNL     1     155.786 169.808 183.555  0.00  0.00    +0.057 HD
ATOM     37  H   UNL     1     157.225 171.153 185.908  0.00  0.00    +0.057 HD
ATOM     38  H   UNL     1     155.750 172.973 185.149  0.00  0.00    +0.031 HD
ATOM     39  H   UNL     1     155.486 172.229 183.581  0.00  0.00    +0.031 HD
ATOM     40  H   UNL     1     154.837 167.728 184.489  0.00  0.00    +0.065 HD
ATOM     41  H   UNL     1     155.321 164.124 185.228  0.00  0.00    +0.054 HD
ATOM     42  H   UNL     1     154.094 165.399 184.715  0.00  0.00    +0.054 HD
ATOM     43  H   UNL     1     157.363 166.587 186.963  0.00  0.00    +0.035 HD
ATOM     44  H   UNL     1     159.286 166.654 185.671  0.00  0.00    +0.037 HD
ATOM     45  H   UNL     1     158.468 164.516 184.087  0.00  0.00    +0.051 HD
ATOM     46  H   UNL     1     157.731 165.510 181.966  0.00  0.00    +0.149 HD
ENDROOT
BRANCH   1  47
ATOM     47  C   UNL     1     157.026 174.653 183.601  0.00  0.00    -0.062 C 
ATOM     48  H   UNL     1     156.363 174.985 184.407  0.00  0.00    +0.023 HD
ATOM     49  H   UNL     1     156.509 174.804 182.649  0.00  0.00    +0.023 HD
ATOM     50  H   UNL     1     157.906 175.305 183.597  0.00  0.00    +0.023 HD
ENDBRANCH   1  47
BRANCH  19  51
ATOM     51  C   UNL     1     157.626 164.544 186.591  0.00  0.00    -0.058 C 
ATOM     52  H   UNL     1     156.717 163.931 186.618  0.00  0.00    +0.024 HD
ATOM     53  H   UNL     1     158.359 164.012 185.979  0.00  0.00    +0.024 HD
ATOM     54  H   UNL     1     158.016 164.596 187.614  0.00  0.00    +0.024 HD
ENDBRANCH  19  51
BRANCH  21  55
ATOM     55  C   UNL     1     160.237 165.638 183.538  0.00  0.00    -0.009 C 
ATOM     56  H   UNL     1     160.491 164.931 182.738  0.00  0.00    +0.033 HD
ATOM     57  H   UNL     1     160.471 166.636 183.145  0.00  0.00    +0.033 HD
BRANCH  55  58
ATOM     58  C   UNL     1     161.131 165.375 184.728  0.00  0.00    -0.046 A 
ATOM     59  C   UNL     1     161.973 166.381 185.222  0.00  0.00    -0.059 A 
ATOM     60  C   UNL     1     162.781 166.142 186.334  0.00  0.00    -0.062 A 
ATOM     61  C   UNL     1     162.752 164.900 186.965  0.00  0.00    -0.062 A 
ATOM     62  C   UNL     1     161.917 163.894 186.484  0.00  0.00    -0.062 A 
ATOM     63  C   UNL     1     161.109 164.129 185.371  0.00  0.00    -0.059 A 
ATOM     64  H   UNL     1     162.008 167.356 184.741  0.00  0.00    +0.062 HD
ATOM     65  H   UNL     1     163.434 166.927 186.709  0.00  0.00    +0.062 HD
ATOM     66  H   UNL     1     163.383 164.715 187.830  0.00  0.00    +0.062 HD
ATOM     67  H   UNL     1     161.895 162.924 186.975  0.00  0.00    +0.062 HD
ATOM     68  H   UNL     1     160.460 163.335 185.009  0.00  0.00    +0.062 HD
ENDBRANCH  55  58
ENDBRANCH  21  55
BRANCH  16  69
ATOM     69  O   UNL     1     154.842 168.020 186.513  0.00  0.00    -0.387 OA
ATOM     70  H   UNL     1     153.900 168.080 186.282  0.00  0.00    +0.210 HD
ENDBRANCH  16  69
BRANCH   5  71
ATOM     71  O   UNL     1     162.418 172.218 183.547  0.00  0.00    -0.388 OA
ATOM     72  H   UNL     1     162.846 171.359 183.703  0.00  0.00    +0.210 HD
ENDBRANCH   5  71
TORSDOF 6
ENDMDL
