MODEL 1
REMARK VINA RESULT:      -8.1      0.000      0.000
REMARK  Name = Cytochalasin B_conf3
REMARK  6 active torsions:
REMARK  status: ('A' for Active; 'I' for Inactive)
REMARK    1  A    between atoms: C_1  and  C_2
REMARK    2  A    between atoms: C_6  and  O_35
REMARK    3  A    between atoms: C_17  and  O_34
REMARK    4  A    between atoms: C_20  and  C_33
REMARK    5  A    between atoms: C_22  and  C_26
REMARK    6  A    between atoms: C_26  and  C_27
REMARK                            x       y       z     vdW  Elec       q    Type
REMARK                         _______ _______ _______ _____ _____    ______ ____
ROOT
ATOM      1  C   UNL     1     152.549 161.754 188.638  0.00  0.00    -0.040 C 
ATOM      2  C   UNL     1     152.881 162.781 187.529  0.00  0.00    -0.050 C 
ATOM      3  C   UNL     1     151.718 163.722 187.232  0.00  0.00    -0.050 C 
ATOM      4  C   UNL     1     152.108 164.867 186.279  0.00  0.00    -0.023 C 
ATOM      5  C   UNL     1     150.992 165.920 186.112  0.00  0.00    +0.074 C 
ATOM      6  C   UNL     1     150.561 166.419 187.463  0.00  0.00    -0.049 C 
ATOM      7  C   UNL     1     149.404 166.086 188.064  0.00  0.00    +0.021 C 
ATOM      8  C   UNL     1     149.179 166.210 189.515  0.00  0.00    +0.333 C 
ATOM      9  O   UNL     1     148.170 165.784 190.057  0.00  0.00    -0.246 OA
ATOM     10  O   UNL     1     150.253 166.746 190.138  0.00  0.00    -0.444 OA
ATOM     11  C   UNL     1     150.374 166.571 191.569  0.00  0.00    +0.202 C 
ATOM     12  C   UNL     1     150.545 165.075 191.975  0.00  0.00    +0.056 C 
ATOM     13  C   UNL     1     151.657 164.314 191.243  0.00  0.00    -0.078 C 
ATOM     14  C   UNL     1     151.504 163.152 190.580  0.00  0.00    -0.087 C 
ATOM     15  C   UNL     1     152.667 162.330 190.074  0.00  0.00    -0.032 C 
ATOM     16  C   UNL     1     150.770 164.963 193.514  0.00  0.00    +0.087 C 
ATOM     17  C   UNL     1     149.967 165.964 194.327  0.00  0.00    -0.045 C 
ATOM     18  C   UNL     1     150.348 166.285 195.577  0.00  0.00    -0.097 C 
ATOM     19  C   UNL     1     148.775 166.551 193.602  0.00  0.00    -0.012 C 
ATOM     20  C   UNL     1     149.233 167.328 192.340  0.00  0.00    +0.033 C 
ATOM     21  C   UNL     1     149.806 168.739 192.595  0.00  0.00    +0.035 C 
ATOM     22  N   UNL     1     151.228 168.555 192.554  0.00  0.00    -0.308 N 
ATOM     23  C   UNL     1     151.620 167.389 191.947  0.00  0.00    +0.258 C 
ATOM     24  O   UNL     1     152.791 167.115 191.737  0.00  0.00    -0.271 OA
ATOM     25  H   UNL     1     151.536 161.366 188.483  0.00  0.00    +0.030 HD
ATOM     26  H   UNL     1     153.133 162.257 186.598  0.00  0.00    +0.027 HD
ATOM     27  H   UNL     1     153.770 163.356 187.815  0.00  0.00    +0.027 HD
ATOM     28  H   UNL     1     150.883 163.154 186.806  0.00  0.00    +0.027 HD
ATOM     29  H   UNL     1     151.371 164.137 188.177  0.00  0.00    +0.027 HD
ATOM     30  H   UNL     1     153.011 165.361 186.660  0.00  0.00    +0.029 HD
ATOM     31  H   UNL     1     152.357 164.439 185.300  0.00  0.00    +0.029 HD
ATOM     32  H   UNL     1     151.354 166.762 185.514  0.00  0.00    +0.064 HD
ATOM     33  H   UNL     1     151.338 166.936 188.024  0.00  0.00    +0.060 HD
ATOM     34  H   UNL     1     148.637 165.524 187.540  0.00  0.00    +0.069 HD
ATOM     35  H   UNL     1     149.612 164.548 191.733  0.00  0.00    +0.042 HD
ATOM     36  H   UNL     1     152.667 164.707 191.365  0.00  0.00    +0.057 HD
ATOM     37  H   UNL     1     150.516 162.705 190.490  0.00  0.00    +0.057 HD
ATOM     38  H   UNL     1     152.753 161.489 190.774  0.00  0.00    +0.031 HD
ATOM     39  H   UNL     1     153.605 162.893 190.165  0.00  0.00    +0.031 HD
ATOM     40  H   UNL     1     151.836 165.085 193.742  0.00  0.00    +0.065 HD
ATOM     41  H   UNL     1     151.220 165.817 196.028  0.00  0.00    +0.054 HD
ATOM     42  H   UNL     1     149.815 167.001 196.193  0.00  0.00    +0.054 HD
ATOM     43  H   UNL     1     148.192 165.688 193.245  0.00  0.00    +0.035 HD
ATOM     44  H   UNL     1     148.335 167.444 191.723  0.00  0.00    +0.037 HD
ATOM     45  H   UNL     1     149.562 169.125 193.587  0.00  0.00    +0.051 HD
ATOM     46  H   UNL     1     151.908 169.243 192.856  0.00  0.00    +0.149 HD
ENDROOT
BRANCH   1  47
ATOM     47  C   UNL     1     153.520 160.571 188.507  0.00  0.00    -0.062 C 
ATOM     48  H   UNL     1     152.982 159.617 188.551  0.00  0.00    +0.023 HD
ATOM     49  H   UNL     1     154.048 160.604 187.547  0.00  0.00    +0.023 HD
ATOM     50  H   UNL     1     154.267 160.578 189.308  0.00  0.00    +0.023 HD
ENDBRANCH   1  47
BRANCH  19  51
ATOM     51  C   UNL     1     147.778 167.343 194.459  0.00  0.00    -0.058 C 
ATOM     52  H   UNL     1     147.473 166.756 195.333  0.00  0.00    +0.024 HD
ATOM     53  H   UNL     1     146.874 167.628 193.915  0.00  0.00    +0.024 HD
ATOM     54  H   UNL     1     148.241 168.265 194.830  0.00  0.00    +0.024 HD
ENDBRANCH  19  51
BRANCH  21  55
ATOM     55  C   UNL     1     149.338 169.743 191.519  0.00  0.00    -0.009 C 
ATOM     56  H   UNL     1     148.500 169.315 190.952  0.00  0.00    +0.033 HD
ATOM     57  H   UNL     1     150.133 169.933 190.788  0.00  0.00    +0.033 HD
BRANCH  55  58
ATOM     58  C   UNL     1     148.884 171.057 192.114  0.00  0.00    -0.046 A 
ATOM     59  C   UNL     1     149.777 171.849 192.848  0.00  0.00    -0.059 A 
ATOM     60  C   UNL     1     149.353 173.051 193.415  0.00  0.00    -0.062 A 
ATOM     61  C   UNL     1     148.034 173.471 193.256  0.00  0.00    -0.062 A 
ATOM     62  C   UNL     1     147.138 172.690 192.529  0.00  0.00    -0.062 A 
ATOM     63  C   UNL     1     147.559 171.487 191.961  0.00  0.00    -0.059 A 
ATOM     64  H   UNL     1     150.809 171.533 192.984  0.00  0.00    +0.062 HD
ATOM     65  H   UNL     1     150.052 173.659 193.983  0.00  0.00    +0.062 HD
ATOM     66  H   UNL     1     147.704 174.408 193.698  0.00  0.00    +0.062 HD
ATOM     67  H   UNL     1     146.108 173.018 192.404  0.00  0.00    +0.062 HD
ATOM     68  H   UNL     1     146.846 170.890 191.397  0.00  0.00    +0.062 HD
ENDBRANCH  55  58
ENDBRANCH  21  55
BRANCH  16  69
ATOM     69  O   UNL     1     150.400 163.656 193.961  0.00  0.00    -0.387 OA
ATOM     70  H   UNL     1     150.035 163.742 194.856  0.00  0.00    +0.210 HD
ENDBRANCH  16  69
BRANCH   5  71
ATOM     71  O   UNL     1     149.888 165.344 185.427  0.00  0.00    -0.388 OA
ATOM     72  H   UNL     1     149.372 164.846 186.083  0.00  0.00    +0.210 HD
ENDBRANCH   5  71
TORSDOF 6
ENDMDL
MODEL 2
REMARK VINA RESULT:      -7.8      3.224      6.922
REMARK  Name = Cytochalasin B_conf3
REMARK  6 active torsions:
REMARK  status: ('A' for Active; 'I' for Inactive)
REMARK    1  A    between atoms: C_1  and  C_2
REMARK    2  A    between atoms: C_6  and  O_35
REMARK    3  A    between atoms: C_17  and  O_34
REMARK    4  A    between atoms: C_20  and  C_33
REMARK    5  A    between atoms: C_22  and  C_26
REMARK    6  A    between atoms: C_26  and  C_27
REMARK                            x       y       z     vdW  Elec       q    Type
REMARK                         _______ _______ _______ _____ _____    ______ ____
ROOT
ATOM      1  C   UNL     1     143.471 166.915 192.646  0.00  0.00    -0.040 C 
ATOM      2  C   UNL     1     143.393 166.488 191.161  0.00  0.00    -0.050 C 
ATOM      3  C   UNL     1     144.441 167.178 190.294  0.00  0.00    -0.050 C 
ATOM      4  C   UNL     1     144.498 166.608 188.864  0.00  0.00    -0.023 C 
ATOM      5  C   UNL     1     145.670 167.176 188.036  0.00  0.00    +0.074 C 
ATOM      6  C   UNL     1     146.960 166.982 188.783  0.00  0.00    -0.049 C 
ATOM      7  C   UNL     1     147.637 167.967 189.401  0.00  0.00    +0.021 C 
ATOM      8  C   UNL     1     148.626 167.726 190.467  0.00  0.00    +0.333 C 
ATOM      9  O   UNL     1     149.135 168.638 191.102  0.00  0.00    -0.246 OA
ATOM     10  O   UNL     1     148.797 166.404 190.693  0.00  0.00    -0.444 OA
ATOM     11  C   UNL     1     149.403 165.995 191.941  0.00  0.00    +0.202 C 
ATOM     12  C   UNL     1     148.531 166.371 193.179  0.00  0.00    +0.056 C 
ATOM     13  C   UNL     1     147.066 165.921 193.117  0.00  0.00    -0.078 C 
ATOM     14  C   UNL     1     145.995 166.719 193.286  0.00  0.00    -0.087 C 
ATOM     15  C   UNL     1     144.587 166.191 193.443  0.00  0.00    -0.032 C 
ATOM     16  C   UNL     1     149.186 165.816 194.480  0.00  0.00    +0.087 C 
ATOM     17  C   UNL     1     150.703 165.875 194.478  0.00  0.00    -0.045 C 
ATOM     18  C   UNL     1     151.416 165.079 195.295  0.00  0.00    -0.097 C 
ATOM     19  C   UNL     1     151.294 166.853 193.484  0.00  0.00    -0.012 C 
ATOM     20  C   UNL     1     150.900 166.462 192.036  0.00  0.00    +0.033 C 
ATOM     21  C   UNL     1     151.708 165.302 191.413  0.00  0.00    +0.035 C 
ATOM     22  N   UNL     1     150.857 164.157 191.567  0.00  0.00    -0.308 N 
ATOM     23  C   UNL     1     149.545 164.470 191.812  0.00  0.00    +0.258 C 
ATOM     24  O   UNL     1     148.665 163.625 191.872  0.00  0.00    -0.271 OA
ATOM     25  H   UNL     1     143.626 167.999 192.704  0.00  0.00    +0.030 HD
ATOM     26  H   UNL     1     142.405 166.736 190.752  0.00  0.00    +0.027 HD
ATOM     27  H   UNL     1     143.497 165.398 191.086  0.00  0.00    +0.027 HD
ATOM     28  H   UNL     1     144.238 168.255 190.255  0.00  0.00    +0.027 HD
ATOM     29  H   UNL     1     145.410 167.054 190.775  0.00  0.00    +0.027 HD
ATOM     30  H   UNL     1     144.593 165.516 188.915  0.00  0.00    +0.029 HD
ATOM     31  H   UNL     1     143.550 166.832 188.359  0.00  0.00    +0.029 HD
ATOM     32  H   UNL     1     145.732 166.665 187.069  0.00  0.00    +0.064 HD
ATOM     33  H   UNL     1     147.231 165.942 188.956  0.00  0.00    +0.060 HD
ATOM     34  H   UNL     1     147.351 169.008 189.285  0.00  0.00    +0.069 HD
ATOM     35  H   UNL     1     148.504 167.466 193.256  0.00  0.00    +0.042 HD
ATOM     36  H   UNL     1     146.898 164.846 193.028  0.00  0.00    +0.057 HD
ATOM     37  H   UNL     1     146.133 167.788 193.433  0.00  0.00    +0.057 HD
ATOM     38  H   UNL     1     144.361 166.286 194.513  0.00  0.00    +0.031 HD
ATOM     39  H   UNL     1     144.552 165.116 193.224  0.00  0.00    +0.031 HD
ATOM     40  H   UNL     1     148.865 164.779 194.643  0.00  0.00    +0.065 HD
ATOM     41  H   UNL     1     150.916 164.400 195.983  0.00  0.00    +0.054 HD
ATOM     42  H   UNL     1     152.500 165.076 195.323  0.00  0.00    +0.054 HD
ATOM     43  H   UNL     1     150.804 167.817 193.692  0.00  0.00    +0.035 HD
ATOM     44  H   UNL     1     151.085 167.355 191.428  0.00  0.00    +0.037 HD
ATOM     45  H   UNL     1     152.633 165.088 191.954  0.00  0.00    +0.051 HD
ATOM     46  H   UNL     1     151.150 163.197 191.426  0.00  0.00    +0.149 HD
ENDROOT
BRANCH   1  47
ATOM     47  C   UNL     1     142.120 166.608 193.309  0.00  0.00    -0.062 C 
ATOM     48  H   UNL     1     142.101 165.585 193.702  0.00  0.00    +0.023 HD
ATOM     49  H   UNL     1     141.935 167.285 194.151  0.00  0.00    +0.023 HD
ATOM     50  H   UNL     1     141.294 166.715 192.597  0.00  0.00    +0.023 HD
ENDBRANCH   1  47
BRANCH  19  51
ATOM     51  C   UNL     1     152.791 167.157 193.632  0.00  0.00    -0.058 C 
ATOM     52  H   UNL     1     153.380 166.241 193.517  0.00  0.00    +0.024 HD
ATOM     53  H   UNL     1     153.047 167.602 194.597  0.00  0.00    +0.024 HD
ATOM     54  H   UNL     1     153.118 167.856 192.853  0.00  0.00    +0.024 HD
ENDBRANCH  19  51
BRANCH  21  55
ATOM     55  C   UNL     1     152.029 165.569 189.927  0.00  0.00    -0.009 C 
ATOM     56  H   UNL     1     151.779 166.608 189.675  0.00  0.00    +0.033 HD
ATOM     57  H   UNL     1     151.409 164.941 189.273  0.00  0.00    +0.033 HD
BRANCH  55  58
ATOM     58  C   UNL     1     153.487 165.340 189.600  0.00  0.00    -0.046 A 
ATOM     59  C   UNL     1     153.956 164.050 189.318  0.00  0.00    -0.059 A 
ATOM     60  C   UNL     1     155.306 163.834 189.038  0.00  0.00    -0.062 A 
ATOM     61  C   UNL     1     156.198 164.905 189.038  0.00  0.00    -0.062 A 
ATOM     62  C   UNL     1     155.741 166.191 189.318  0.00  0.00    -0.062 A 
ATOM     63  C   UNL     1     154.392 166.409 189.599  0.00  0.00    -0.059 A 
ATOM     64  H   UNL     1     153.273 163.203 189.318  0.00  0.00    +0.062 HD
ATOM     65  H   UNL     1     155.661 162.830 188.821  0.00  0.00    +0.062 HD
ATOM     66  H   UNL     1     157.249 164.736 188.819  0.00  0.00    +0.062 HD
ATOM     67  H   UNL     1     156.438 167.027 189.317  0.00  0.00    +0.062 HD
ATOM     68  H   UNL     1     154.053 167.420 189.815  0.00  0.00    +0.062 HD
ENDBRANCH  55  58
ENDBRANCH  21  55
BRANCH  16  69
ATOM     69  O   UNL     1     148.732 166.570 195.607  0.00  0.00    -0.387 OA
ATOM     70  H   UNL     1     147.806 166.811 195.448  0.00  0.00    +0.210 HD
ENDBRANCH  16  69
BRANCH   5  71
ATOM     71  O   UNL     1     145.453 168.558 187.782  0.00  0.00    -0.388 OA
ATOM     72  H   UNL     1     144.658 168.818 188.275  0.00  0.00    +0.210 HD
ENDBRANCH   5  71
TORSDOF 6
ENDMDL
MODEL 3
REMARK VINA RESULT:      -7.2      3.110      8.357
REMARK  Name = Cytochalasin B_conf3
REMARK  6 active torsions:
REMARK  status: ('A' for Active; 'I' for Inactive)
REMARK    1  A    between atoms: C_1  and  C_2
REMARK    2  A    between atoms: C_6  and  O_35
REMARK    3  A    between atoms: C_17  and  O_34
REMARK    4  A    between atoms: C_20  and  C_33
REMARK    5  A    between atoms: C_22  and  C_26
REMARK    6  A    between atoms: C_26  and  C_27
REMARK                            x       y       z     vdW  Elec       q    Type
REMARK                         _______ _______ _______ _____ _____    ______ ____
ROOT
ATOM      1  C   UNL     1     143.831 172.867 191.305  0.00  0.00    -0.040 C 
ATOM      2  C   UNL     1     145.136 173.690 191.206  0.00  0.00    -0.050 C 
ATOM      3  C   UNL     1     146.305 173.029 191.931  0.00  0.00    -0.050 C 
ATOM      4  C   UNL     1     147.646 173.738 191.667  0.00  0.00    -0.023 C 
ATOM      5  C   UNL     1     148.856 172.977 192.250  0.00  0.00    +0.074 C 
ATOM      6  C   UNL     1     148.849 171.558 191.754  0.00  0.00    -0.049 C 
ATOM      7  C   UNL     1     148.511 170.492 192.502  0.00  0.00    +0.021 C 
ATOM      8  C   UNL     1     148.090 169.201 191.929  0.00  0.00    +0.333 C 
ATOM      9  O   UNL     1     147.667 168.288 192.622  0.00  0.00    -0.246 OA
ATOM     10  O   UNL     1     148.143 169.218 190.578  0.00  0.00    -0.444 OA
ATOM     11  C   UNL     1     147.400 168.212 189.850  0.00  0.00    +0.202 C 
ATOM     12  C   UNL     1     145.860 168.337 190.063  0.00  0.00    +0.056 C 
ATOM     13  C   UNL     1     145.269 169.730 189.813  0.00  0.00    -0.078 C 
ATOM     14  C   UNL     1     144.508 170.424 190.681  0.00  0.00    -0.087 C 
ATOM     15  C   UNL     1     143.764 171.684 190.304  0.00  0.00    -0.032 C 
ATOM     16  C   UNL     1     145.114 167.294 189.177  0.00  0.00    +0.087 C 
ATOM     17  C   UNL     1     145.835 165.964 189.054  0.00  0.00    -0.045 C 
ATOM     18  C   UNL     1     145.567 165.137 188.027  0.00  0.00    -0.097 C 
ATOM     19  C   UNL     1     146.858 165.699 190.139  0.00  0.00    -0.012 C 
ATOM     20  C   UNL     1     147.977 166.773 190.105  0.00  0.00    +0.033 C 
ATOM     21  C   UNL     1     149.051 166.586 189.011  0.00  0.00    +0.035 C 
ATOM     22  N   UNL     1     148.654 167.488 187.969  0.00  0.00    -0.308 N 
ATOM     23  C   UNL     1     147.774 168.456 188.379  0.00  0.00    +0.258 C 
ATOM     24  O   UNL     1     147.406 169.366 187.651  0.00  0.00    -0.271 OA
ATOM     25  H   UNL     1     143.717 172.486 192.327  0.00  0.00    +0.030 HD
ATOM     26  H   UNL     1     144.987 174.683 191.650  0.00  0.00    +0.027 HD
ATOM     27  H   UNL     1     145.389 173.854 190.152  0.00  0.00    +0.027 HD
ATOM     28  H   UNL     1     146.105 173.005 193.009  0.00  0.00    +0.027 HD
ATOM     29  H   UNL     1     146.366 171.995 191.595  0.00  0.00    +0.027 HD
ATOM     30  H   UNL     1     147.786 173.854 190.585  0.00  0.00    +0.029 HD
ATOM     31  H   UNL     1     147.603 174.745 192.101  0.00  0.00    +0.029 HD
ATOM     32  H   UNL     1     149.789 173.462 191.947  0.00  0.00    +0.064 HD
ATOM     33  H   UNL     1     148.960 171.455 190.675  0.00  0.00    +0.060 HD
ATOM     34  H   UNL     1     148.343 170.582 193.570  0.00  0.00    +0.069 HD
ATOM     35  H   UNL     1     145.642 168.103 191.114  0.00  0.00    +0.042 HD
ATOM     36  H   UNL     1     145.401 170.134 188.809  0.00  0.00    +0.057 HD
ATOM     37  H   UNL     1     144.312 170.021 191.672  0.00  0.00    +0.057 HD
ATOM     38  H   UNL     1     142.714 171.380 190.202  0.00  0.00    +0.031 HD
ATOM     39  H   UNL     1     144.073 172.031 189.309  0.00  0.00    +0.031 HD
ATOM     40  H   UNL     1     144.949 167.710 188.175  0.00  0.00    +0.065 HD
ATOM     41  H   UNL     1     144.816 165.400 187.285  0.00  0.00    +0.054 HD
ATOM     42  H   UNL     1     146.063 164.183 187.889  0.00  0.00    +0.054 HD
ATOM     43  H   UNL     1     146.321 165.836 191.090  0.00  0.00    +0.035 HD
ATOM     44  H   UNL     1     148.480 166.705 191.076  0.00  0.00    +0.037 HD
ATOM     45  H   UNL     1     149.051 165.582 188.582  0.00  0.00    +0.051 HD
ATOM     46  H   UNL     1     149.038 167.492 187.031  0.00  0.00    +0.149 HD
ENDROOT
BRANCH   1  47
ATOM     47  C   UNL     1     142.646 173.805 191.030  0.00  0.00    -0.062 C 
ATOM     48  H   UNL     1     141.737 173.234 190.807  0.00  0.00    +0.023 HD
ATOM     49  H   UNL     1     142.431 174.431 191.905  0.00  0.00    +0.023 HD
ATOM     50  H   UNL     1     142.851 174.466 190.180  0.00  0.00    +0.023 HD
ENDBRANCH   1  47
BRANCH  19  51
ATOM     51  C   UNL     1     147.408 164.269 190.225  0.00  0.00    -0.058 C 
ATOM     52  H   UNL     1     148.420 164.223 189.808  0.00  0.00    +0.024 HD
ATOM     53  H   UNL     1     146.793 163.538 189.694  0.00  0.00    +0.024 HD
ATOM     54  H   UNL     1     147.470 163.946 191.271  0.00  0.00    +0.024 HD
ENDBRANCH  19  51
BRANCH  21  55
ATOM     55  C   UNL     1     150.462 166.922 189.540  0.00  0.00    -0.009 C 
ATOM     56  H   UNL     1     150.609 168.010 189.539  0.00  0.00    +0.033 HD
ATOM     57  H   UNL     1     151.237 166.511 188.880  0.00  0.00    +0.033 HD
BRANCH  55  58
ATOM     58  C   UNL     1     150.688 166.416 190.947  0.00  0.00    -0.046 A 
ATOM     59  C   UNL     1     150.957 167.314 191.989  0.00  0.00    -0.059 A 
ATOM     60  C   UNL     1     151.188 166.846 193.283  0.00  0.00    -0.062 A 
ATOM     61  C   UNL     1     151.153 165.479 193.547  0.00  0.00    -0.062 A 
ATOM     62  C   UNL     1     150.888 164.578 192.518  0.00  0.00    -0.062 A 
ATOM     63  C   UNL     1     150.657 165.043 191.222  0.00  0.00    -0.059 A 
ATOM     64  H   UNL     1     150.991 168.385 191.798  0.00  0.00    +0.062 HD
ATOM     65  H   UNL     1     151.395 167.550 194.085  0.00  0.00    +0.062 HD
ATOM     66  H   UNL     1     151.332 165.115 194.555  0.00  0.00    +0.062 HD
ATOM     67  H   UNL     1     150.860 163.510 192.724  0.00  0.00    +0.062 HD
ATOM     68  H   UNL     1     150.452 164.325 190.431  0.00  0.00    +0.062 HD
ENDBRANCH  55  58
ENDBRANCH  21  55
BRANCH  16  69
ATOM     69  O   UNL     1     143.822 167.028 189.730  0.00  0.00    -0.387 OA
ATOM     70  H   UNL     1     143.952 166.622 190.602  0.00  0.00    +0.210 HD
ENDBRANCH  16  69
BRANCH   5  71
ATOM     71  O   UNL     1     148.797 173.000 193.670  0.00  0.00    -0.388 OA
ATOM     72  H   UNL     1     148.857 173.930 193.944  0.00  0.00    +0.210 HD
ENDBRANCH   5  71
TORSDOF 6
ENDMDL
MODEL 4
REMARK VINA RESULT:      -7.1      2.950      5.472
REMARK  Name = Cytochalasin B_conf3
REMARK  6 active torsions:
REMARK  status: ('A' for Active; 'I' for Inactive)
REMARK    1  A    between atoms: C_1  and  C_2
REMARK    2  A    between atoms: C_6  and  O_35
REMARK    3  A    between atoms: C_17  and  O_34
REMARK    4  A    between atoms: C_20  and  C_33
REMARK    5  A    between atoms: C_22  and  C_26
REMARK    6  A    between atoms: C_26  and  C_27
REMARK                            x       y       z     vdW  Elec       q    Type
REMARK                         _______ _______ _______ _____ _____    ______ ____
ROOT
ATOM      1  C   UNL     1     153.316 165.071 183.903  0.00  0.00    -0.040 C 
ATOM      2  C   UNL     1     154.424 164.357 184.713  0.00  0.00    -0.050 C 
ATOM      3  C   UNL     1     154.840 165.138 185.956  0.00  0.00    -0.050 C 
ATOM      4  C   UNL     1     155.791 164.341 186.868  0.00  0.00    -0.023 C 
ATOM      5  C   UNL     1     156.076 165.051 188.209  0.00  0.00    +0.074 C 
ATOM      6  C   UNL     1     154.779 165.389 188.889  0.00  0.00    -0.049 C 
ATOM      7  C   UNL     1     154.263 166.629 188.969  0.00  0.00    +0.021 C 
ATOM      8  C   UNL     1     152.838 166.898 189.233  0.00  0.00    +0.333 C 
ATOM      9  O   UNL     1     152.366 168.024 189.176  0.00  0.00    -0.246 OA
ATOM     10  O   UNL     1     152.147 165.754 189.436  0.00  0.00    -0.444 OA
ATOM     11  C   UNL     1     150.707 165.790 189.307  0.00  0.00    +0.202 C 
ATOM     12  C   UNL     1     150.246 166.131 187.857  0.00  0.00    +0.056 C 
ATOM     13  C   UNL     1     150.865 165.273 186.746  0.00  0.00    -0.078 C 
ATOM     14  C   UNL     1     151.505 165.743 185.659  0.00  0.00    -0.087 C 
ATOM     15  C   UNL     1     151.893 164.872 184.487  0.00  0.00    -0.032 C 
ATOM     16  C   UNL     1     148.691 166.055 187.760  0.00  0.00    +0.087 C 
ATOM     17  C   UNL     1     147.974 166.550 189.004  0.00  0.00    -0.045 C 
ATOM     18  C   UNL     1     146.708 166.170 189.255  0.00  0.00    -0.097 C 
ATOM     19  C   UNL     1     148.807 167.443 189.899  0.00  0.00    -0.012 C 
ATOM     20  C   UNL     1     150.051 166.679 190.424  0.00  0.00    +0.033 C 
ATOM     21  C   UNL     1     149.792 165.704 191.594  0.00  0.00    +0.035 C 
ATOM     22  N   UNL     1     149.715 164.416 190.969  0.00  0.00    -0.308 N 
ATOM     23  C   UNL     1     150.255 164.376 189.709  0.00  0.00    +0.258 C 
ATOM     24  O   UNL     1     150.364 163.342 189.069  0.00  0.00    -0.271 OA
ATOM     25  H   UNL     1     153.540 166.143 183.847  0.00  0.00    +0.030 HD
ATOM     26  H   UNL     1     155.317 164.224 184.088  0.00  0.00    +0.027 HD
ATOM     27  H   UNL     1     154.085 163.352 184.993  0.00  0.00    +0.027 HD
ATOM     28  H   UNL     1     155.315 166.080 185.658  0.00  0.00    +0.027 HD
ATOM     29  H   UNL     1     153.937 165.396 186.508  0.00  0.00    +0.027 HD
ATOM     30  H   UNL     1     155.354 163.355 187.072  0.00  0.00    +0.029 HD
ATOM     31  H   UNL     1     156.735 164.177 186.333  0.00  0.00    +0.029 HD
ATOM     32  H   UNL     1     156.668 164.401 188.861  0.00  0.00    +0.064 HD
ATOM     33  H   UNL     1     154.174 164.527 189.163  0.00  0.00    +0.060 HD
ATOM     34  H   UNL     1     154.829 167.498 188.650  0.00  0.00    +0.069 HD
ATOM     35  H   UNL     1     150.546 167.165 187.639  0.00  0.00    +0.042 HD
ATOM     36  H   UNL     1     150.675 164.200 186.807  0.00  0.00    +0.057 HD
ATOM     37  H   UNL     1     151.660 166.814 185.543  0.00  0.00    +0.057 HD
ATOM     38  H   UNL     1     151.164 165.105 183.700  0.00  0.00    +0.031 HD
ATOM     39  H   UNL     1     151.744 163.811 184.730  0.00  0.00    +0.031 HD
ATOM     40  H   UNL     1     148.383 165.023 187.552  0.00  0.00    +0.065 HD
ATOM     41  H   UNL     1     146.175 165.524 188.560  0.00  0.00    +0.054 HD
ATOM     42  H   UNL     1     146.157 166.487 190.133  0.00  0.00    +0.054 HD
ATOM     43  H   UNL     1     149.185 168.245 189.246  0.00  0.00    +0.035 HD
ATOM     44  H   UNL     1     150.741 167.450 190.785  0.00  0.00    +0.037 HD
ATOM     45  H   UNL     1     148.835 165.878 192.089  0.00  0.00    +0.051 HD
ATOM     46  H   UNL     1     149.379 163.573 191.423  0.00  0.00    +0.149 HD
ENDROOT
BRANCH   1  47
ATOM     47  C   UNL     1     153.336 164.521 182.469  0.00  0.00    -0.062 C 
ATOM     48  H   UNL     1     152.717 165.136 181.806  0.00  0.00    +0.023 HD
ATOM     49  H   UNL     1     154.354 164.526 182.063  0.00  0.00    +0.023 HD
ATOM     50  H   UNL     1     152.959 163.493 182.432  0.00  0.00    +0.023 HD
ENDBRANCH   1  47
BRANCH  19  51
ATOM     51  C   UNL     1     148.056 168.190 191.008  0.00  0.00    -0.058 C 
ATOM     52  H   UNL     1     147.831 169.216 190.695  0.00  0.00    +0.024 HD
ATOM     53  H   UNL     1     148.614 168.242 191.947  0.00  0.00    +0.024 HD
ATOM     54  H   UNL     1     147.100 167.697 191.223  0.00  0.00    +0.024 HD
ENDBRANCH  19  51
BRANCH  21  55
ATOM     55  C   UNL     1     150.930 165.757 192.637  0.00  0.00    -0.009 C 
ATOM     56  H   UNL     1     151.597 166.601 192.415  0.00  0.00    +0.033 HD
ATOM     57  H   UNL     1     151.554 164.855 192.582  0.00  0.00    +0.033 HD
BRANCH  55  58
ATOM     58  C   UNL     1     150.414 165.919 194.048  0.00  0.00    -0.046 A 
ATOM     59  C   UNL     1     149.053 166.160 194.282  0.00  0.00    -0.059 A 
ATOM     60  C   UNL     1     148.579 166.332 195.583  0.00  0.00    -0.062 A 
ATOM     61  C   UNL     1     149.460 166.266 196.661  0.00  0.00    -0.062 A 
ATOM     62  C   UNL     1     150.815 166.029 196.439  0.00  0.00    -0.062 A 
ATOM     63  C   UNL     1     151.292 165.857 195.139  0.00  0.00    -0.059 A 
ATOM     64  H   UNL     1     148.353 166.217 193.451  0.00  0.00    +0.062 HD
ATOM     65  H   UNL     1     147.523 166.518 195.755  0.00  0.00    +0.062 HD
ATOM     66  H   UNL     1     149.090 166.400 197.674  0.00  0.00    +0.062 HD
ATOM     67  H   UNL     1     151.502 165.977 197.280  0.00  0.00    +0.062 HD
ATOM     68  H   UNL     1     152.353 165.673 194.984  0.00  0.00    +0.062 HD
ENDBRANCH  55  58
ENDBRANCH  21  55
BRANCH  16  69
ATOM     69  O   UNL     1     148.238 166.851 186.662  0.00  0.00    -0.387 OA
ATOM     70  H   UNL     1     149.018 167.128 186.156  0.00  0.00    +0.210 HD
ENDBRANCH  16  69
BRANCH   5  71
ATOM     71  O   UNL     1     156.830 166.233 187.975  0.00  0.00    -0.388 OA
ATOM     72  H   UNL     1     157.758 166.025 188.174  0.00  0.00    +0.210 HD
ENDBRANCH   5  71
TORSDOF 6
ENDMDL
MODEL 5
REMARK VINA RESULT:      -7.1     10.713     13.319
REMARK  Name = Cytochalasin B_conf3
REMARK  6 active torsions:
REMARK  status: ('A' for Active; 'I' for Inactive)
REMARK    1  A    between atoms: C_1  and  C_2
REMARK    2  A    between atoms: C_6  and  O_35
REMARK    3  A    between atoms: C_17  and  O_34
REMARK    4  A    between atoms: C_20  and  C_33
REMARK    5  A    between atoms: C_22  and  C_26
REMARK    6  A    between atoms: C_26  and  C_27
REMARK                            x       y       z     vdW  Elec       q    Type
REMARK                         _______ _______ _______ _____ _____    ______ ____
ROOT
ATOM      1  C   UNL     1     164.099 168.075 182.093  0.00  0.00    -0.040 C 
ATOM      2  C   UNL     1     164.590 169.348 182.823  0.00  0.00    -0.050 C 
ATOM      3  C   UNL     1     163.848 170.604 182.379  0.00  0.00    -0.050 C 
ATOM      4  C   UNL     1     164.190 171.833 183.242  0.00  0.00    -0.023 C 
ATOM      5  C   UNL     1     163.316 173.062 182.914  0.00  0.00    +0.074 C 
ATOM      6  C   UNL     1     161.863 172.688 182.999  0.00  0.00    -0.049 C 
ATOM      7  C   UNL     1     161.058 172.515 181.935  0.00  0.00    +0.021 C 
ATOM      8  C   UNL     1     159.800 171.748 181.985  0.00  0.00    +0.333 C 
ATOM      9  O   UNL     1     159.150 171.496 180.982  0.00  0.00    -0.246 OA
ATOM     10  O   UNL     1     159.544 171.299 183.235  0.00  0.00    -0.444 OA
ATOM     11  C   UNL     1     158.599 170.216 183.395  0.00  0.00    +0.202 C 
ATOM     12  C   UNL     1     159.088 168.894 182.727  0.00  0.00    +0.056 C 
ATOM     13  C   UNL     1     160.500 168.439 183.117  0.00  0.00    -0.078 C 
ATOM     14  C   UNL     1     161.494 168.150 182.257  0.00  0.00    -0.087 C 
ATOM     15  C   UNL     1     162.787 167.490 182.678  0.00  0.00    -0.032 C 
ATOM     16  C   UNL     1     158.077 167.744 183.020  0.00  0.00    +0.087 C 
ATOM     17  C   UNL     1     156.625 168.189 183.027  0.00  0.00    -0.045 C 
ATOM     18  C   UNL     1     155.692 167.456 183.661  0.00  0.00    -0.097 C 
ATOM     19  C   UNL     1     156.364 169.496 182.309  0.00  0.00    -0.012 C 
ATOM     20  C   UNL     1     157.147 170.654 182.983  0.00  0.00    +0.033 C 
ATOM     21  C   UNL     1     156.527 171.214 184.282  0.00  0.00    +0.035 C 
ATOM     22  N   UNL     1     157.275 170.581 185.330  0.00  0.00    -0.308 N 
ATOM     23  C   UNL     1     158.469 170.048 184.917  0.00  0.00    +0.258 C 
ATOM     24  O   UNL     1     159.277 169.559 185.691  0.00  0.00    -0.271 OA
ATOM     25  H   UNL     1     163.956 168.299 181.029  0.00  0.00    +0.030 HD
ATOM     26  H   UNL     1     165.658 169.503 182.625  0.00  0.00    +0.027 HD
ATOM     27  H   UNL     1     164.489 169.212 183.907  0.00  0.00    +0.027 HD
ATOM     28  H   UNL     1     164.076 170.815 181.327  0.00  0.00    +0.027 HD
ATOM     29  H   UNL     1     162.780 170.402 182.439  0.00  0.00    +0.027 HD
ATOM     30  H   UNL     1     164.062 171.577 184.301  0.00  0.00    +0.029 HD
ATOM     31  H   UNL     1     165.247 172.085 183.091  0.00  0.00    +0.029 HD
ATOM     32  H   UNL     1     163.523 173.872 183.621  0.00  0.00    +0.064 HD
ATOM     33  H   UNL     1     161.532 172.378 183.989  0.00  0.00    +0.060 HD
ATOM     34  H   UNL     1     161.386 172.767 180.931  0.00  0.00    +0.069 HD
ATOM     35  H   UNL     1     159.114 169.051 181.640  0.00  0.00    +0.042 HD
ATOM     36  H   UNL     1     160.665 168.242 184.177  0.00  0.00    +0.057 HD
ATOM     37  H   UNL     1     161.342 168.283 181.187  0.00  0.00    +0.057 HD
ATOM     38  H   UNL     1     162.700 166.447 182.348  0.00  0.00    +0.031 HD
ATOM     39  H   UNL     1     162.861 167.453 183.773  0.00  0.00    +0.031 HD
ATOM     40  H   UNL     1     158.316 167.277 183.983  0.00  0.00    +0.065 HD
ATOM     41  H   UNL     1     155.961 166.524 184.155  0.00  0.00    +0.054 HD
ATOM     42  H   UNL     1     154.646 167.736 183.704  0.00  0.00    +0.054 HD
ATOM     43  H   UNL     1     156.793 169.372 181.303  0.00  0.00    +0.035 HD
ATOM     44  H   UNL     1     157.162 171.467 182.248  0.00  0.00    +0.037 HD
ATOM     45  H   UNL     1     155.483 170.924 184.415  0.00  0.00    +0.051 HD
ATOM     46  H   UNL     1     157.015 170.588 186.310  0.00  0.00    +0.149 HD
ENDROOT
BRANCH   1  47
ATOM     47  C   UNL     1     165.197 167.006 182.195  0.00  0.00    -0.062 C 
ATOM     48  H   UNL     1     165.296 166.643 183.224  0.00  0.00    +0.023 HD
ATOM     49  H   UNL     1     164.960 166.141 181.565  0.00  0.00    +0.023 HD
ATOM     50  H   UNL     1     166.168 167.402 181.878  0.00  0.00    +0.023 HD
ENDBRANCH   1  47
BRANCH  19  51
ATOM     51  C   UNL     1     154.894 169.848 182.045  0.00  0.00    -0.058 C 
ATOM     52  H   UNL     1     154.659 169.736 180.981  0.00  0.00    +0.024 HD
ATOM     53  H   UNL     1     154.635 170.869 182.340  0.00  0.00    +0.024 HD
ATOM     54  H   UNL     1     154.233 169.171 182.599  0.00  0.00    +0.024 HD
ENDBRANCH  19  51
BRANCH  21  55
ATOM     55  C   UNL     1     156.651 172.751 184.352  0.00  0.00    -0.009 C 
ATOM     56  H   UNL     1     157.710 173.039 184.333  0.00  0.00    +0.033 HD
ATOM     57  H   UNL     1     156.249 173.134 185.298  0.00  0.00    +0.033 HD
BRANCH  55  58
ATOM     58  C   UNL     1     155.953 173.439 183.200  0.00  0.00    -0.046 A 
ATOM     59  C   UNL     1     154.588 173.226 182.969  0.00  0.00    -0.059 A 
ATOM     60  C   UNL     1     153.948 173.843 181.894  0.00  0.00    -0.062 A 
ATOM     61  C   UNL     1     154.667 174.677 181.040  0.00  0.00    -0.062 A 
ATOM     62  C   UNL     1     156.025 174.895 181.261  0.00  0.00    -0.062 A 
ATOM     63  C   UNL     1     156.667 174.279 182.335  0.00  0.00    -0.059 A 
ATOM     64  H   UNL     1     154.014 172.574 183.625  0.00  0.00    +0.062 HD
ATOM     65  H   UNL     1     152.889 173.672 181.722  0.00  0.00    +0.062 HD
ATOM     66  H   UNL     1     154.168 175.158 180.203  0.00  0.00    +0.062 HD
ATOM     67  H   UNL     1     156.586 175.548 180.595  0.00  0.00    +0.062 HD
ATOM     68  H   UNL     1     157.728 174.460 182.492  0.00  0.00    +0.062 HD
ENDBRANCH  55  58
ENDBRANCH  21  55
BRANCH  16  69
ATOM     69  O   UNL     1     158.205 166.725 182.024  0.00  0.00    -0.387 OA
ATOM     70  H   UNL     1     157.811 165.913 182.380  0.00  0.00    +0.210 HD
ENDBRANCH  16  69
BRANCH   5  71
ATOM     71  O   UNL     1     163.625 173.536 181.610  0.00  0.00    -0.388 OA
ATOM     72  H   UNL     1     163.828 172.759 181.063  0.00  0.00    +0.210 HD
ENDBRANCH   5  71
TORSDOF 6
ENDMDL
MODEL 6
REMARK VINA RESULT:      -7.1      1.577      1.907
REMARK  Name = Cytochalasin B_conf3
REMARK  6 active torsions:
REMARK  status: ('A' for Active; 'I' for Inactive)
REMARK    1  A    between atoms: C_1  and  C_2
REMARK    2  A    between atoms: C_6  and  O_35
REMARK    3  A    between atoms: C_17  and  O_34
REMARK    4  A    between atoms: C_20  and  C_33
REMARK    5  A    between atoms: C_22  and  C_26
REMARK    6  A    between atoms: C_26  and  C_27
REMARK                            x       y       z     vdW  Elec       q    Type
REMARK                         _______ _______ _______ _____ _____    ______ ____
ROOT
ATOM      1  C   UNL     1     149.970 161.659 187.708  0.00  0.00    -0.040 C 
ATOM      2  C   UNL     1     150.014 162.673 186.541  0.00  0.00    -0.050 C 
ATOM      3  C   UNL     1     148.912 163.724 186.632  0.00  0.00    -0.050 C 
ATOM      4  C   UNL     1     149.073 164.847 185.591  0.00  0.00    -0.023 C 
ATOM      5  C   UNL     1     148.069 166.002 185.789  0.00  0.00    +0.074 C 
ATOM      6  C   UNL     1     148.155 166.511 187.200  0.00  0.00    -0.049 C 
ATOM      7  C   UNL     1     147.233 166.274 188.152  0.00  0.00    +0.021 C 
ATOM      8  C   UNL     1     147.511 166.388 189.595  0.00  0.00    +0.333 C 
ATOM      9  O   UNL     1     146.700 166.047 190.444  0.00  0.00    -0.246 OA
ATOM     10  O   UNL     1     148.775 166.810 189.824  0.00  0.00    -0.444 OA
ATOM     11  C   UNL     1     149.342 166.596 191.137  0.00  0.00    +0.202 C 
ATOM     12  C   UNL     1     149.495 165.082 191.481  0.00  0.00    +0.056 C 
ATOM     13  C   UNL     1     150.228 164.236 190.433  0.00  0.00    -0.078 C 
ATOM     14  C   UNL     1     149.757 163.108 189.870  0.00  0.00    -0.087 C 
ATOM     15  C   UNL     1     150.606 162.192 189.018  0.00  0.00    -0.032 C 
ATOM     16  C   UNL     1     150.201 164.918 192.862  0.00  0.00    +0.087 C 
ATOM     17  C   UNL     1     149.809 165.972 193.882  0.00  0.00    -0.045 C 
ATOM     18  C   UNL     1     150.607 166.232 194.933  0.00  0.00    -0.097 C 
ATOM     19  C   UNL     1     148.505 166.682 193.584  0.00  0.00    -0.012 C 
ATOM     20  C   UNL     1     148.594 167.439 192.232  0.00  0.00    +0.033 C 
ATOM     21  C   UNL     1     149.350 168.786 192.268  0.00  0.00    +0.035 C 
ATOM     22  N   UNL     1     150.655 168.471 191.764  0.00  0.00    -0.308 N 
ATOM     23  C   UNL     1     150.714 167.287 191.075  0.00  0.00    +0.258 C 
ATOM     24  O   UNL     1     151.719 166.910 190.494  0.00  0.00    -0.271 OA
ATOM     25  H   UNL     1     148.929 161.370 187.899  0.00  0.00    +0.030 HD
ATOM     26  H   UNL     1     149.895 162.147 185.584  0.00  0.00    +0.027 HD
ATOM     27  H   UNL     1     150.998 163.157 186.511  0.00  0.00    +0.027 HD
ATOM     28  H   UNL     1     147.933 163.244 186.510  0.00  0.00    +0.027 HD
ATOM     29  H   UNL     1     148.936 164.149 187.634  0.00  0.00    +0.027 HD
ATOM     30  H   UNL     1     150.094 165.247 185.648  0.00  0.00    +0.029 HD
ATOM     31  H   UNL     1     148.946 164.418 184.589  0.00  0.00    +0.029 HD
ATOM     32  H   UNL     1     148.292 166.819 185.095  0.00  0.00    +0.064 HD
ATOM     33  H   UNL     1     149.118 166.943 187.468  0.00  0.00    +0.060 HD
ATOM     34  H   UNL     1     146.288 165.796 187.916  0.00  0.00    +0.069 HD
ATOM     35  H   UNL     1     148.489 164.649 191.565  0.00  0.00    +0.042 HD
ATOM     36  H   UNL     1     151.255 164.532 190.211  0.00  0.00    +0.057 HD
ATOM     37  H   UNL     1     148.757 162.756 190.115  0.00  0.00    +0.057 HD
ATOM     38  H   UNL     1     150.838 161.332 189.661  0.00  0.00    +0.031 HD
ATOM     39  H   UNL     1     151.570 162.663 188.790  0.00  0.00    +0.031 HD
ATOM     40  H   UNL     1     151.290 164.937 192.725  0.00  0.00    +0.065 HD
ATOM     41  H   UNL     1     151.531 165.675 195.078  0.00  0.00    +0.054 HD
ATOM     42  H   UNL     1     150.376 166.980 195.682  0.00  0.00    +0.054 HD
ATOM     43  H   UNL     1     147.759 165.885 193.447  0.00  0.00    +0.035 HD
ATOM     44  H   UNL     1     147.558 167.650 191.944  0.00  0.00    +0.037 HD
ATOM     45  H   UNL     1     149.482 169.172 193.281  0.00  0.00    +0.051 HD
ATOM     46  H   UNL     1     151.459 169.087 191.818  0.00  0.00    +0.149 HD
ENDROOT
BRANCH   1  47
ATOM     47  C   UNL     1     150.727 160.394 187.278  0.00  0.00    -0.062 C 
ATOM     48  H   UNL     1     151.069 159.826 188.151  0.00  0.00    +0.023 HD
ATOM     49  H   UNL     1     150.080 159.732 186.691  0.00  0.00    +0.023 HD
ATOM     50  H   UNL     1     151.603 160.642 186.669  0.00  0.00    +0.023 HD
ENDBRANCH   1  47
BRANCH  19  51
ATOM     51  C   UNL     1     147.924 167.545 194.712  0.00  0.00    -0.058 C 
ATOM     52  H   UNL     1     148.066 168.609 194.491  0.00  0.00    +0.024 HD
ATOM     53  H   UNL     1     148.376 167.342 195.686  0.00  0.00    +0.024 HD
ATOM     54  H   UNL     1     146.845 167.373 194.809  0.00  0.00    +0.024 HD
ENDBRANCH  19  51
BRANCH  21  55
ATOM     55  C   UNL     1     148.650 169.850 191.396  0.00  0.00    -0.009 C 
ATOM     56  H   UNL     1     147.662 169.486 191.087  0.00  0.00    +0.033 HD
ATOM     57  H   UNL     1     149.211 170.027 190.469  0.00  0.00    +0.033 HD
BRANCH  55  58
ATOM     58  C   UNL     1     148.465 171.163 192.123  0.00  0.00    -0.046 A 
ATOM     59  C   UNL     1     147.238 171.838 192.066  0.00  0.00    -0.059 A 
ATOM     60  C   UNL     1     147.073 173.060 192.718  0.00  0.00    -0.062 A 
ATOM     61  C   UNL     1     148.132 173.619 193.431  0.00  0.00    -0.062 A 
ATOM     62  C   UNL     1     149.356 172.956 193.492  0.00  0.00    -0.062 A 
ATOM     63  C   UNL     1     149.524 171.734 192.841  0.00  0.00    -0.059 A 
ATOM     64  H   UNL     1     146.403 171.416 191.510  0.00  0.00    +0.062 HD
ATOM     65  H   UNL     1     146.118 173.576 192.669  0.00  0.00    +0.062 HD
ATOM     66  H   UNL     1     148.003 174.571 193.939  0.00  0.00    +0.062 HD
ATOM     67  H   UNL     1     150.182 173.392 194.050  0.00  0.00    +0.062 HD
ATOM     68  H   UNL     1     150.487 171.231 192.899  0.00  0.00    +0.062 HD
ENDBRANCH  55  58
ENDBRANCH  21  55
BRANCH  16  69
ATOM     69  O   UNL     1     149.877 163.643 193.420  0.00  0.00    -0.387 OA
ATOM     70  H   UNL     1     150.599 163.389 194.018  0.00  0.00    +0.210 HD
ENDBRANCH  16  69
BRANCH   5  71
ATOM     71  O   UNL     1     146.752 165.545 185.511  0.00  0.00    -0.388 OA
ATOM     72  H   UNL     1     146.821 164.610 185.258  0.00  0.00    +0.210 HD
ENDBRANCH   5  71
TORSDOF 6
ENDMDL
MODEL 7
REMARK VINA RESULT:      -7.0     18.714     21.494
REMARK  Name = Cytochalasin B_conf3
REMARK  6 active torsions:
REMARK  status: ('A' for Active; 'I' for Inactive)
REMARK    1  A    between atoms: C_1  and  C_2
REMARK    2  A    between atoms: C_6  and  O_35
REMARK    3  A    between atoms: C_17  and  O_34
REMARK    4  A    between atoms: C_20  and  C_33
REMARK    5  A    between atoms: C_22  and  C_26
REMARK    6  A    between atoms: C_26  and  C_27
REMARK                            x       y       z     vdW  Elec       q    Type
REMARK                         _______ _______ _______ _____ _____    ______ ____
ROOT
ATOM      1  C   UNL     1     135.368 158.925 200.131  0.00  0.00    -0.040 C 
ATOM      2  C   UNL     1     134.525 158.602 198.875  0.00  0.00    -0.050 C 
ATOM      3  C   UNL     1     133.035 158.851 199.087  0.00  0.00    -0.050 C 
ATOM      4  C   UNL     1     132.220 158.725 197.786  0.00  0.00    -0.023 C 
ATOM      5  C   UNL     1     130.745 159.146 197.955  0.00  0.00    +0.074 C 
ATOM      6  C   UNL     1     130.677 160.527 198.544  0.00  0.00    -0.049 C 
ATOM      7  C   UNL     1     130.330 160.796 199.816  0.00  0.00    +0.021 C 
ATOM      8  C   UNL     1     130.673 162.054 200.502  0.00  0.00    +0.333 C 
ATOM      9  O   UNL     1     130.461 162.227 201.693  0.00  0.00    -0.246 OA
ATOM     10  O   UNL     1     131.321 162.907 199.676  0.00  0.00    -0.444 OA
ATOM     11  C   UNL     1     132.076 163.991 200.265  0.00  0.00    +0.202 C 
ATOM     12  C   UNL     1     133.274 163.486 201.127  0.00  0.00    +0.056 C 
ATOM     13  C   UNL     1     134.212 162.489 200.435  0.00  0.00    -0.078 C 
ATOM     14  C   UNL     1     134.561 161.281 200.915  0.00  0.00    -0.087 C 
ATOM     15  C   UNL     1     135.661 160.437 200.312  0.00  0.00    -0.032 C 
ATOM     16  C   UNL     1     134.104 164.698 201.648  0.00  0.00    +0.087 C 
ATOM     17  C   UNL     1     133.261 165.907 202.015  0.00  0.00    -0.045 C 
ATOM     18  C   UNL     1     133.816 167.132 202.068  0.00  0.00    -0.097 C 
ATOM     19  C   UNL     1     131.800 165.603 202.270  0.00  0.00    -0.012 C 
ATOM     20  C   UNL     1     131.136 165.017 200.996  0.00  0.00    +0.033 C 
ATOM     21  C   UNL     1     130.759 166.043 199.905  0.00  0.00    +0.035 C 
ATOM     22  N   UNL     1     131.826 165.953 198.951  0.00  0.00    -0.308 N 
ATOM     23  C   UNL     1     132.572 164.807 199.059  0.00  0.00    +0.258 C 
ATOM     24  O   UNL     1     133.456 164.517 198.269  0.00  0.00    -0.271 OA
ATOM     25  H   UNL     1     134.854 158.544 201.021  0.00  0.00    +0.030 HD
ATOM     26  H   UNL     1     134.652 157.547 198.600  0.00  0.00    +0.027 HD
ATOM     27  H   UNL     1     134.890 159.192 198.025  0.00  0.00    +0.027 HD
ATOM     28  H   UNL     1     132.647 158.150 199.836  0.00  0.00    +0.027 HD
ATOM     29  H   UNL     1     132.917 159.853 199.496  0.00  0.00    +0.027 HD
ATOM     30  H   UNL     1     132.683 159.349 197.010  0.00  0.00    +0.029 HD
ATOM     31  H   UNL     1     132.267 157.685 197.441  0.00  0.00    +0.029 HD
ATOM     32  H   UNL     1     130.238 159.141 196.986  0.00  0.00    +0.064 HD
ATOM     33  H   UNL     1     131.110 161.308 197.921  0.00  0.00    +0.060 HD
ATOM     34  H   UNL     1     129.946 160.021 200.473  0.00  0.00    +0.069 HD
ATOM     35  H   UNL     1     132.866 162.957 201.999  0.00  0.00    +0.042 HD
ATOM     36  H   UNL     1     134.707 162.845 199.530  0.00  0.00    +0.057 HD
ATOM     37  H   UNL     1     134.127 160.921 201.846  0.00  0.00    +0.057 HD
ATOM     38  H   UNL     1     136.514 160.542 200.996  0.00  0.00    +0.031 HD
ATOM     39  H   UNL     1     135.990 160.862 199.355  0.00  0.00    +0.031 HD
ATOM     40  H   UNL     1     134.846 164.991 200.895  0.00  0.00    +0.065 HD
ATOM     41  H   UNL     1     134.877 167.268 201.871  0.00  0.00    +0.054 HD
ATOM     42  H   UNL     1     133.255 168.027 202.314  0.00  0.00    +0.054 HD
ATOM     43  H   UNL     1     131.793 164.801 203.024  0.00  0.00    +0.035 HD
ATOM     44  H   UNL     1     130.209 164.544 201.338  0.00  0.00    +0.037 HD
ATOM     45  H   UNL     1     130.746 167.071 200.275  0.00  0.00    +0.051 HD
ATOM     46  H   UNL     1     131.986 166.613 198.199  0.00  0.00    +0.149 HD
ENDROOT
BRANCH   1  47
ATOM     47  C   UNL     1     136.707 158.180 200.019  0.00  0.00    -0.062 C 
ATOM     48  H   UNL     1     137.274 158.523 199.146  0.00  0.00    +0.023 HD
ATOM     49  H   UNL     1     137.330 158.359 200.903  0.00  0.00    +0.023 HD
ATOM     50  H   UNL     1     136.554 157.100 199.923  0.00  0.00    +0.023 HD
ENDBRANCH   1  47
BRANCH  19  51
ATOM     51  C   UNL     1     130.970 166.723 202.911  0.00  0.00    -0.058 C 
ATOM     52  H   UNL     1     130.837 167.552 202.206  0.00  0.00    +0.024 HD
ATOM     53  H   UNL     1     131.422 167.127 203.821  0.00  0.00    +0.024 HD
ATOM     54  H   UNL     1     129.972 166.356 203.176  0.00  0.00    +0.024 HD
ENDBRANCH  19  51
BRANCH  21  55
ATOM     55  C   UNL     1     129.397 165.709 199.260  0.00  0.00    -0.009 C 
ATOM     56  H   UNL     1     129.493 164.810 198.637  0.00  0.00    +0.033 HD
ATOM     57  H   UNL     1     129.075 166.512 198.585  0.00  0.00    +0.033 HD
BRANCH  55  58
ATOM     58  C   UNL     1     128.316 165.459 200.287  0.00  0.00    -0.046 A 
ATOM     59  C   UNL     1     127.756 164.183 200.430  0.00  0.00    -0.059 A 
ATOM     60  C   UNL     1     126.743 163.956 201.362  0.00  0.00    -0.062 A 
ATOM     61  C   UNL     1     126.281 165.003 202.158  0.00  0.00    -0.062 A 
ATOM     62  C   UNL     1     126.830 166.276 202.023  0.00  0.00    -0.062 A 
ATOM     63  C   UNL     1     127.844 166.505 201.091  0.00  0.00    -0.059 A 
ATOM     64  H   UNL     1     128.103 163.356 199.813  0.00  0.00    +0.062 HD
ATOM     65  H   UNL     1     126.313 162.963 201.467  0.00  0.00    +0.062 HD
ATOM     66  H   UNL     1     125.492 164.825 202.884  0.00  0.00    +0.062 HD
ATOM     67  H   UNL     1     126.470 167.092 202.645  0.00  0.00    +0.062 HD
ATOM     68  H   UNL     1     128.261 167.505 200.998  0.00  0.00    +0.062 HD
ENDBRANCH  55  58
ENDBRANCH  21  55
BRANCH  16  69
ATOM     69  O   UNL     1     134.832 164.316 202.818  0.00  0.00    -0.387 OA
ATOM     70  H   UNL     1     134.198 164.235 203.548  0.00  0.00    +0.210 HD
ENDBRANCH  16  69
BRANCH   5  71
ATOM     71  O   UNL     1     130.076 158.219 198.800  0.00  0.00    -0.388 OA
ATOM     72  H   UNL     1     130.250 158.489 199.717  0.00  0.00    +0.210 HD
ENDBRANCH   5  71
TORSDOF 6
ENDMDL
MODEL 8
REMARK VINA RESULT:      -6.9      2.749      5.882
REMARK  Name = Cytochalasin B_conf3
REMARK  6 active torsions:
REMARK  status: ('A' for Active; 'I' for Inactive)
REMARK    1  A    between atoms: C_1  and  C_2
REMARK    2  A    between atoms: C_6  and  O_35
REMARK    3  A    between atoms: C_17  and  O_34
REMARK    4  A    between atoms: C_20  and  C_33
REMARK    5  A    between atoms: C_22  and  C_26
REMARK    6  A    between atoms: C_26  and  C_27
REMARK                            x       y       z     vdW  Elec       q    Type
REMARK                         _______ _______ _______ _____ _____    ______ ____
ROOT
ATOM      1  C   UNL     1     147.332 166.962 184.421  0.00  0.00    -0.040 C 
ATOM      2  C   UNL     1     147.156 168.417 184.918  0.00  0.00    -0.050 C 
ATOM      3  C   UNL     1     146.762 168.493 186.389  0.00  0.00    -0.050 C 
ATOM      4  C   UNL     1     146.783 169.932 186.937  0.00  0.00    -0.023 C 
ATOM      5  C   UNL     1     146.558 170.000 188.462  0.00  0.00    +0.074 C 
ATOM      6  C   UNL     1     147.544 169.105 189.160  0.00  0.00    -0.049 C 
ATOM      7  C   UNL     1     147.235 167.921 189.718  0.00  0.00    +0.021 C 
ATOM      8  C   UNL     1     148.233 166.874 190.003  0.00  0.00    +0.333 C 
ATOM      9  O   UNL     1     147.916 165.759 190.391  0.00  0.00    -0.246 OA
ATOM     10  O   UNL     1     149.483 167.282 189.686  0.00  0.00    -0.444 OA
ATOM     11  C   UNL     1     150.510 166.277 189.517  0.00  0.00    +0.202 C 
ATOM     12  C   UNL     1     150.222 165.326 188.314  0.00  0.00    +0.056 C 
ATOM     13  C   UNL     1     149.921 166.020 186.980  0.00  0.00    -0.078 C 
ATOM     14  C   UNL     1     148.836 165.801 186.212  0.00  0.00    -0.087 C 
ATOM     15  C   UNL     1     148.698 166.335 184.805  0.00  0.00    -0.032 C 
ATOM     16  C   UNL     1     151.410 164.334 188.123  0.00  0.00    +0.087 C 
ATOM     17  C   UNL     1     152.037 163.870 189.426  0.00  0.00    -0.045 C 
ATOM     18  C   UNL     1     153.290 163.378 189.439  0.00  0.00    -0.097 C 
ATOM     19  C   UNL     1     151.157 164.042 190.645  0.00  0.00    -0.012 C 
ATOM     20  C   UNL     1     150.823 165.540 190.868  0.00  0.00    +0.033 C 
ATOM     21  C   UNL     1     151.938 166.385 191.522  0.00  0.00    +0.035 C 
ATOM     22  N   UNL     1     152.560 167.061 190.420  0.00  0.00    -0.308 N 
ATOM     23  C   UNL     1     151.796 167.086 189.282  0.00  0.00    +0.258 C 
ATOM     24  O   UNL     1     152.124 167.702 188.280  0.00  0.00    -0.271 OA
ATOM     25  H   UNL     1     146.521 166.341 184.820  0.00  0.00    +0.030 HD
ATOM     26  H   UNL     1     146.372 168.918 184.335  0.00  0.00    +0.027 HD
ATOM     27  H   UNL     1     148.082 168.979 184.744  0.00  0.00    +0.027 HD
ATOM     28  H   UNL     1     145.764 168.059 186.527  0.00  0.00    +0.027 HD
ATOM     29  H   UNL     1     147.458 167.877 186.956  0.00  0.00    +0.027 HD
ATOM     30  H   UNL     1     147.749 170.395 186.698  0.00  0.00    +0.029 HD
ATOM     31  H   UNL     1     146.005 170.513 186.426  0.00  0.00    +0.029 HD
ATOM     32  H   UNL     1     146.687 171.027 188.817  0.00  0.00    +0.064 HD
ATOM     33  H   UNL     1     148.587 169.391 189.028  0.00  0.00    +0.060 HD
ATOM     34  H   UNL     1     146.205 167.592 189.811  0.00  0.00    +0.069 HD
ATOM     35  H   UNL     1     149.327 164.737 188.554  0.00  0.00    +0.042 HD
ATOM     36  H   UNL     1     150.708 166.664 186.586  0.00  0.00    +0.057 HD
ATOM     37  H   UNL     1     148.060 165.119 186.552  0.00  0.00    +0.057 HD
ATOM     38  H   UNL     1     148.875 165.472 184.150  0.00  0.00    +0.031 HD
ATOM     39  H   UNL     1     149.502 167.050 184.584  0.00  0.00    +0.031 HD
ATOM     40  H   UNL     1     152.181 164.798 187.496  0.00  0.00    +0.065 HD
ATOM     41  H   UNL     1     153.859 163.286 188.516  0.00  0.00    +0.054 HD
ATOM     42  H   UNL     1     153.785 163.043 190.343  0.00  0.00    +0.054 HD
ATOM     43  H   UNL     1     150.208 163.542 190.398  0.00  0.00    +0.035 HD
ATOM     44  H   UNL     1     149.961 165.552 191.545  0.00  0.00    +0.037 HD
ATOM     45  H   UNL     1     152.709 165.775 192.000  0.00  0.00    +0.051 HD
ATOM     46  H   UNL     1     153.441 167.560 190.472  0.00  0.00    +0.149 HD
ENDROOT
BRANCH   1  47
ATOM     47  C   UNL     1     147.206 166.956 182.890  0.00  0.00    -0.062 C 
ATOM     48  H   UNL     1     146.369 166.325 182.569  0.00  0.00    +0.023 HD
ATOM     49  H   UNL     1     147.018 167.966 182.509  0.00  0.00    +0.023 HD
ATOM     50  H   UNL     1     148.119 166.577 182.418  0.00  0.00    +0.023 HD
ENDBRANCH   1  47
BRANCH  19  51
ATOM     51  C   UNL     1     151.623 163.339 191.928  0.00  0.00    -0.058 C 
ATOM     52  H   UNL     1     150.809 162.743 192.354  0.00  0.00    +0.024 HD
ATOM     53  H   UNL     1     151.969 164.033 192.698  0.00  0.00    +0.024 HD
ATOM     54  H   UNL     1     152.451 162.654 191.709  0.00  0.00    +0.024 HD
ENDBRANCH  19  51
BRANCH  21  55
ATOM     55  C   UNL     1     151.363 167.387 192.546  0.00  0.00    -0.009 C 
ATOM     56  H   UNL     1     150.526 167.937 192.096  0.00  0.00    +0.033 HD
ATOM     57  H   UNL     1     152.111 168.143 192.817  0.00  0.00    +0.033 HD
BRANCH  55  58
ATOM     58  C   UNL     1     150.863 166.709 193.801  0.00  0.00    -0.046 A 
ATOM     59  C   UNL     1     149.494 166.694 194.101  0.00  0.00    -0.059 A 
ATOM     60  C   UNL     1     149.034 166.088 195.270  0.00  0.00    -0.062 A 
ATOM     61  C   UNL     1     149.936 165.492 196.149  0.00  0.00    -0.062 A 
ATOM     62  C   UNL     1     151.299 165.502 195.860  0.00  0.00    -0.062 A 
ATOM     63  C   UNL     1     151.762 166.108 194.692  0.00  0.00    -0.059 A 
ATOM     64  H   UNL     1     148.777 167.158 193.427  0.00  0.00    +0.062 HD
ATOM     65  H   UNL     1     147.971 166.081 195.496  0.00  0.00    +0.062 HD
ATOM     66  H   UNL     1     149.577 165.019 197.060  0.00  0.00    +0.062 HD
ATOM     67  H   UNL     1     152.003 165.036 196.546  0.00  0.00    +0.062 HD
ATOM     68  H   UNL     1     152.830 166.107 194.482  0.00  0.00    +0.062 HD
ENDBRANCH  55  58
ENDBRANCH  21  55
BRANCH  16  69
ATOM     69  O   UNL     1     150.957 163.169 187.429  0.00  0.00    -0.387 OA
ATOM     70  H   UNL     1     151.460 163.105 186.601  0.00  0.00    +0.210 HD
ENDBRANCH  16  69
BRANCH   5  71
ATOM     71  O   UNL     1     145.229 169.598 188.770  0.00  0.00    -0.388 OA
ATOM     72  H   UNL     1     144.716 169.653 187.947  0.00  0.00    +0.210 HD
ENDBRANCH   5  71
TORSDOF 6
ENDMDL
MODEL 9
REMARK VINA RESULT:      -6.8     19.237     20.667
REMARK  Name = Cytochalasin B_conf3
REMARK  6 active torsions:
REMARK  status: ('A' for Active; 'I' for Inactive)
REMARK    1  A    between atoms: C_1  and  C_2
REMARK    2  A    between atoms: C_6  and  O_35
REMARK    3  A    between atoms: C_17  and  O_34
REMARK    4  A    between atoms: C_20  and  C_33
REMARK    5  A    between atoms: C_22  and  C_26
REMARK    6  A    between atoms: C_26  and  C_27
REMARK                            x       y       z     vdW  Elec       q    Type
REMARK                         _______ _______ _______ _____ _____    ______ ____
ROOT
ATOM      1  C   UNL     1     134.601 155.137 196.321  0.00  0.00    -0.040 C 
ATOM      2  C   UNL     1     134.530 154.597 197.769  0.00  0.00    -0.050 C 
ATOM      3  C   UNL     1     135.088 155.581 198.792  0.00  0.00    -0.050 C 
ATOM      4  C   UNL     1     134.836 155.135 200.245  0.00  0.00    -0.023 C 
ATOM      5  C   UNL     1     135.238 156.205 201.282  0.00  0.00    +0.074 C 
ATOM      6  C   UNL     1     134.561 157.507 200.955  0.00  0.00    -0.049 C 
ATOM      7  C   UNL     1     135.183 158.575 200.423  0.00  0.00    +0.021 C 
ATOM      8  C   UNL     1     134.474 159.657 199.717  0.00  0.00    +0.333 C 
ATOM      9  O   UNL     1     135.066 160.551 199.131  0.00  0.00    -0.246 OA
ATOM     10  O   UNL     1     133.136 159.461 199.727  0.00  0.00    -0.444 OA
ATOM     11  C   UNL     1     132.330 160.178 198.763  0.00  0.00    +0.202 C 
ATOM     12  C   UNL     1     132.653 159.767 197.293  0.00  0.00    +0.056 C 
ATOM     13  C   UNL     1     132.625 158.261 197.005  0.00  0.00    -0.078 C 
ATOM     14  C   UNL     1     133.622 157.554 196.440  0.00  0.00    -0.087 C 
ATOM     15  C   UNL     1     133.460 156.127 195.970  0.00  0.00    -0.032 C 
ATOM     16  C   UNL     1     131.686 160.497 196.311  0.00  0.00    +0.087 C 
ATOM     17  C   UNL     1     131.345 161.918 196.728  0.00  0.00    -0.045 C 
ATOM     18  C   UNL     1     130.237 162.517 196.255  0.00  0.00    -0.097 C 
ATOM     19  C   UNL     1     132.321 162.538 197.705  0.00  0.00    -0.012 C 
ATOM     20  C   UNL     1     132.358 161.726 199.026  0.00  0.00    +0.033 C 
ATOM     21  C   UNL     1     131.185 161.976 199.999  0.00  0.00    +0.035 C 
ATOM     22  N   UNL     1     130.296 160.873 199.770  0.00  0.00    -0.308 N 
ATOM     23  C   UNL     1     130.883 159.811 199.131  0.00  0.00    +0.258 C 
ATOM     24  O   UNL     1     130.305 158.752 198.942  0.00  0.00    -0.271 OA
ATOM     25  H   UNL     1     135.570 155.626 196.163  0.00  0.00    +0.030 HD
ATOM     26  H   UNL     1     135.109 153.667 197.850  0.00  0.00    +0.027 HD
ATOM     27  H   UNL     1     133.492 154.341 198.016  0.00  0.00    +0.027 HD
ATOM     28  H   UNL     1     136.164 155.715 198.627  0.00  0.00    +0.027 HD
ATOM     29  H   UNL     1     134.616 156.547 198.620  0.00  0.00    +0.027 HD
ATOM     30  H   UNL     1     133.771 154.899 200.370  0.00  0.00    +0.029 HD
ATOM     31  H   UNL     1     135.400 154.213 200.432  0.00  0.00    +0.029 HD
ATOM     32  H   UNL     1     134.943 155.886 202.287  0.00  0.00    +0.064 HD
ATOM     33  H   UNL     1     133.474 157.478 201.006  0.00  0.00    +0.060 HD
ATOM     34  H   UNL     1     136.262 158.604 200.314  0.00  0.00    +0.069 HD
ATOM     35  H   UNL     1     133.676 160.097 197.064  0.00  0.00    +0.042 HD
ATOM     36  H   UNL     1     131.676 157.756 197.187  0.00  0.00    +0.057 HD
ATOM     37  H   UNL     1     134.562 158.044 196.194  0.00  0.00    +0.057 HD
ATOM     38  H   UNL     1     133.385 156.189 194.876  0.00  0.00    +0.031 HD
ATOM     39  H   UNL     1     132.502 155.715 196.314  0.00  0.00    +0.031 HD
ATOM     40  H   UNL     1     130.759 159.920 196.207  0.00  0.00    +0.065 HD
ATOM     41  H   UNL     1     129.585 162.002 195.553  0.00  0.00    +0.054 HD
ATOM     42  H   UNL     1     129.945 163.524 196.530  0.00  0.00    +0.054 HD
ATOM     43  H   UNL     1     133.313 162.429 197.242  0.00  0.00    +0.035 HD
ATOM     44  H   UNL     1     133.279 162.034 199.535  0.00  0.00    +0.037 HD
ATOM     45  H   UNL     1     130.629 162.887 199.770  0.00  0.00    +0.051 HD
ATOM     46  H   UNL     1     129.345 160.817 200.114  0.00  0.00    +0.149 HD
ENDROOT
BRANCH   1  47
ATOM     47  C   UNL     1     134.526 153.944 195.356  0.00  0.00    -0.062 C 
ATOM     48  H   UNL     1     135.454 153.845 194.783  0.00  0.00    +0.023 HD
ATOM     49  H   UNL     1     134.380 153.006 195.905  0.00  0.00    +0.023 HD
ATOM     50  H   UNL     1     133.698 154.057 194.648  0.00  0.00    +0.023 HD
ENDBRANCH   1  47
BRANCH  19  51
ATOM     51  C   UNL     1     132.185 164.049 197.939  0.00  0.00    -0.058 C 
ATOM     52  H   UNL     1     131.268 164.427 197.473  0.00  0.00    +0.024 HD
ATOM     53  H   UNL     1     133.025 164.624 197.543  0.00  0.00    +0.024 HD
ATOM     54  H   UNL     1     132.118 164.265 199.013  0.00  0.00    +0.024 HD
ENDBRANCH  19  51
BRANCH  21  55
ATOM     55  C   UNL     1     131.664 162.017 201.466  0.00  0.00    -0.009 C 
ATOM     56  H   UNL     1     132.181 161.081 201.713  0.00  0.00    +0.033 HD
ATOM     57  H   UNL     1     130.812 162.084 202.155  0.00  0.00    +0.033 HD
BRANCH  55  58
ATOM     58  C   UNL     1     132.611 163.165 201.732  0.00  0.00    -0.046 A 
ATOM     59  C   UNL     1     132.112 164.442 202.024  0.00  0.00    -0.059 A 
ATOM     60  C   UNL     1     132.985 165.507 202.247  0.00  0.00    -0.062 A 
ATOM     61  C   UNL     1     134.362 165.307 202.182  0.00  0.00    -0.062 A 
ATOM     62  C   UNL     1     134.868 164.041 201.891  0.00  0.00    -0.062 A 
ATOM     63  C   UNL     1     133.997 162.974 201.667  0.00  0.00    -0.059 A 
ATOM     64  H   UNL     1     131.039 164.616 202.075  0.00  0.00    +0.062 HD
ATOM     65  H   UNL     1     132.590 166.495 202.473  0.00  0.00    +0.062 HD
ATOM     66  H   UNL     1     135.041 166.137 202.357  0.00  0.00    +0.062 HD
ATOM     67  H   UNL     1     135.943 163.885 201.841  0.00  0.00    +0.062 HD
ATOM     68  H   UNL     1     134.410 161.993 201.441  0.00  0.00    +0.062 HD
ENDBRANCH  55  58
ENDBRANCH  21  55
BRANCH  16  69
ATOM     69  O   UNL     1     132.279 160.565 195.012  0.00  0.00    -0.387 OA
ATOM     70  H   UNL     1     132.697 159.707 194.833  0.00  0.00    +0.210 HD
ENDBRANCH  16  69
BRANCH   5  71
ATOM     71  O   UNL     1     136.650 156.371 201.277  0.00  0.00    -0.388 OA
ATOM     72  H   UNL     1     136.826 157.325 201.337  0.00  0.00    +0.210 HD
ENDBRANCH   5  71
TORSDOF 6
ENDMDL
MODEL 10
REMARK VINA RESULT:      -6.7     18.555     21.136
REMARK  Name = Cytochalasin B_conf3
REMARK  6 active torsions:
REMARK  status: ('A' for Active; 'I' for Inactive)
REMARK    1  A    between atoms: C_1  and  C_2
REMARK    2  A    between atoms: C_6  and  O_35
REMARK    3  A    between atoms: C_17  and  O_34
REMARK    4  A    between atoms: C_20  and  C_33
REMARK    5  A    between atoms: C_22  and  C_26
REMARK    6  A    between atoms: C_26  and  C_27
REMARK                            x       y       z     vdW  Elec       q    Type
REMARK                         _______ _______ _______ _____ _____    ______ ____
ROOT
ATOM      1  C   UNL     1     132.063 169.482 201.146  0.00  0.00    -0.040 C 
ATOM      2  C   UNL     1     130.851 169.451 200.186  0.00  0.00    -0.050 C 
ATOM      3  C   UNL     1     131.169 168.769 198.859  0.00  0.00    -0.050 C 
ATOM      4  C   UNL     1     129.919 168.556 197.985  0.00  0.00    -0.023 C 
ATOM      5  C   UNL     1     130.201 167.712 196.724  0.00  0.00    +0.074 C 
ATOM      6  C   UNL     1     130.854 166.416 197.117  0.00  0.00    -0.049 C 
ATOM      7  C   UNL     1     132.156 166.134 196.932  0.00  0.00    +0.021 C 
ATOM      8  C   UNL     1     132.873 165.087 197.682  0.00  0.00    +0.333 C 
ATOM      9  O   UNL     1     134.082 164.932 197.591  0.00  0.00    -0.246 OA
ATOM     10  O   UNL     1     132.046 164.427 198.523  0.00  0.00    -0.444 OA
ATOM     11  C   UNL     1     132.632 163.666 199.605  0.00  0.00    +0.202 C 
ATOM     12  C   UNL     1     133.392 164.569 200.625  0.00  0.00    +0.056 C 
ATOM     13  C   UNL     1     132.598 165.762 201.173  0.00  0.00    -0.078 C 
ATOM     14  C   UNL     1     133.001 167.046 201.150  0.00  0.00    -0.087 C 
ATOM     15  C   UNL     1     132.291 168.148 201.903  0.00  0.00    -0.032 C 
ATOM     16  C   UNL     1     133.913 163.706 201.815  0.00  0.00    +0.087 C 
ATOM     17  C   UNL     1     134.386 162.321 201.409  0.00  0.00    -0.045 C 
ATOM     18  C   UNL     1     134.457 161.333 202.320  0.00  0.00    -0.097 C 
ATOM     19  C   UNL     1     134.720 162.176 199.940  0.00  0.00    -0.012 C 
ATOM     20  C   UNL     1     133.467 162.449 199.067  0.00  0.00    +0.033 C 
ATOM     21  C   UNL     1     132.449 161.290 198.977  0.00  0.00    +0.035 C 
ATOM     22  N   UNL     1     131.426 161.646 199.917  0.00  0.00    -0.308 N 
ATOM     23  C   UNL     1     131.434 162.971 200.272  0.00  0.00    +0.258 C 
ATOM     24  O   UNL     1     130.577 163.469 200.984  0.00  0.00    -0.271 OA
ATOM     25  H   UNL     1     132.967 169.741 200.582  0.00  0.00    +0.030 HD
ATOM     26  H   UNL     1     130.522 170.475 199.965  0.00  0.00    +0.027 HD
ATOM     27  H   UNL     1     130.006 168.951 200.676  0.00  0.00    +0.027 HD
ATOM     28  H   UNL     1     131.909 169.360 198.308  0.00  0.00    +0.027 HD
ATOM     29  H   UNL     1     131.629 167.806 199.078  0.00  0.00    +0.027 HD
ATOM     30  H   UNL     1     129.143 168.059 198.581  0.00  0.00    +0.029 HD
ATOM     31  H   UNL     1     129.526 169.537 197.689  0.00  0.00    +0.029 HD
ATOM     32  H   UNL     1     129.267 167.501 196.194  0.00  0.00    +0.064 HD
ATOM     33  H   UNL     1     130.239 165.771 197.741  0.00  0.00    +0.060 HD
ATOM     34  H   UNL     1     132.801 166.791 196.357  0.00  0.00    +0.069 HD
ATOM     35  H   UNL     1     134.264 164.999 200.115  0.00  0.00    +0.042 HD
ATOM     36  H   UNL     1     131.680 165.520 201.711  0.00  0.00    +0.057 HD
ATOM     37  H   UNL     1     133.941 167.311 200.670  0.00  0.00    +0.057 HD
ATOM     38  H   UNL     1     132.923 168.354 202.777  0.00  0.00    +0.031 HD
ATOM     39  H   UNL     1     131.335 167.787 202.302  0.00  0.00    +0.031 HD
ATOM     40  H   UNL     1     133.126 163.611 202.575  0.00  0.00    +0.065 HD
ATOM     41  H   UNL     1     134.199 161.519 203.360  0.00  0.00    +0.054 HD
ATOM     42  H   UNL     1     134.778 160.327 202.078  0.00  0.00    +0.054 HD
ATOM     43  H   UNL     1     135.437 162.982 199.719  0.00  0.00    +0.035 HD
ATOM     44  H   UNL     1     133.846 162.633 198.056  0.00  0.00    +0.037 HD
ATOM     45  H   UNL     1     132.864 160.333 199.303  0.00  0.00    +0.051 HD
ATOM     46  H   UNL     1     130.695 161.022 200.239  0.00  0.00    +0.149 HD
ENDROOT
BRANCH   1  47
ATOM     47  C   UNL     1     131.832 170.595 202.179  0.00  0.00    -0.062 C 
ATOM     48  H   UNL     1     131.937 170.210 203.200  0.00  0.00    +0.023 HD
ATOM     49  H   UNL     1     132.566 171.401 202.057  0.00  0.00    +0.023 HD
ATOM     50  H   UNL     1     130.831 171.028 202.080  0.00  0.00    +0.023 HD
ENDBRANCH   1  47
BRANCH  19  51
ATOM     51  C   UNL     1     135.462 160.896 199.532  0.00  0.00    -0.058 C 
ATOM     52  H   UNL     1     135.155 160.057 200.166  0.00  0.00    +0.024 HD
ATOM     53  H   UNL     1     136.549 160.988 199.600  0.00  0.00    +0.024 HD
ATOM     54  H   UNL     1     135.221 160.628 198.496  0.00  0.00    +0.024 HD
ENDBRANCH  19  51
BRANCH  21  55
ATOM     55  C   UNL     1     131.878 161.148 197.550  0.00  0.00    -0.009 C 
ATOM     56  H   UNL     1     132.208 161.994 196.933  0.00  0.00    +0.033 HD
ATOM     57  H   UNL     1     130.782 161.189 197.560  0.00  0.00    +0.033 HD
BRANCH  55  58
ATOM     58  C   UNL     1     132.322 159.870 196.875  0.00  0.00    -0.046 A 
ATOM     59  C   UNL     1     132.931 158.850 197.618  0.00  0.00    -0.059 A 
ATOM     60  C   UNL     1     133.361 157.679 196.992  0.00  0.00    -0.062 A 
ATOM     61  C   UNL     1     133.186 157.518 195.619  0.00  0.00    -0.062 A 
ATOM     62  C   UNL     1     132.582 158.526 194.871  0.00  0.00    -0.062 A 
ATOM     63  C   UNL     1     132.152 159.698 195.495  0.00  0.00    -0.059 A 
ATOM     64  H   UNL     1     133.078 158.963 198.690  0.00  0.00    +0.062 HD
ATOM     65  H   UNL     1     133.833 156.893 197.576  0.00  0.00    +0.062 HD
ATOM     66  H   UNL     1     133.520 156.605 195.133  0.00  0.00    +0.062 HD
ATOM     67  H   UNL     1     132.445 158.399 193.800  0.00  0.00    +0.062 HD
ATOM     68  H   UNL     1     131.683 160.475 194.895  0.00  0.00    +0.062 HD
ENDBRANCH  55  58
ENDBRANCH  21  55
BRANCH  16  69
ATOM     69  O   UNL     1     135.015 164.366 202.443  0.00  0.00    -0.387 OA
ATOM     70  H   UNL     1     135.407 163.747 203.080  0.00  0.00    +0.210 HD
ENDBRANCH  16  69
BRANCH   5  71
ATOM     71  O   UNL     1     131.045 168.438 195.840  0.00  0.00    -0.388 OA
ATOM     72  H   UNL     1     131.589 167.788 195.365  0.00  0.00    +0.210 HD
ENDBRANCH   5  71
TORSDOF 6
ENDMDL
