MODEL 1
REMARK VINA RESULT:      -7.1      0.000      0.000
REMARK  Name = Cytochalasin D_conf2
REMARK  10 active torsions:
REMARK  status: ('A' for Active; 'I' for Inactive)
REMARK    1  A    between atoms: C_1  and  C_2
REMARK    2  A    between atoms: C_7  and  O_37
REMARK    3  A    between atoms: C_10  and  C_36
REMARK    4  A    between atoms: C_13  and  O_21
REMARK    5  A    between atoms: C_16  and  C_19
REMARK    6  A    between atoms: C_16  and  O_20
REMARK    7  A    between atoms: O_21  and  C_22
REMARK    8  A    between atoms: C_22  and  C_24
REMARK    9  A    between atoms: C_28  and  C_29
REMARK   10  A    between atoms: C_29  and  C_30
REMARK                            x       y       z     vdW  Elec       q    Type
REMARK                         _______ _______ _______ _____ _____    ______ ____
ROOT
ATOM      1  C   UNL     1     143.621 167.092 192.468  0.00  0.00    +0.021 C 
ATOM      2  C   UNL     1     144.452 166.229 193.432  0.00  0.00    -0.025 C 
ATOM      3  C   UNL     1     145.897 166.651 193.489  0.00  0.00    -0.087 C 
ATOM      4  C   UNL     1     146.906 165.938 192.959  0.00  0.00    -0.081 C 
ATOM      5  C   UNL     1     148.376 166.357 193.004  0.00  0.00    +0.025 C 
ATOM      6  C   UNL     1     149.170 165.331 193.862  0.00  0.00    +0.084 C 
ATOM      7  C   UNL     1     150.660 165.605 193.909  0.00  0.00    -0.045 C 
ATOM      8  C   UNL     1     151.492 164.731 194.507  0.00  0.00    -0.097 C 
ATOM      9  C   UNL     1     151.094 166.891 193.234  0.00  0.00    -0.015 C 
ATOM     10  C   UNL     1     150.619 166.886 191.758  0.00  0.00    +0.002 C 
ATOM     11  C   UNL     1     149.061 166.608 191.604  0.00  0.00    +0.101 C 
ATOM     12  C   UNL     1     148.411 167.798 190.813  0.00  0.00    +0.136 C 
ATOM     13  C   UNL     1     147.047 167.518 190.211  0.00  0.00    -0.044 C 
ATOM     14  C   UNL     1     145.878 168.092 190.553  0.00  0.00    -0.046 C 
ATOM     15  C   UNL     1     144.516 167.701 190.040  0.00  0.00    +0.139 C 
ATOM     16  C   UNL     1     143.884 166.674 191.021  0.00  0.00    +0.171 C 
ATOM     17  O   UNL     1     143.606 165.534 190.625  0.00  0.00    -0.294 OA
ATOM     18  C   UNL     1     149.040 165.320 190.785  0.00  0.00    +0.224 C 
ATOM     19  O   UNL     1     148.065 164.657 190.467  0.00  0.00    -0.275 OA
ATOM     20  N   UNL     1     150.306 164.938 190.455  0.00  0.00    -0.311 N 
ATOM     21  C   UNL     1     151.340 165.819 190.896  0.00  0.00    +0.032 C 
ATOM     22  H   UNL     1     143.875 168.149 192.602  0.00  0.00    +0.038 HD
ATOM     23  H   UNL     1     144.050 166.318 194.449  0.00  0.00    +0.031 HD
ATOM     24  H   UNL     1     144.374 165.167 193.165  0.00  0.00    +0.031 HD
ATOM     25  H   UNL     1     146.108 167.594 193.990  0.00  0.00    +0.057 HD
ATOM     26  H   UNL     1     146.678 164.995 192.461  0.00  0.00    +0.057 HD
ATOM     27  H   UNL     1     148.398 167.306 193.559  0.00  0.00    +0.038 HD
ATOM     28  H   UNL     1     149.002 164.312 193.492  0.00  0.00    +0.065 HD
ATOM     29  H   UNL     1     152.563 164.881 194.571  0.00  0.00    +0.054 HD
ATOM     30  H   UNL     1     151.101 163.834 194.980  0.00  0.00    +0.054 HD
ATOM     31  H   UNL     1     150.575 167.713 193.748  0.00  0.00    +0.035 HD
ATOM     32  H   UNL     1     150.866 167.875 191.363  0.00  0.00    +0.034 HD
ATOM     33  H   UNL     1     149.048 168.077 189.968  0.00  0.00    +0.079 HD
ATOM     34  H   UNL     1     147.037 166.750 189.438  0.00  0.00    +0.061 HD
ATOM     35  H   UNL     1     145.879 168.858 191.325  0.00  0.00    +0.060 HD
ATOM     36  H   UNL     1     150.456 164.076 189.944  0.00  0.00    +0.149 HD
ATOM     37  H   UNL     1     152.001 165.198 191.509  0.00  0.00    +0.050 HD
ENDROOT
BRANCH   1  38
ATOM     38  C   UNL     1     142.127 166.931 192.747  0.00  0.00    -0.055 C 
ATOM     39  H   UNL     1     141.961 166.373 193.676  0.00  0.00    +0.024 HD
ATOM     40  H   UNL     1     141.635 166.388 191.935  0.00  0.00    +0.024 HD
ATOM     41  H   UNL     1     141.631 167.903 192.856  0.00  0.00    +0.024 HD
ENDBRANCH   1  38
BRANCH  15  42
ATOM     42  C   UNL     1     143.604 168.909 189.849  0.00  0.00    -0.025 C 
ATOM     43  H   UNL     1     143.967 169.540 189.029  0.00  0.00    +0.026 HD
ATOM     44  H   UNL     1     143.592 169.539 190.747  0.00  0.00    +0.026 HD
ATOM     45  H   UNL     1     142.572 168.625 189.618  0.00  0.00    +0.026 HD
ENDBRANCH  15  42
BRANCH   9  46
ATOM     46  C   UNL     1     152.585 167.247 193.343  0.00  0.00    -0.058 C 
ATOM     47  H   UNL     1     152.856 168.125 192.750  0.00  0.00    +0.024 HD
ATOM     48  H   UNL     1     153.208 166.411 193.008  0.00  0.00    +0.024 HD
ATOM     49  H   UNL     1     152.853 167.453 194.386  0.00  0.00    +0.024 HD
ENDBRANCH   9  46
BRANCH  21  50
ATOM     50  C   UNL     1     152.205 166.366 189.740  0.00  0.00    -0.009 C 
ATOM     51  H   UNL     1     151.623 166.316 188.811  0.00  0.00    +0.033 HD
ATOM     52  H   UNL     1     152.386 167.436 189.911  0.00  0.00    +0.033 HD
BRANCH  50  53
ATOM     53  C   UNL     1     153.551 165.714 189.526  0.00  0.00    -0.046 A 
ATOM     54  C   UNL     1     154.719 166.484 189.432  0.00  0.00    -0.059 A 
ATOM     55  C   UNL     1     155.962 165.875 189.249  0.00  0.00    -0.062 A 
ATOM     56  C   UNL     1     156.052 164.490 189.146  0.00  0.00    -0.062 A 
ATOM     57  C   UNL     1     154.898 163.715 189.219  0.00  0.00    -0.062 A 
ATOM     58  C   UNL     1     153.654 164.322 189.404  0.00  0.00    -0.059 A 
ATOM     59  H   UNL     1     154.675 167.568 189.504  0.00  0.00    +0.062 HD
ATOM     60  H   UNL     1     156.861 166.483 189.191  0.00  0.00    +0.062 HD
ATOM     61  H   UNL     1     157.019 164.015 189.010  0.00  0.00    +0.062 HD
ATOM     62  H   UNL     1     154.962 162.632 189.148  0.00  0.00    +0.062 HD
ATOM     63  H   UNL     1     152.771 163.691 189.475  0.00  0.00    +0.062 HD
ENDBRANCH  50  53
ENDBRANCH  21  50
BRANCH  15  64
ATOM     64  O   UNL     1     144.654 167.089 188.754  0.00  0.00    -0.377 OA
ATOM     65  H   UNL     1     144.770 167.828 188.121  0.00  0.00    +0.211 HD
ENDBRANCH  15  64
BRANCH   6  66
ATOM     66  O   UNL     1     148.713 165.388 195.217  0.00  0.00    -0.387 OA
ATOM     67  H   UNL     1     148.892 164.515 195.610  0.00  0.00    +0.210 HD
ENDBRANCH   6  66
BRANCH  12  68
ATOM     68  O   UNL     1     148.262 168.924 191.721  0.00  0.00    -0.456 OA
BRANCH  68  69
ATOM     69  C   UNL     1     148.675 170.155 191.332  0.00  0.00    +0.305 C 
ATOM     70  O   UNL     1     148.055 170.941 190.634  0.00  0.00    -0.251 OA
BRANCH  69  71
ATOM     71  C   UNL     1     150.034 170.432 191.899  0.00  0.00    +0.033 C 
ATOM     72  H   UNL     1     150.407 169.553 192.430  0.00  0.00    +0.034 HD
ATOM     73  H   UNL     1     149.984 171.292 192.568  0.00  0.00    +0.034 HD
ATOM     74  H   UNL     1     150.728 170.649 191.081  0.00  0.00    +0.034 HD
ENDBRANCH  69  71
ENDBRANCH  68  69
ENDBRANCH  12  68
TORSDOF 10
ENDMDL
MODEL 2
REMARK VINA RESULT:      -7.1      2.976      7.825
REMARK  Name = Cytochalasin D_conf2
REMARK  10 active torsions:
REMARK  status: ('A' for Active; 'I' for Inactive)
REMARK    1  A    between atoms: C_1  and  C_2
REMARK    2  A    between atoms: C_7  and  O_37
REMARK    3  A    between atoms: C_10  and  C_36
REMARK    4  A    between atoms: C_13  and  O_21
REMARK    5  A    between atoms: C_16  and  C_19
REMARK    6  A    between atoms: C_16  and  O_20
REMARK    7  A    between atoms: O_21  and  C_22
REMARK    8  A    between atoms: C_22  and  C_24
REMARK    9  A    between atoms: C_28  and  C_29
REMARK   10  A    between atoms: C_29  and  C_30
REMARK                            x       y       z     vdW  Elec       q    Type
REMARK                         _______ _______ _______ _____ _____    ______ ____
ROOT
ATOM      1  C   UNL     1     154.237 163.999 188.252  0.00  0.00    +0.021 C 
ATOM      2  C   UNL     1     153.788 163.704 189.693  0.00  0.00    -0.025 C 
ATOM      3  C   UNL     1     152.382 164.170 189.969  0.00  0.00    -0.087 C 
ATOM      4  C   UNL     1     152.082 165.226 190.745  0.00  0.00    -0.081 C 
ATOM      5  C   UNL     1     150.661 165.713 191.029  0.00  0.00    +0.025 C 
ATOM      6  C   UNL     1     150.355 165.533 192.544  0.00  0.00    +0.084 C 
ATOM      7  C   UNL     1     148.995 166.061 192.954  0.00  0.00    -0.045 C 
ATOM      8  C   UNL     1     148.643 166.090 194.253  0.00  0.00    -0.097 C 
ATOM      9  C   UNL     1     148.125 166.541 191.810  0.00  0.00    -0.015 C 
ATOM     10  C   UNL     1     148.878 167.634 191.009  0.00  0.00    +0.002 C 
ATOM     11  C   UNL     1     150.323 167.171 190.530  0.00  0.00    +0.101 C 
ATOM     12  C   UNL     1     150.407 167.316 188.969  0.00  0.00    +0.136 C 
ATOM     13  C   UNL     1     151.808 167.330 188.386  0.00  0.00    -0.044 C 
ATOM     14  C   UNL     1     152.358 166.402 187.579  0.00  0.00    -0.046 C 
ATOM     15  C   UNL     1     153.794 166.365 187.125  0.00  0.00    +0.139 C 
ATOM     16  C   UNL     1     154.609 165.474 188.103  0.00  0.00    +0.171 C 
ATOM     17  O   UNL     1     155.543 165.965 188.752  0.00  0.00    -0.294 OA
ATOM     18  C   UNL     1     151.234 168.177 191.229  0.00  0.00    +0.224 C 
ATOM     19  O   UNL     1     152.455 168.194 191.236  0.00  0.00    -0.275 OA
ATOM     20  N   UNL     1     150.500 169.090 191.926  0.00  0.00    -0.311 N 
ATOM     21  C   UNL     1     149.084 168.939 191.817  0.00  0.00    +0.032 C 
ATOM     22  H   UNL     1     153.432 163.746 187.553  0.00  0.00    +0.038 HD
ATOM     23  H   UNL     1     153.810 162.623 189.875  0.00  0.00    +0.031 HD
ATOM     24  H   UNL     1     154.486 164.150 190.413  0.00  0.00    +0.031 HD
ATOM     25  H   UNL     1     151.581 163.604 189.497  0.00  0.00    +0.057 HD
ATOM     26  H   UNL     1     152.895 165.782 191.212  0.00  0.00    +0.057 HD
ATOM     27  H   UNL     1     149.995 165.018 190.496  0.00  0.00    +0.038 HD
ATOM     28  H   UNL     1     151.129 166.020 193.150  0.00  0.00    +0.065 HD
ATOM     29  H   UNL     1     147.682 166.453 194.599  0.00  0.00    +0.054 HD
ATOM     30  H   UNL     1     149.321 165.716 195.017  0.00  0.00    +0.054 HD
ATOM     31  H   UNL     1     147.974 165.681 191.140  0.00  0.00    +0.035 HD
ATOM     32  H   UNL     1     148.248 167.857 190.145  0.00  0.00    +0.034 HD
ATOM     33  H   UNL     1     149.955 168.262 188.656  0.00  0.00    +0.079 HD
ATOM     34  H   UNL     1     152.420 168.179 188.688  0.00  0.00    +0.061 HD
ATOM     35  H   UNL     1     151.754 165.551 187.276  0.00  0.00    +0.060 HD
ATOM     36  H   UNL     1     150.968 169.799 192.477  0.00  0.00    +0.149 HD
ATOM     37  H   UNL     1     148.730 168.825 192.848  0.00  0.00    +0.050 HD
ENDROOT
BRANCH   1  38
ATOM     38  C   UNL     1     155.458 163.158 187.882  0.00  0.00    -0.055 C 
ATOM     39  H   UNL     1     155.159 162.147 187.580  0.00  0.00    +0.024 HD
ATOM     40  H   UNL     1     156.140 163.067 188.733  0.00  0.00    +0.024 HD
ATOM     41  H   UNL     1     156.013 163.600 187.047  0.00  0.00    +0.024 HD
ENDBRANCH   1  38
BRANCH  15  42
ATOM     42  C   UNL     1     153.931 165.868 185.688  0.00  0.00    -0.025 C 
ATOM     43  H   UNL     1     154.822 166.297 185.215  0.00  0.00    +0.026 HD
ATOM     44  H   UNL     1     153.072 166.181 185.081  0.00  0.00    +0.026 HD
ATOM     45  H   UNL     1     154.013 164.778 185.626  0.00  0.00    +0.026 HD
ENDBRANCH  15  42
BRANCH   9  46
ATOM     46  C   UNL     1     146.704 166.994 192.180  0.00  0.00    -0.058 C 
ATOM     47  H   UNL     1     146.491 168.021 191.867  0.00  0.00    +0.024 HD
ATOM     48  H   UNL     1     146.549 166.935 193.263  0.00  0.00    +0.024 HD
ATOM     49  H   UNL     1     145.959 166.342 191.710  0.00  0.00    +0.024 HD
ENDBRANCH   9  46
BRANCH  21  50
ATOM     50  C   UNL     1     148.382 170.193 191.253  0.00  0.00    -0.009 C 
ATOM     51  H   UNL     1     148.844 170.453 190.293  0.00  0.00    +0.033 HD
ATOM     52  H   UNL     1     147.341 169.935 191.012  0.00  0.00    +0.033 HD
BRANCH  50  53
ATOM     53  C   UNL     1     148.344 171.414 192.142  0.00  0.00    -0.046 A 
ATOM     54  C   UNL     1     147.173 172.172 192.277  0.00  0.00    -0.059 A 
ATOM     55  C   UNL     1     147.140 173.291 193.112  0.00  0.00    -0.062 A 
ATOM     56  C   UNL     1     148.282 173.673 193.811  0.00  0.00    -0.062 A 
ATOM     57  C   UNL     1     149.457 172.941 193.670  0.00  0.00    -0.062 A 
ATOM     58  C   UNL     1     149.490 171.820 192.838  0.00  0.00    -0.059 A 
ATOM     59  H   UNL     1     146.270 171.898 191.739  0.00  0.00    +0.062 HD
ATOM     60  H   UNL     1     146.222 173.862 193.219  0.00  0.00    +0.062 HD
ATOM     61  H   UNL     1     148.256 174.540 194.465  0.00  0.00    +0.062 HD
ATOM     62  H   UNL     1     150.349 173.229 194.220  0.00  0.00    +0.062 HD
ATOM     63  H   UNL     1     150.417 171.256 192.760  0.00  0.00    +0.062 HD
ENDBRANCH  50  53
ENDBRANCH  21  50
BRANCH  15  64
ATOM     64  O   UNL     1     154.332 167.691 187.148  0.00  0.00    -0.377 OA
ATOM     65  H   UNL     1     154.452 167.912 188.094  0.00  0.00    +0.211 HD
ENDBRANCH  15  64
BRANCH   6  66
ATOM     66  O   UNL     1     150.355 164.139 192.868  0.00  0.00    -0.387 OA
ATOM     67  H   UNL     1     150.336 164.078 193.839  0.00  0.00    +0.210 HD
ENDBRANCH   6  66
BRANCH  12  68
ATOM     68  O   UNL     1     149.698 166.198 188.367  0.00  0.00    -0.456 OA
BRANCH  68  69
ATOM     69  C   UNL     1     148.641 166.439 187.553  0.00  0.00    +0.305 C 
ATOM     70  O   UNL     1     148.657 167.079 186.514  0.00  0.00    -0.251 OA
BRANCH  69  71
ATOM     71  C   UNL     1     147.415 165.785 188.114  0.00  0.00    +0.033 C 
ATOM     72  H   UNL     1     146.856 166.496 188.727  0.00  0.00    +0.034 HD
ATOM     73  H   UNL     1     147.701 164.913 188.703  0.00  0.00    +0.034 HD
ATOM     74  H   UNL     1     146.766 165.469 187.291  0.00  0.00    +0.034 HD
ENDBRANCH  69  71
ENDBRANCH  68  69
ENDBRANCH  12  68
TORSDOF 10
ENDMDL
MODEL 3
REMARK VINA RESULT:      -6.9      2.247      4.273
REMARK  Name = Cytochalasin D_conf2
REMARK  10 active torsions:
REMARK  status: ('A' for Active; 'I' for Inactive)
REMARK    1  A    between atoms: C_1  and  C_2
REMARK    2  A    between atoms: C_7  and  O_37
REMARK    3  A    between atoms: C_10  and  C_36
REMARK    4  A    between atoms: C_13  and  O_21
REMARK    5  A    between atoms: C_16  and  C_19
REMARK    6  A    between atoms: C_16  and  O_20
REMARK    7  A    between atoms: O_21  and  C_22
REMARK    8  A    between atoms: C_22  and  C_24
REMARK    9  A    between atoms: C_28  and  C_29
REMARK   10  A    between atoms: C_29  and  C_30
REMARK                            x       y       z     vdW  Elec       q    Type
REMARK                         _______ _______ _______ _____ _____    ______ ____
ROOT
ATOM      1  C   UNL     1     143.672 169.543 190.079  0.00  0.00    +0.021 C 
ATOM      2  C   UNL     1     144.818 170.482 190.490  0.00  0.00    -0.025 C 
ATOM      3  C   UNL     1     146.176 169.861 190.291  0.00  0.00    -0.087 C 
ATOM      4  C   UNL     1     146.969 169.455 191.298  0.00  0.00    -0.081 C 
ATOM      5  C   UNL     1     148.346 168.818 191.109  0.00  0.00    +0.025 C 
ATOM      6  C   UNL     1     149.429 169.762 191.707  0.00  0.00    +0.084 C 
ATOM      7  C   UNL     1     150.831 169.190 191.648  0.00  0.00    -0.045 C 
ATOM      8  C   UNL     1     151.852 169.837 192.240  0.00  0.00    -0.097 C 
ATOM      9  C   UNL     1     150.953 167.877 190.902  0.00  0.00    -0.015 C 
ATOM     10  C   UNL     1     150.000 166.831 191.535  0.00  0.00    +0.002 C 
ATOM     11  C   UNL     1     148.497 167.340 191.640  0.00  0.00    +0.101 C 
ATOM     12  C   UNL     1     147.566 166.324 190.886  0.00  0.00    +0.136 C 
ATOM     13  C   UNL     1     146.091 166.407 191.230  0.00  0.00    -0.044 C 
ATOM     14  C   UNL     1     145.089 166.779 190.410  0.00  0.00    -0.046 C 
ATOM     15  C   UNL     1     143.651 166.988 190.810  0.00  0.00    +0.139 C 
ATOM     16  C   UNL     1     143.437 168.487 191.160  0.00  0.00    +0.171 C 
ATOM     17  O   UNL     1     143.087 168.810 192.302  0.00  0.00    -0.294 OA
ATOM     18  C   UNL     1     148.247 167.308 193.146  0.00  0.00    +0.224 C 
ATOM     19  O   UNL     1     147.250 167.684 193.742  0.00  0.00    -0.275 OA
ATOM     20  N   UNL     1     149.337 166.822 193.805  0.00  0.00    -0.311 N 
ATOM     21  C   UNL     1     150.422 166.421 192.968  0.00  0.00    +0.032 C 
ATOM     22  H   UNL     1     143.913 169.056 189.128  0.00  0.00    +0.038 HD
ATOM     23  H   UNL     1     144.788 171.394 189.881  0.00  0.00    +0.031 HD
ATOM     24  H   UNL     1     144.696 170.807 191.532  0.00  0.00    +0.031 HD
ATOM     25  H   UNL     1     146.509 169.742 189.261  0.00  0.00    +0.057 HD
ATOM     26  H   UNL     1     146.622 169.583 192.323  0.00  0.00    +0.057 HD
ATOM     27  H   UNL     1     148.520 168.800 190.023  0.00  0.00    +0.038 HD
ATOM     28  H   UNL     1     149.185 170.012 192.748  0.00  0.00    +0.065 HD
ATOM     29  H   UNL     1     152.873 169.474 192.223  0.00  0.00    +0.054 HD
ATOM     30  H   UNL     1     151.685 170.784 192.748  0.00  0.00    +0.054 HD
ATOM     31  H   UNL     1     150.610 168.060 189.873  0.00  0.00    +0.035 HD
ATOM     32  H   UNL     1     150.055 165.950 190.892  0.00  0.00    +0.034 HD
ATOM     33  H   UNL     1     147.861 165.298 191.126  0.00  0.00    +0.079 HD
ATOM     34  H   UNL     1     145.847 166.157 192.262  0.00  0.00    +0.061 HD
ATOM     35  H   UNL     1     145.324 167.033 189.380  0.00  0.00    +0.060 HD
ATOM     36  H   UNL     1     149.337 166.779 194.817  0.00  0.00    +0.149 HD
ATOM     37  H   UNL     1     151.279 167.010 193.311  0.00  0.00    +0.050 HD
ENDROOT
BRANCH   1  38
ATOM     38  C   UNL     1     142.373 170.326 189.887  0.00  0.00    -0.055 C 
ATOM     39  H   UNL     1     142.132 170.426 188.822  0.00  0.00    +0.024 HD
ATOM     40  H   UNL     1     142.458 171.332 190.309  0.00  0.00    +0.024 HD
ATOM     41  H   UNL     1     141.526 169.825 190.369  0.00  0.00    +0.024 HD
ENDBRANCH   1  38
BRANCH  15  42
ATOM     42  C   UNL     1     142.680 166.535 189.723  0.00  0.00    -0.025 C 
ATOM     43  H   UNL     1     141.979 167.339 189.473  0.00  0.00    +0.026 HD
ATOM     44  H   UNL     1     142.075 165.686 190.065  0.00  0.00    +0.026 HD
ATOM     45  H   UNL     1     143.190 166.240 188.799  0.00  0.00    +0.026 HD
ENDBRANCH  15  42
BRANCH   9  46
ATOM     46  C   UNL     1     152.375 167.316 190.740  0.00  0.00    -0.058 C 
ATOM     47  H   UNL     1     152.701 166.731 191.604  0.00  0.00    +0.024 HD
ATOM     48  H   UNL     1     153.096 168.128 190.594  0.00  0.00    +0.024 HD
ATOM     49  H   UNL     1     152.433 166.668 189.858  0.00  0.00    +0.024 HD
ENDBRANCH   9  46
BRANCH  21  50
ATOM     50  C   UNL     1     150.814 164.939 193.151  0.00  0.00    -0.009 C 
ATOM     51  H   UNL     1     151.890 164.882 193.361  0.00  0.00    +0.033 HD
ATOM     52  H   UNL     1     150.323 164.554 194.056  0.00  0.00    +0.033 HD
BRANCH  50  53
ATOM     53  C   UNL     1     150.472 163.995 192.022  0.00  0.00    -0.046 A 
ATOM     54  C   UNL     1     149.195 163.426 191.919  0.00  0.00    -0.059 A 
ATOM     55  C   UNL     1     148.880 162.567 190.865  0.00  0.00    -0.062 A 
ATOM     56  C   UNL     1     149.841 162.256 189.907  0.00  0.00    -0.062 A 
ATOM     57  C   UNL     1     151.119 162.799 190.008  0.00  0.00    -0.062 A 
ATOM     58  C   UNL     1     151.435 163.661 191.061  0.00  0.00    -0.059 A 
ATOM     59  H   UNL     1     148.428 163.649 192.656  0.00  0.00    +0.062 HD
ATOM     60  H   UNL     1     147.882 162.144 190.788  0.00  0.00    +0.062 HD
ATOM     61  H   UNL     1     149.596 161.593 189.083  0.00  0.00    +0.062 HD
ATOM     62  H   UNL     1     151.872 162.567 189.259  0.00  0.00    +0.062 HD
ATOM     63  H   UNL     1     152.436 164.084 191.106  0.00  0.00    +0.062 HD
ENDBRANCH  50  53
ENDBRANCH  21  50
BRANCH  15  64
ATOM     64  O   UNL     1     143.362 166.196 191.966  0.00  0.00    -0.377 OA
ATOM     65  H   UNL     1     142.385 166.147 192.016  0.00  0.00    +0.211 HD
ENDBRANCH  15  64
BRANCH   6  66
ATOM     66  O   UNL     1     149.464 170.982 190.959  0.00  0.00    -0.387 OA
ATOM     67  H   UNL     1     148.859 171.601 191.405  0.00  0.00    +0.210 HD
ENDBRANCH   6  66
BRANCH  12  68
ATOM     68  O   UNL     1     147.693 166.561 189.457  0.00  0.00    -0.456 OA
BRANCH  68  69
ATOM     69  C   UNL     1     148.025 165.535 188.637  0.00  0.00    +0.305 C 
ATOM     70  O   UNL     1     147.296 164.622 188.286  0.00  0.00    -0.251 OA
BRANCH  69  71
ATOM     71  C   UNL     1     149.451 165.681 188.200  0.00  0.00    +0.033 C 
ATOM     72  H   UNL     1     149.653 165.028 187.348  0.00  0.00    +0.034 HD
ATOM     73  H   UNL     1     150.117 165.443 189.031  0.00  0.00    +0.034 HD
ATOM     74  H   UNL     1     149.626 166.713 187.881  0.00  0.00    +0.034 HD
ENDBRANCH  69  71
ENDBRANCH  68  69
ENDBRANCH  12  68
TORSDOF 10
ENDMDL
MODEL 4
REMARK VINA RESULT:      -6.7     12.059     16.176
REMARK  Name = Cytochalasin D_conf2
REMARK  10 active torsions:
REMARK  status: ('A' for Active; 'I' for Inactive)
REMARK    1  A    between atoms: C_1  and  C_2
REMARK    2  A    between atoms: C_7  and  O_37
REMARK    3  A    between atoms: C_10  and  C_36
REMARK    4  A    between atoms: C_13  and  O_21
REMARK    5  A    between atoms: C_16  and  C_19
REMARK    6  A    between atoms: C_16  and  O_20
REMARK    7  A    between atoms: O_21  and  C_22
REMARK    8  A    between atoms: C_22  and  C_24
REMARK    9  A    between atoms: C_28  and  C_29
REMARK   10  A    between atoms: C_29  and  C_30
REMARK                            x       y       z     vdW  Elec       q    Type
REMARK                         _______ _______ _______ _____ _____    ______ ____
ROOT
ATOM      1  C   UNL     1     164.267 170.117 181.407  0.00  0.00    +0.021 C 
ATOM      2  C   UNL     1     163.525 168.804 181.708  0.00  0.00    -0.025 C 
ATOM      3  C   UNL     1     162.030 168.938 181.570  0.00  0.00    -0.087 C 
ATOM      4  C   UNL     1     161.180 168.940 182.612  0.00  0.00    -0.081 C 
ATOM      5  C   UNL     1     159.663 169.082 182.487  0.00  0.00    +0.025 C 
ATOM      6  C   UNL     1     158.988 167.767 182.974  0.00  0.00    +0.084 C 
ATOM      7  C   UNL     1     157.474 167.825 182.970  0.00  0.00    -0.045 C 
ATOM      8  C   UNL     1     156.755 166.810 183.484  0.00  0.00    -0.097 C 
ATOM      9  C   UNL     1     156.885 169.087 182.371  0.00  0.00    -0.015 C 
ATOM     10  C   UNL     1     157.444 170.325 183.119  0.00  0.00    +0.002 C 
ATOM     11  C   UNL     1     159.033 170.355 183.175  0.00  0.00    +0.101 C 
ATOM     12  C   UNL     1     159.536 171.701 182.541  0.00  0.00    +0.136 C 
ATOM     13  C   UNL     1     160.961 172.094 182.880  0.00  0.00    -0.044 C 
ATOM     14  C   UNL     1     162.002 172.176 182.030  0.00  0.00    -0.046 C 
ATOM     15  C   UNL     1     163.437 172.434 182.411  0.00  0.00    +0.139 C 
ATOM     16  C   UNL     1     164.161 171.071 182.597  0.00  0.00    +0.171 C 
ATOM     17  O   UNL     1     164.639 170.771 183.699  0.00  0.00    -0.294 OA
ATOM     18  C   UNL     1     159.307 170.314 184.676  0.00  0.00    +0.224 C 
ATOM     19  O   UNL     1     160.391 170.243 185.233  0.00  0.00    -0.275 OA
ATOM     20  N   UNL     1     158.139 170.325 185.379  0.00  0.00    -0.311 N 
ATOM     21  C   UNL     1     156.955 170.414 184.586  0.00  0.00    +0.032 C 
ATOM     22  H   UNL     1     163.843 170.587 180.513  0.00  0.00    +0.038 HD
ATOM     23  H   UNL     1     163.845 168.027 181.003  0.00  0.00    +0.031 HD
ATOM     24  H   UNL     1     163.785 168.435 182.708  0.00  0.00    +0.031 HD
ATOM     25  H   UNL     1     161.643 169.042 180.558  0.00  0.00    +0.057 HD
ATOM     26  H   UNL     1     161.583 168.834 183.619  0.00  0.00    +0.057 HD
ATOM     27  H   UNL     1     159.457 169.152 181.408  0.00  0.00    +0.038 HD
ATOM     28  H   UNL     1     159.337 167.510 183.982  0.00  0.00    +0.065 HD
ATOM     29  H   UNL     1     155.672 166.800 183.502  0.00  0.00    +0.054 HD
ATOM     30  H   UNL     1     157.253 165.930 183.887  0.00  0.00    +0.054 HD
ATOM     31  H   UNL     1     157.236 169.141 181.330  0.00  0.00    +0.035 HD
ATOM     32  H   UNL     1     157.070 171.195 182.575  0.00  0.00    +0.034 HD
ATOM     33  H   UNL     1     158.915 172.533 182.889  0.00  0.00    +0.079 HD
ATOM     34  H   UNL     1     161.138 172.305 183.934  0.00  0.00    +0.061 HD
ATOM     35  H   UNL     1     161.833 171.965 180.977  0.00  0.00    +0.060 HD
ATOM     36  H   UNL     1     158.157 170.261 186.390  0.00  0.00    +0.149 HD
ATOM     37  H   UNL     1     156.363 169.534 184.859  0.00  0.00    +0.050 HD
ENDROOT
BRANCH   1  38
ATOM     38  C   UNL     1     165.748 169.852 181.136  0.00  0.00    -0.055 C 
ATOM     39  H   UNL     1     166.012 168.819 181.388  0.00  0.00    +0.024 HD
ATOM     40  H   UNL     1     166.377 170.517 181.735  0.00  0.00    +0.024 HD
ATOM     41  H   UNL     1     165.998 170.007 180.080  0.00  0.00    +0.024 HD
ENDBRANCH   1  38
BRANCH  15  42
ATOM     42  C   UNL     1     164.158 173.303 181.384  0.00  0.00    -0.025 C 
ATOM     43  H   UNL     1     163.720 173.166 180.388  0.00  0.00    +0.026 HD
ATOM     44  H   UNL     1     165.215 173.020 181.303  0.00  0.00    +0.026 HD
ATOM     45  H   UNL     1     164.108 174.369 181.625  0.00  0.00    +0.026 HD
ENDBRANCH  15  42
BRANCH   9  46
ATOM     46  C   UNL     1     155.353 169.139 182.265  0.00  0.00    -0.058 C 
ATOM     47  H   UNL     1     154.865 169.268 183.235  0.00  0.00    +0.024 HD
ATOM     48  H   UNL     1     154.966 168.218 181.814  0.00  0.00    +0.024 HD
ATOM     49  H   UNL     1     155.042 169.971 181.622  0.00  0.00    +0.024 HD
ENDBRANCH   9  46
BRANCH  21  50
ATOM     50  C   UNL     1     156.086 171.644 184.928  0.00  0.00    -0.009 C 
ATOM     51  H   UNL     1     155.055 171.310 185.102  0.00  0.00    +0.033 HD
ATOM     52  H   UNL     1     156.422 172.056 185.889  0.00  0.00    +0.033 HD
BRANCH  50  53
ATOM     53  C   UNL     1     156.085 172.779 183.931  0.00  0.00    -0.046 A 
ATOM     54  C   UNL     1     157.063 173.782 183.979  0.00  0.00    -0.059 A 
ATOM     55  C   UNL     1     157.066 174.821 183.046  0.00  0.00    -0.062 A 
ATOM     56  C   UNL     1     156.083 174.876 182.061  0.00  0.00    -0.062 A 
ATOM     57  C   UNL     1     155.095 173.897 182.014  0.00  0.00    -0.062 A 
ATOM     58  C   UNL     1     155.093 172.857 182.945  0.00  0.00    -0.059 A 
ATOM     59  H   UNL     1     157.838 173.765 184.741  0.00  0.00    +0.062 HD
ATOM     60  H   UNL     1     157.838 175.585 183.085  0.00  0.00    +0.062 HD
ATOM     61  H   UNL     1     156.088 175.680 181.330  0.00  0.00    +0.062 HD
ATOM     62  H   UNL     1     154.330 173.930 181.243  0.00  0.00    +0.062 HD
ATOM     63  H   UNL     1     154.318 172.095 182.875  0.00  0.00    +0.062 HD
ENDBRANCH  50  53
ENDBRANCH  21  50
BRANCH  15  64
ATOM     64  O   UNL     1     163.476 173.152 183.648  0.00  0.00    -0.377 OA
ATOM     65  H   UNL     1     163.290 174.085 183.418  0.00  0.00    +0.211 HD
ENDBRANCH  15  64
BRANCH   6  66
ATOM     66  O   UNL     1     159.348 166.694 182.098  0.00  0.00    -0.387 OA
ATOM     67  H   UNL     1     160.304 166.549 182.210  0.00  0.00    +0.210 HD
ENDBRANCH   6  66
BRANCH  12  68
ATOM     68  O   UNL     1     159.450 171.584 181.094  0.00  0.00    -0.456 OA
BRANCH  68  69
ATOM     69  C   UNL     1     158.717 172.484 180.394  0.00  0.00    +0.305 C 
ATOM     70  O   UNL     1     159.000 173.655 180.199  0.00  0.00    -0.251 OA
BRANCH  69  71
ATOM     71  C   UNL     1     157.479 171.824 179.868  0.00  0.00    +0.033 C 
ATOM     72  H   UNL     1     156.831 171.525 180.696  0.00  0.00    +0.034 HD
ATOM     73  H   UNL     1     157.753 170.958 179.264  0.00  0.00    +0.034 HD
ATOM     74  H   UNL     1     156.925 172.537 179.250  0.00  0.00    +0.034 HD
ENDBRANCH  69  71
ENDBRANCH  68  69
ENDBRANCH  12  68
TORSDOF 10
ENDMDL
MODEL 5
REMARK VINA RESULT:      -6.7      2.680      7.419
REMARK  Name = Cytochalasin D_conf2
REMARK  10 active torsions:
REMARK  status: ('A' for Active; 'I' for Inactive)
REMARK    1  A    between atoms: C_1  and  C_2
REMARK    2  A    between atoms: C_7  and  O_37
REMARK    3  A    between atoms: C_10  and  C_36
REMARK    4  A    between atoms: C_13  and  O_21
REMARK    5  A    between atoms: C_16  and  C_19
REMARK    6  A    between atoms: C_16  and  O_20
REMARK    7  A    between atoms: O_21  and  C_22
REMARK    8  A    between atoms: C_22  and  C_24
REMARK    9  A    between atoms: C_28  and  C_29
REMARK   10  A    between atoms: C_29  and  C_30
REMARK                            x       y       z     vdW  Elec       q    Type
REMARK                         _______ _______ _______ _____ _____    ______ ____
ROOT
ATOM      1  C   UNL     1     150.849 166.451 193.936  0.00  0.00    +0.021 C 
ATOM      2  C   UNL     1     151.340 166.346 192.483  0.00  0.00    -0.025 C 
ATOM      3  C   UNL     1     150.488 167.138 191.524  0.00  0.00    -0.087 C 
ATOM      4  C   UNL     1     149.648 166.582 190.634  0.00  0.00    -0.081 C 
ATOM      5  C   UNL     1     148.774 167.373 189.661  0.00  0.00    +0.025 C 
ATOM      6  C   UNL     1     149.234 167.072 188.205  0.00  0.00    +0.084 C 
ATOM      7  C   UNL     1     148.380 167.744 187.148  0.00  0.00    -0.045 C 
ATOM      8  C   UNL     1     148.579 167.476 185.844  0.00  0.00    -0.097 C 
ATOM      9  C   UNL     1     147.326 168.690 187.687  0.00  0.00    -0.015 C 
ATOM     10  C   UNL     1     146.409 167.932 188.681  0.00  0.00    +0.002 C 
ATOM     11  C   UNL     1     147.216 167.192 189.834  0.00  0.00    +0.101 C 
ATOM     12  C   UNL     1     146.695 167.703 191.224  0.00  0.00    +0.136 C 
ATOM     13  C   UNL     1     147.033 166.826 192.415  0.00  0.00    -0.044 C 
ATOM     14  C   UNL     1     147.841 167.139 193.446  0.00  0.00    -0.046 C 
ATOM     15  C   UNL     1     148.274 166.204 194.546  0.00  0.00    +0.139 C 
ATOM     16  C   UNL     1     149.629 165.555 194.151  0.00  0.00    +0.171 C 
ATOM     17  O   UNL     1     149.708 164.327 194.011  0.00  0.00    -0.294 OA
ATOM     18  C   UNL     1     146.842 165.729 189.606  0.00  0.00    +0.224 C 
ATOM     19  O   UNL     1     147.272 164.751 190.196  0.00  0.00    -0.275 OA
ATOM     20  N   UNL     1     145.950 165.614 188.581  0.00  0.00    -0.311 N 
ATOM     21  C   UNL     1     145.540 166.850 187.993  0.00  0.00    +0.032 C 
ATOM     22  H   UNL     1     150.592 167.491 194.168  0.00  0.00    +0.038 HD
ATOM     23  H   UNL     1     152.361 166.739 192.406  0.00  0.00    +0.031 HD
ATOM     24  H   UNL     1     151.392 165.296 192.168  0.00  0.00    +0.031 HD
ATOM     25  H   UNL     1     150.573 168.222 191.581  0.00  0.00    +0.057 HD
ATOM     26  H   UNL     1     149.575 165.495 190.589  0.00  0.00    +0.057 HD
ATOM     27  H   UNL     1     149.007 168.433 189.844  0.00  0.00    +0.038 HD
ATOM     28  H   UNL     1     149.246 165.990 188.024  0.00  0.00    +0.065 HD
ATOM     29  H   UNL     1     148.000 167.932 185.050  0.00  0.00    +0.054 HD
ATOM     30  H   UNL     1     149.366 166.792 185.536  0.00  0.00    +0.054 HD
ATOM     31  H   UNL     1     147.855 169.472 188.252  0.00  0.00    +0.035 HD
ATOM     32  H   UNL     1     145.746 168.687 189.110  0.00  0.00    +0.034 HD
ATOM     33  H   UNL     1     145.602 167.765 191.213  0.00  0.00    +0.079 HD
ATOM     34  H   UNL     1     146.581 165.835 192.396  0.00  0.00    +0.061 HD
ATOM     35  H   UNL     1     148.298 168.125 193.470  0.00  0.00    +0.060 HD
ATOM     36  H   UNL     1     145.638 164.698 188.284  0.00  0.00    +0.149 HD
ATOM     37  H   UNL     1     145.792 166.757 186.931  0.00  0.00    +0.050 HD
ENDROOT
BRANCH   1  38
ATOM     38  C   UNL     1     151.943 166.013 194.910  0.00  0.00    -0.055 C 
ATOM     39  H   UNL     1     151.514 165.464 195.756  0.00  0.00    +0.024 HD
ATOM     40  H   UNL     1     152.479 166.880 195.307  0.00  0.00    +0.024 HD
ATOM     41  H   UNL     1     152.672 165.354 194.426  0.00  0.00    +0.024 HD
ENDBRANCH   1  38
BRANCH  15  42
ATOM     42  C   UNL     1     148.376 166.911 195.895  0.00  0.00    -0.025 C 
ATOM     43  H   UNL     1     147.509 166.673 196.521  0.00  0.00    +0.026 HD
ATOM     44  H   UNL     1     148.383 168.000 195.768  0.00  0.00    +0.026 HD
ATOM     45  H   UNL     1     149.276 166.627 196.451  0.00  0.00    +0.026 HD
ENDBRANCH  15  42
BRANCH   9  46
ATOM     46  C   UNL     1     146.505 169.461 186.641  0.00  0.00    -0.058 C 
ATOM     47  H   UNL     1     145.996 168.802 185.932  0.00  0.00    +0.024 HD
ATOM     48  H   UNL     1     147.148 170.137 186.067  0.00  0.00    +0.024 HD
ATOM     49  H   UNL     1     145.742 170.077 187.131  0.00  0.00    +0.024 HD
ENDBRANCH   9  46
BRANCH  21  50
ATOM     50  C   UNL     1     144.014 167.076 188.058  0.00  0.00    -0.009 C 
ATOM     51  H   UNL     1     143.760 167.945 187.439  0.00  0.00    +0.033 HD
ATOM     52  H   UNL     1     143.511 166.224 187.580  0.00  0.00    +0.033 HD
BRANCH  50  53
ATOM     53  C   UNL     1     143.405 167.240 189.431  0.00  0.00    -0.046 A 
ATOM     54  C   UNL     1     143.288 166.150 190.304  0.00  0.00    -0.059 A 
ATOM     55  C   UNL     1     142.738 166.312 191.577  0.00  0.00    -0.062 A 
ATOM     56  C   UNL     1     142.286 167.563 191.988  0.00  0.00    -0.062 A 
ATOM     57  C   UNL     1     142.378 168.650 191.124  0.00  0.00    -0.062 A 
ATOM     58  C   UNL     1     142.931 168.490 189.851  0.00  0.00    -0.059 A 
ATOM     59  H   UNL     1     143.628 165.162 190.006  0.00  0.00    +0.062 HD
ATOM     60  H   UNL     1     142.665 165.461 192.250  0.00  0.00    +0.062 HD
ATOM     61  H   UNL     1     141.864 167.691 192.981  0.00  0.00    +0.062 HD
ATOM     62  H   UNL     1     142.035 169.631 191.442  0.00  0.00    +0.062 HD
ATOM     63  H   UNL     1     143.007 169.360 189.203  0.00  0.00    +0.062 HD
ENDBRANCH  50  53
ENDBRANCH  21  50
BRANCH  15  64
ATOM     64  O   UNL     1     147.294 165.173 194.703  0.00  0.00    -0.377 OA
ATOM     65  H   UNL     1     146.572 165.397 194.080  0.00  0.00    +0.211 HD
ENDBRANCH  15  64
BRANCH   6  66
ATOM     66  O   UNL     1     150.565 167.564 188.014  0.00  0.00    -0.387 OA
ATOM     67  H   UNL     1     150.504 168.294 187.372  0.00  0.00    +0.210 HD
ENDBRANCH   6  66
BRANCH  12  68
ATOM     68  O   UNL     1     147.269 169.015 191.474  0.00  0.00    -0.456 OA
BRANCH  68  69
ATOM     69  C   UNL     1     146.607 170.123 191.060  0.00  0.00    +0.305 C 
ATOM     70  O   UNL     1     145.406 170.322 191.140  0.00  0.00    -0.251 OA
BRANCH  69  71
ATOM     71  C   UNL     1     147.581 171.104 190.481  0.00  0.00    +0.033 C 
ATOM     72  H   UNL     1     147.760 171.918 191.187  0.00  0.00    +0.034 HD
ATOM     73  H   UNL     1     147.193 171.493 189.538  0.00  0.00    +0.034 HD
ATOM     74  H   UNL     1     148.535 170.601 190.299  0.00  0.00    +0.034 HD
ENDBRANCH  69  71
ENDBRANCH  68  69
ENDBRANCH  12  68
TORSDOF 10
ENDMDL
MODEL 6
REMARK VINA RESULT:      -6.5      4.261      8.401
REMARK  Name = Cytochalasin D_conf2
REMARK  10 active torsions:
REMARK  status: ('A' for Active; 'I' for Inactive)
REMARK    1  A    between atoms: C_1  and  C_2
REMARK    2  A    between atoms: C_7  and  O_37
REMARK    3  A    between atoms: C_10  and  C_36
REMARK    4  A    between atoms: C_13  and  O_21
REMARK    5  A    between atoms: C_16  and  C_19
REMARK    6  A    between atoms: C_16  and  O_20
REMARK    7  A    between atoms: O_21  and  C_22
REMARK    8  A    between atoms: C_22  and  C_24
REMARK    9  A    between atoms: C_28  and  C_29
REMARK   10  A    between atoms: C_29  and  C_30
REMARK                            x       y       z     vdW  Elec       q    Type
REMARK                         _______ _______ _______ _____ _____    ______ ____
ROOT
ATOM      1  C   UNL     1     151.065 158.118 188.134  0.00  0.00    +0.021 C 
ATOM      2  C   UNL     1     150.085 159.137 187.530  0.00  0.00    -0.025 C 
ATOM      3  C   UNL     1     150.571 160.557 187.661  0.00  0.00    -0.087 C 
ATOM      4  C   UNL     1     150.031 161.458 188.500  0.00  0.00    -0.081 C 
ATOM      5  C   UNL     1     150.518 162.900 188.647  0.00  0.00    +0.025 C 
ATOM      6  C   UNL     1     149.396 163.867 188.170  0.00  0.00    +0.084 C 
ATOM      7  C   UNL     1     149.742 165.332 188.348  0.00  0.00    -0.045 C 
ATOM      8  C   UNL     1     148.820 166.281 188.099  0.00  0.00    -0.097 C 
ATOM      9  C   UNL     1     151.155 165.600 188.825  0.00  0.00    -0.015 C 
ATOM     10  C   UNL     1     151.403 164.849 190.158  0.00  0.00    +0.002 C 
ATOM     11  C   UNL     1     151.070 163.296 190.071  0.00  0.00    +0.101 C 
ATOM     12  C   UNL     1     152.349 162.481 190.478  0.00  0.00    +0.136 C 
ATOM     13  C   UNL     1     152.109 161.033 190.859  0.00  0.00    -0.044 C 
ATOM     14  C   UNL     1     152.539 159.940 190.199  0.00  0.00    -0.046 C 
ATOM     15  C   UNL     1     152.174 158.514 190.518  0.00  0.00    +0.139 C 
ATOM     16  C   UNL     1     150.945 158.105 189.659  0.00  0.00    +0.171 C 
ATOM     17  O   UNL     1     149.886 157.778 190.212  0.00  0.00    -0.294 OA
ATOM     18  C   UNL     1     149.962 163.143 191.110  0.00  0.00    +0.224 C 
ATOM     19  O   UNL     1     149.315 162.139 191.366  0.00  0.00    -0.275 OA
ATOM     20  N   UNL     1     149.722 164.329 191.738  0.00  0.00    -0.311 N 
ATOM     21  C   UNL     1     150.563 165.411 191.332  0.00  0.00    +0.032 C 
ATOM     22  H   UNL     1     152.091 158.371 187.844  0.00  0.00    +0.038 HD
ATOM     23  H   UNL     1     149.956 158.938 186.459  0.00  0.00    +0.031 HD
ATOM     24  H   UNL     1     149.090 159.030 187.983  0.00  0.00    +0.031 HD
ATOM     25  H   UNL     1     151.412 160.842 187.032  0.00  0.00    +0.057 HD
ATOM     26  H   UNL     1     149.188 161.158 189.122  0.00  0.00    +0.057 HD
ATOM     27  H   UNL     1     151.345 163.011 187.929  0.00  0.00    +0.038 HD
ATOM     28  H   UNL     1     148.457 163.651 188.696  0.00  0.00    +0.065 HD
ATOM     29  H   UNL     1     149.017 167.341 188.206  0.00  0.00    +0.054 HD
ATOM     30  H   UNL     1     147.828 166.007 187.747  0.00  0.00    +0.054 HD
ATOM     31  H   UNL     1     151.834 165.174 188.071  0.00  0.00    +0.035 HD
ATOM     32  H   UNL     1     152.461 164.995 190.389  0.00  0.00    +0.034 HD
ATOM     33  H   UNL     1     152.819 162.937 191.355  0.00  0.00    +0.079 HD
ATOM     34  H   UNL     1     151.502 160.890 191.752  0.00  0.00    +0.061 HD
ATOM     35  H   UNL     1     153.144 160.075 189.305  0.00  0.00    +0.060 HD
ATOM     36  H   UNL     1     148.983 164.396 192.428  0.00  0.00    +0.149 HD
ATOM     37  H   UNL     1     149.875 166.191 190.987  0.00  0.00    +0.050 HD
ENDROOT
BRANCH   1  38
ATOM     38  C   UNL     1     150.768 156.709 187.619  0.00  0.00    -0.055 C 
ATOM     39  H   UNL     1     151.189 155.952 188.291  0.00  0.00    +0.024 HD
ATOM     40  H   UNL     1     151.203 156.559 186.627  0.00  0.00    +0.024 HD
ATOM     41  H   UNL     1     149.690 156.525 187.551  0.00  0.00    +0.024 HD
ENDBRANCH   1  38
BRANCH  15  42
ATOM     42  C   UNL     1     153.342 157.557 190.294  0.00  0.00    -0.025 C 
ATOM     43  H   UNL     1     153.005 156.653 189.774  0.00  0.00    +0.026 HD
ATOM     44  H   UNL     1     153.770 157.228 191.249  0.00  0.00    +0.026 HD
ATOM     45  H   UNL     1     154.144 158.004 189.697  0.00  0.00    +0.026 HD
ENDBRANCH  15  42
BRANCH   9  46
ATOM     46  C   UNL     1     151.570 167.076 188.926  0.00  0.00    -0.058 C 
ATOM     47  H   UNL     1     151.104 167.591 189.771  0.00  0.00    +0.024 HD
ATOM     48  H   UNL     1     151.297 167.618 188.013  0.00  0.00    +0.024 HD
ATOM     49  H   UNL     1     152.656 167.162 189.041  0.00  0.00    +0.024 HD
ENDBRANCH   9  46
BRANCH  21  50
ATOM     50  C   UNL     1     151.367 166.025 192.497  0.00  0.00    -0.009 C 
ATOM     51  H   UNL     1     152.375 165.591 192.496  0.00  0.00    +0.033 HD
ATOM     52  H   UNL     1     151.514 167.095 192.298  0.00  0.00    +0.033 HD
BRANCH  50  53
ATOM     53  C   UNL     1     150.769 165.906 193.879  0.00  0.00    -0.046 A 
ATOM     54  C   UNL     1     149.518 166.464 194.175  0.00  0.00    -0.059 A 
ATOM     55  C   UNL     1     148.964 166.337 195.450  0.00  0.00    -0.062 A 
ATOM     56  C   UNL     1     149.659 165.662 196.449  0.00  0.00    -0.062 A 
ATOM     57  C   UNL     1     150.912 165.120 196.175  0.00  0.00    -0.062 A 
ATOM     58  C   UNL     1     151.466 165.244 194.899  0.00  0.00    -0.059 A 
ATOM     59  H   UNL     1     148.957 167.000 193.414  0.00  0.00    +0.062 HD
ATOM     60  H   UNL     1     147.986 166.762 195.663  0.00  0.00    +0.062 HD
ATOM     61  H   UNL     1     149.226 165.557 197.440  0.00  0.00    +0.062 HD
ATOM     62  H   UNL     1     151.456 164.584 196.948  0.00  0.00    +0.062 HD
ATOM     63  H   UNL     1     152.439 164.795 194.707  0.00  0.00    +0.062 HD
ENDBRANCH  50  53
ENDBRANCH  21  50
BRANCH  15  64
ATOM     64  O   UNL     1     151.827 158.412 191.902  0.00  0.00    -0.377 OA
ATOM     65  H   UNL     1     152.416 157.723 192.272  0.00  0.00    +0.211 HD
ENDBRANCH  15  64
BRANCH   6  66
ATOM     66  O   UNL     1     149.168 163.679 186.769  0.00  0.00    -0.387 OA
ATOM     67  H   UNL     1     150.027 163.798 186.328  0.00  0.00    +0.210 HD
ENDBRANCH   6  66
BRANCH  12  68
ATOM     68  O   UNL     1     153.271 162.488 189.354  0.00  0.00    -0.456 OA
BRANCH  68  69
ATOM     69  C   UNL     1     154.534 162.946 189.530  0.00  0.00    +0.305 C 
ATOM     70  O   UNL     1     155.426 162.393 190.154  0.00  0.00    -0.251 OA
BRANCH  69  71
ATOM     71  C   UNL     1     154.696 164.259 188.826  0.00  0.00    +0.033 C 
ATOM     72  H   UNL     1     155.703 164.651 188.988  0.00  0.00    +0.034 HD
ATOM     73  H   UNL     1     153.948 164.965 189.190  0.00  0.00    +0.034 HD
ATOM     74  H   UNL     1     154.562 164.111 187.751  0.00  0.00    +0.034 HD
ENDBRANCH  69  71
ENDBRANCH  68  69
ENDBRANCH  12  68
TORSDOF 10
ENDMDL
MODEL 7
REMARK VINA RESULT:      -6.4      2.676      7.480
REMARK  Name = Cytochalasin D_conf2
REMARK  10 active torsions:
REMARK  status: ('A' for Active; 'I' for Inactive)
REMARK    1  A    between atoms: C_1  and  C_2
REMARK    2  A    between atoms: C_7  and  O_37
REMARK    3  A    between atoms: C_10  and  C_36
REMARK    4  A    between atoms: C_13  and  O_21
REMARK    5  A    between atoms: C_16  and  C_19
REMARK    6  A    between atoms: C_16  and  O_20
REMARK    7  A    between atoms: O_21  and  C_22
REMARK    8  A    between atoms: C_22  and  C_24
REMARK    9  A    between atoms: C_28  and  C_29
REMARK   10  A    between atoms: C_29  and  C_30
REMARK                            x       y       z     vdW  Elec       q    Type
REMARK                         _______ _______ _______ _____ _____    ______ ____
ROOT
ATOM      1  C   UNL     1     154.090 165.268 186.634  0.00  0.00    +0.021 C 
ATOM      2  C   UNL     1     152.769 165.809 186.064  0.00  0.00    -0.025 C 
ATOM      3  C   UNL     1     151.971 166.583 187.081  0.00  0.00    -0.087 C 
ATOM      4  C   UNL     1     150.834 166.133 187.640  0.00  0.00    -0.081 C 
ATOM      5  C   UNL     1     150.019 166.905 188.678  0.00  0.00    +0.025 C 
ATOM      6  C   UNL     1     148.632 167.263 188.071  0.00  0.00    +0.084 C 
ATOM      7  C   UNL     1     147.705 167.962 189.046  0.00  0.00    -0.045 C 
ATOM      8  C   UNL     1     146.429 168.220 188.702  0.00  0.00    -0.097 C 
ATOM      9  C   UNL     1     148.330 168.309 190.382  0.00  0.00    -0.015 C 
ATOM     10  C   UNL     1     148.892 167.023 191.041  0.00  0.00    +0.002 C 
ATOM     11  C   UNL     1     149.881 166.217 190.092  0.00  0.00    +0.101 C 
ATOM     12  C   UNL     1     151.260 166.050 190.824  0.00  0.00    +0.136 C 
ATOM     13  C   UNL     1     152.169 164.968 190.272  0.00  0.00    -0.044 C 
ATOM     14  C   UNL     1     153.361 165.143 189.669  0.00  0.00    -0.046 C 
ATOM     15  C   UNL     1     154.182 164.069 189.005  0.00  0.00    +0.139 C 
ATOM     16  C   UNL     1     153.830 164.029 187.492  0.00  0.00    +0.171 C 
ATOM     17  O   UNL     1     153.341 163.003 186.999  0.00  0.00    -0.294 OA
ATOM     18  C   UNL     1     149.167 164.876 189.942  0.00  0.00    +0.224 C 
ATOM     19  O   UNL     1     149.495 163.933 189.239  0.00  0.00    -0.275 OA
ATOM     20  N   UNL     1     148.028 164.850 190.691  0.00  0.00    -0.311 N 
ATOM     21  C   UNL     1     147.782 166.027 191.461  0.00  0.00    +0.032 C 
ATOM     22  H   UNL     1     154.580 166.041 187.236  0.00  0.00    +0.038 HD
ATOM     23  H   UNL     1     152.976 166.492 185.231  0.00  0.00    +0.031 HD
ATOM     24  H   UNL     1     152.165 164.993 185.646  0.00  0.00    +0.031 HD
ATOM     25  H   UNL     1     152.364 167.557 187.368  0.00  0.00    +0.057 HD
ATOM     26  H   UNL     1     150.453 165.156 187.342  0.00  0.00    +0.057 HD
ATOM     27  H   UNL     1     150.547 167.859 188.823  0.00  0.00    +0.038 HD
ATOM     28  H   UNL     1     148.138 166.361 187.687  0.00  0.00    +0.065 HD
ATOM     29  H   UNL     1     145.728 168.720 189.360  0.00  0.00    +0.054 HD
ATOM     30  H   UNL     1     146.058 167.949 187.717  0.00  0.00    +0.054 HD
ATOM     31  H   UNL     1     149.180 168.976 190.175  0.00  0.00    +0.035 HD
ATOM     32  H   UNL     1     149.418 167.354 191.939  0.00  0.00    +0.034 HD
ATOM     33  H   UNL     1     151.096 165.781 191.873  0.00  0.00    +0.079 HD
ATOM     34  H   UNL     1     151.782 163.954 190.364  0.00  0.00    +0.061 HD
ATOM     35  H   UNL     1     153.753 166.153 189.571  0.00  0.00    +0.060 HD
ATOM     36  H   UNL     1     147.423 164.038 190.662  0.00  0.00    +0.149 HD
ATOM     37  H   UNL     1     146.795 166.377 191.138  0.00  0.00    +0.050 HD
ENDROOT
BRANCH   1  38
ATOM     38  C   UNL     1     155.047 164.877 185.508  0.00  0.00    -0.055 C 
ATOM     39  H   UNL     1     155.904 164.319 185.900  0.00  0.00    +0.024 HD
ATOM     40  H   UNL     1     155.428 165.766 184.996  0.00  0.00    +0.024 HD
ATOM     41  H   UNL     1     154.554 164.241 184.763  0.00  0.00    +0.024 HD
ENDBRANCH   1  38
BRANCH  15  42
ATOM     42  C   UNL     1     155.680 164.277 189.214  0.00  0.00    -0.025 C 
ATOM     43  H   UNL     1     155.870 164.770 190.174  0.00  0.00    +0.026 HD
ATOM     44  H   UNL     1     156.097 164.931 188.438  0.00  0.00    +0.026 HD
ATOM     45  H   UNL     1     156.241 163.337 189.206  0.00  0.00    +0.026 HD
ENDBRANCH  15  42
BRANCH   9  46
ATOM     46  C   UNL     1     147.449 169.103 191.360  0.00  0.00    -0.058 C 
ATOM     47  H   UNL     1     146.441 168.689 191.453  0.00  0.00    +0.024 HD
ATOM     48  H   UNL     1     147.354 170.145 191.036  0.00  0.00    +0.024 HD
ATOM     49  H   UNL     1     147.899 169.113 192.359  0.00  0.00    +0.024 HD
ENDBRANCH   9  46
BRANCH  21  50
ATOM     50  C   UNL     1     147.670 165.749 192.975  0.00  0.00    -0.009 C 
ATOM     51  H   UNL     1     147.082 166.552 193.438  0.00  0.00    +0.033 HD
ATOM     52  H   UNL     1     147.078 164.836 193.123  0.00  0.00    +0.033 HD
BRANCH  50  53
ATOM     53  C   UNL     1     148.963 165.570 193.735  0.00  0.00    -0.046 A 
ATOM     54  C   UNL     1     149.838 164.516 193.434  0.00  0.00    -0.059 A 
ATOM     55  C   UNL     1     151.039 164.365 194.130  0.00  0.00    -0.062 A 
ATOM     56  C   UNL     1     151.375 165.258 195.144  0.00  0.00    -0.062 A 
ATOM     57  C   UNL     1     150.507 166.297 195.466  0.00  0.00    -0.062 A 
ATOM     58  C   UNL     1     149.306 166.451 194.769  0.00  0.00    -0.059 A 
ATOM     59  H   UNL     1     149.597 163.803 192.650  0.00  0.00    +0.062 HD
ATOM     60  H   UNL     1     151.714 163.552 193.877  0.00  0.00    +0.062 HD
ATOM     61  H   UNL     1     152.312 165.145 195.682  0.00  0.00    +0.062 HD
ATOM     62  H   UNL     1     150.767 167.002 196.251  0.00  0.00    +0.062 HD
ATOM     63  H   UNL     1     148.655 167.283 195.031  0.00  0.00    +0.062 HD
ENDBRANCH  50  53
ENDBRANCH  21  50
BRANCH  15  64
ATOM     64  O   UNL     1     153.864 162.802 189.589  0.00  0.00    -0.377 OA
ATOM     65  H   UNL     1     154.129 162.870 190.529  0.00  0.00    +0.211 HD
ENDBRANCH  15  64
BRANCH   6  66
ATOM     66  O   UNL     1     148.810 168.166 186.974  0.00  0.00    -0.387 OA
ATOM     67  H   UNL     1     148.320 168.977 187.197  0.00  0.00    +0.210 HD
ENDBRANCH   6  66
BRANCH  12  68
ATOM     68  O   UNL     1     151.980 167.310 190.736  0.00  0.00    -0.456 OA
BRANCH  68  69
ATOM     69  C   UNL     1     152.034 168.124 191.818  0.00  0.00    +0.305 C 
ATOM     70  O   UNL     1     151.509 169.220 191.927  0.00  0.00    -0.251 OA
BRANCH  69  71
ATOM     71  C   UNL     1     152.843 167.473 192.898  0.00  0.00    +0.033 C 
ATOM     72  H   UNL     1     152.201 167.209 193.742  0.00  0.00    +0.034 HD
ATOM     73  H   UNL     1     153.638 168.149 193.219  0.00  0.00    +0.034 HD
ATOM     74  H   UNL     1     153.286 166.551 192.511  0.00  0.00    +0.034 HD
ENDBRANCH  69  71
ENDBRANCH  68  69
ENDBRANCH  12  68
TORSDOF 10
ENDMDL
MODEL 8
REMARK VINA RESULT:      -6.4     12.275     15.294
REMARK  Name = Cytochalasin D_conf2
REMARK  10 active torsions:
REMARK  status: ('A' for Active; 'I' for Inactive)
REMARK    1  A    between atoms: C_1  and  C_2
REMARK    2  A    between atoms: C_7  and  O_37
REMARK    3  A    between atoms: C_10  and  C_36
REMARK    4  A    between atoms: C_13  and  O_21
REMARK    5  A    between atoms: C_16  and  C_19
REMARK    6  A    between atoms: C_16  and  O_20
REMARK    7  A    between atoms: O_21  and  C_22
REMARK    8  A    between atoms: C_22  and  C_24
REMARK    9  A    between atoms: C_28  and  C_29
REMARK   10  A    between atoms: C_29  and  C_30
REMARK                            x       y       z     vdW  Elec       q    Type
REMARK                         _______ _______ _______ _____ _____    ______ ____
ROOT
ATOM      1  C   UNL     1     153.194 177.771 179.396  0.00  0.00    +0.021 C 
ATOM      2  C   UNL     1     152.340 176.508 179.203  0.00  0.00    -0.025 C 
ATOM      3  C   UNL     1     152.835 175.342 180.018  0.00  0.00    -0.087 C 
ATOM      4  C   UNL     1     153.445 174.265 179.491  0.00  0.00    -0.081 C 
ATOM      5  C   UNL     1     153.958 173.079 180.307  0.00  0.00    +0.025 C 
ATOM      6  C   UNL     1     153.147 171.808 179.921  0.00  0.00    +0.084 C 
ATOM      7  C   UNL     1     153.628 170.548 180.614  0.00  0.00    -0.045 C 
ATOM      8  C   UNL     1     153.106 169.352 180.284  0.00  0.00    -0.097 C 
ATOM      9  C   UNL     1     154.711 170.765 181.652  0.00  0.00    -0.015 C 
ATOM     10  C   UNL     1     155.919 171.483 180.997  0.00  0.00    +0.002 C 
ATOM     11  C   UNL     1     155.514 172.824 180.244  0.00  0.00    +0.101 C 
ATOM     12  C   UNL     1     156.350 174.012 180.842  0.00  0.00    +0.136 C 
ATOM     13  C   UNL     1     156.416 175.263 179.987  0.00  0.00    -0.044 C 
ATOM     14  C   UNL     1     155.894 176.471 180.279  0.00  0.00    -0.046 C 
ATOM     15  C   UNL     1     155.850 177.661 179.356  0.00  0.00    +0.139 C 
ATOM     16  C   UNL     1     154.494 177.660 178.597  0.00  0.00    +0.171 C 
ATOM     17  O   UNL     1     154.477 177.567 177.363  0.00  0.00    -0.294 OA
ATOM     18  C   UNL     1     155.927 172.526 178.805  0.00  0.00    +0.224 C 
ATOM     19  O   UNL     1     155.751 173.226 177.820  0.00  0.00    -0.275 OA
ATOM     20  N   UNL     1     156.515 171.299 178.717  0.00  0.00    -0.311 N 
ATOM     21  C   UNL     1     156.653 170.602 179.956  0.00  0.00    +0.032 C 
ATOM     22  H   UNL     1     153.422 177.908 180.459  0.00  0.00    +0.038 HD
ATOM     23  H   UNL     1     151.308 176.706 179.519  0.00  0.00    +0.031 HD
ATOM     24  H   UNL     1     152.287 176.236 178.141  0.00  0.00    +0.031 HD
ATOM     25  H   UNL     1     152.684 175.402 181.095  0.00  0.00    +0.057 HD
ATOM     26  H   UNL     1     153.588 174.219 178.412  0.00  0.00    +0.057 HD
ATOM     27  H   UNL     1     153.701 173.302 181.353  0.00  0.00    +0.038 HD
ATOM     28  H   UNL     1     153.172 171.654 178.835  0.00  0.00    +0.065 HD
ATOM     29  H   UNL     1     153.412 168.423 180.751  0.00  0.00    +0.054 HD
ATOM     30  H   UNL     1     152.322 169.281 179.534  0.00  0.00    +0.054 HD
ATOM     31  H   UNL     1     154.294 171.440 182.413  0.00  0.00    +0.035 HD
ATOM     32  H   UNL     1     156.611 171.704 181.813  0.00  0.00    +0.034 HD
ATOM     33  H   UNL     1     157.391 173.703 180.982  0.00  0.00    +0.079 HD
ATOM     34  H   UNL     1     156.922 175.138 179.031  0.00  0.00    +0.061 HD
ATOM     35  H   UNL     1     155.385 176.603 181.230  0.00  0.00    +0.060 HD
ATOM     36  H   UNL     1     156.807 170.942 177.814  0.00  0.00    +0.149 HD
ATOM     37  H   UNL     1     156.131 169.651 179.807  0.00  0.00    +0.050 HD
ENDROOT
BRANCH   1  38
ATOM     38  C   UNL     1     152.443 179.013 178.917  0.00  0.00    -0.055 C 
ATOM     39  H   UNL     1     152.938 179.927 179.263  0.00  0.00    +0.024 HD
ATOM     40  H   UNL     1     151.418 179.019 179.300  0.00  0.00    +0.024 HD
ATOM     41  H   UNL     1     152.397 179.058 177.823  0.00  0.00    +0.024 HD
ENDBRANCH   1  38
BRANCH  15  42
ATOM     42  C   UNL     1     156.060 178.976 180.103  0.00  0.00    -0.025 C 
ATOM     43  H   UNL     1     156.498 179.730 179.439  0.00  0.00    +0.026 HD
ATOM     44  H   UNL     1     156.762 178.847 180.936  0.00  0.00    +0.026 HD
ATOM     45  H   UNL     1     155.127 179.386 180.503  0.00  0.00    +0.026 HD
ENDBRANCH  15  42
BRANCH   9  46
ATOM     46  C   UNL     1     155.155 169.523 182.440  0.00  0.00    -0.058 C 
ATOM     47  H   UNL     1     155.249 169.713 183.513  0.00  0.00    +0.024 HD
ATOM     48  H   UNL     1     156.124 169.162 182.078  0.00  0.00    +0.024 HD
ATOM     49  H   UNL     1     154.435 168.708 182.308  0.00  0.00    +0.024 HD
ENDBRANCH   9  46
BRANCH  21  50
ATOM     50  C   UNL     1     158.117 170.246 180.293  0.00  0.00    -0.009 C 
ATOM     51  H   UNL     1     158.159 169.198 180.616  0.00  0.00    +0.033 HD
ATOM     52  H   UNL     1     158.710 170.287 179.369  0.00  0.00    +0.033 HD
BRANCH  50  53
ATOM     53  C   UNL     1     158.815 171.116 181.311  0.00  0.00    -0.046 A 
ATOM     54  C   UNL     1     158.773 170.803 182.678  0.00  0.00    -0.059 A 
ATOM     55  C   UNL     1     159.434 171.602 183.613  0.00  0.00    -0.062 A 
ATOM     56  C   UNL     1     160.134 172.731 183.195  0.00  0.00    -0.062 A 
ATOM     57  C   UNL     1     160.168 173.064 181.844  0.00  0.00    -0.062 A 
ATOM     58  C   UNL     1     159.509 172.264 180.907  0.00  0.00    -0.059 A 
ATOM     59  H   UNL     1     158.229 169.931 183.030  0.00  0.00    +0.062 HD
ATOM     60  H   UNL     1     159.405 171.341 184.667  0.00  0.00    +0.062 HD
ATOM     61  H   UNL     1     160.653 173.350 183.921  0.00  0.00    +0.062 HD
ATOM     62  H   UNL     1     160.719 173.939 181.511  0.00  0.00    +0.062 HD
ATOM     63  H   UNL     1     159.567 172.538 179.856  0.00  0.00    +0.062 HD
ENDBRANCH  50  53
ENDBRANCH  21  50
BRANCH  15  64
ATOM     64  O   UNL     1     156.914 177.561 178.404  0.00  0.00    -0.377 OA
ATOM     65  H   UNL     1     157.329 176.689 178.562  0.00  0.00    +0.211 HD
ENDBRANCH  15  64
BRANCH   6  66
ATOM     66  O   UNL     1     151.780 171.978 180.310  0.00  0.00    -0.387 OA
ATOM     67  H   UNL     1     151.465 171.109 180.614  0.00  0.00    +0.210 HD
ENDBRANCH   6  66
BRANCH  12  68
ATOM     68  O   UNL     1     155.763 174.387 182.118  0.00  0.00    -0.456 OA
BRANCH  68  69
ATOM     69  C   UNL     1     156.489 174.249 183.253  0.00  0.00    +0.305 C 
ATOM     70  O   UNL     1     157.525 174.833 183.527  0.00  0.00    -0.251 OA
BRANCH  69  71
ATOM     71  C   UNL     1     155.824 173.259 184.159  0.00  0.00    +0.033 C 
ATOM     72  H   UNL     1     156.574 172.645 184.663  0.00  0.00    +0.034 HD
ATOM     73  H   UNL     1     155.142 172.633 183.581  0.00  0.00    +0.034 HD
ATOM     74  H   UNL     1     155.258 173.795 184.927  0.00  0.00    +0.034 HD
ENDBRANCH  69  71
ENDBRANCH  68  69
ENDBRANCH  12  68
TORSDOF 10
ENDMDL
MODEL 9
REMARK VINA RESULT:      -6.4     17.355     19.572
REMARK  Name = Cytochalasin D_conf2
REMARK  10 active torsions:
REMARK  status: ('A' for Active; 'I' for Inactive)
REMARK    1  A    between atoms: C_1  and  C_2
REMARK    2  A    between atoms: C_7  and  O_37
REMARK    3  A    between atoms: C_10  and  C_36
REMARK    4  A    between atoms: C_13  and  O_21
REMARK    5  A    between atoms: C_16  and  C_19
REMARK    6  A    between atoms: C_16  and  O_20
REMARK    7  A    between atoms: O_21  and  C_22
REMARK    8  A    between atoms: C_22  and  C_24
REMARK    9  A    between atoms: C_28  and  C_29
REMARK   10  A    between atoms: C_29  and  C_30
REMARK                            x       y       z     vdW  Elec       q    Type
REMARK                         _______ _______ _______ _____ _____    ______ ____
ROOT
ATOM      1  C   UNL     1     131.691 164.160 201.693  0.00  0.00    +0.021 C 
ATOM      2  C   UNL     1     130.475 163.301 201.306  0.00  0.00    -0.025 C 
ATOM      3  C   UNL     1     130.848 161.874 201.000  0.00  0.00    -0.087 C 
ATOM      4  C   UNL     1     130.839 161.346 199.764  0.00  0.00    -0.081 C 
ATOM      5  C   UNL     1     131.221 159.902 199.438  0.00  0.00    +0.025 C 
ATOM      6  C   UNL     1     129.968 159.156 198.894  0.00  0.00    +0.084 C 
ATOM      7  C   UNL     1     130.252 157.732 198.461  0.00  0.00    -0.045 C 
ATOM      8  C   UNL     1     129.295 157.005 197.852  0.00  0.00    -0.097 C 
ATOM      9  C   UNL     1     131.655 157.242 198.757  0.00  0.00    -0.015 C 
ATOM     10  C   UNL     1     132.685 158.194 198.096  0.00  0.00    +0.002 C 
ATOM     11  C   UNL     1     132.471 159.719 198.493  0.00  0.00    +0.101 C 
ATOM     12  C   UNL     1     133.799 160.267 199.127  0.00  0.00    +0.136 C 
ATOM     13  C   UNL     1     133.927 161.778 199.175  0.00  0.00    -0.044 C 
ATOM     14  C   UNL     1     133.964 162.553 200.276  0.00  0.00    -0.046 C 
ATOM     15  C   UNL     1     133.952 164.059 200.299  0.00  0.00    +0.139 C 
ATOM     16  C   UNL     1     132.484 164.549 200.445  0.00  0.00    +0.171 C 
ATOM     17  O   UNL     1     131.973 165.241 199.554  0.00  0.00    -0.294 OA
ATOM     18  C   UNL     1     132.192 160.370 197.141  0.00  0.00    +0.224 C 
ATOM     19  O   UNL     1     131.886 161.533 196.925  0.00  0.00    -0.275 OA
ATOM     20  N   UNL     1     132.283 159.454 196.136  0.00  0.00    -0.311 N 
ATOM     21  C   UNL     1     132.652 158.137 196.549  0.00  0.00    +0.032 C 
ATOM     22  H   UNL     1     132.334 163.605 202.385  0.00  0.00    +0.038 HD
ATOM     23  H   UNL     1     129.759 163.276 202.137  0.00  0.00    +0.031 HD
ATOM     24  H   UNL     1     129.942 163.747 200.457  0.00  0.00    +0.031 HD
ATOM     25  H   UNL     1     131.142 161.256 201.847  0.00  0.00    +0.057 HD
ATOM     26  H   UNL     1     130.541 161.977 198.926  0.00  0.00    +0.057 HD
ATOM     27  H   UNL     1     131.462 159.433 200.403  0.00  0.00    +0.038 HD
ATOM     28  H   UNL     1     129.530 159.709 198.052  0.00  0.00    +0.065 HD
ATOM     29  H   UNL     1     129.445 155.982 197.527  0.00  0.00    +0.054 HD
ATOM     30  H   UNL     1     128.306 157.426 197.685  0.00  0.00    +0.054 HD
ATOM     31  H   UNL     1     131.793 157.307 199.846  0.00  0.00    +0.035 HD
ATOM     32  H   UNL     1     133.666 157.851 198.434  0.00  0.00    +0.034 HD
ATOM     33  H   UNL     1     134.660 159.923 198.546  0.00  0.00    +0.079 HD
ATOM     34  H   UNL     1     133.967 162.265 198.201  0.00  0.00    +0.061 HD
ATOM     35  H   UNL     1     133.922 162.074 201.252  0.00  0.00    +0.060 HD
ATOM     36  H   UNL     1     132.083 159.729 195.182  0.00  0.00    +0.149 HD
ATOM     37  H   UNL     1     131.841 157.490 196.195  0.00  0.00    +0.050 HD
ENDROOT
BRANCH   1  38
ATOM     38  C   UNL     1     131.246 165.443 202.396  0.00  0.00    -0.055 C 
ATOM     39  H   UNL     1     132.108 165.976 202.814  0.00  0.00    +0.024 HD
ATOM     40  H   UNL     1     130.558 165.218 203.216  0.00  0.00    +0.024 HD
ATOM     41  H   UNL     1     130.740 166.126 201.705  0.00  0.00    +0.024 HD
ENDBRANCH   1  38
BRANCH  15  42
ATOM     42  C   UNL     1     134.832 164.625 201.411  0.00  0.00    -0.025 C 
ATOM     43  H   UNL     1     135.598 165.289 200.995  0.00  0.00    +0.026 HD
ATOM     44  H   UNL     1     135.364 163.823 201.937  0.00  0.00    +0.026 HD
ATOM     45  H   UNL     1     134.261 165.197 202.150  0.00  0.00    +0.026 HD
ENDBRANCH  15  42
BRANCH   9  46
ATOM     46  C   UNL     1     131.948 155.773 198.418  0.00  0.00    -0.058 C 
ATOM     47  H   UNL     1     132.501 155.656 197.481  0.00  0.00    +0.024 HD
ATOM     48  H   UNL     1     131.017 155.203 198.330  0.00  0.00    +0.024 HD
ATOM     49  H   UNL     1     132.540 155.307 199.214  0.00  0.00    +0.024 HD
ENDBRANCH   9  46
BRANCH  21  50
ATOM     50  C   UNL     1     133.941 157.627 195.869  0.00  0.00    -0.009 C 
ATOM     51  H   UNL     1     133.664 157.016 195.001  0.00  0.00    +0.033 HD
ATOM     52  H   UNL     1     134.484 158.487 195.455  0.00  0.00    +0.033 HD
BRANCH  50  53
ATOM     53  C   UNL     1     134.914 156.861 196.735  0.00  0.00    -0.046 A 
ATOM     54  C   UNL     1     135.821 157.530 197.568  0.00  0.00    -0.059 A 
ATOM     55  C   UNL     1     136.707 156.816 198.377  0.00  0.00    -0.062 A 
ATOM     56  C   UNL     1     136.705 155.424 198.354  0.00  0.00    -0.062 A 
ATOM     57  C   UNL     1     135.823 154.747 197.517  0.00  0.00    -0.062 A 
ATOM     58  C   UNL     1     134.934 155.460 196.709  0.00  0.00    -0.059 A 
ATOM     59  H   UNL     1     135.846 158.616 197.601  0.00  0.00    +0.062 HD
ATOM     60  H   UNL     1     137.396 157.347 199.029  0.00  0.00    +0.062 HD
ATOM     61  H   UNL     1     137.390 154.867 198.988  0.00  0.00    +0.062 HD
ATOM     62  H   UNL     1     135.811 153.660 197.501  0.00  0.00    +0.062 HD
ATOM     63  H   UNL     1     134.243 154.905 196.078  0.00  0.00    +0.062 HD
ENDBRANCH  50  53
ENDBRANCH  21  50
BRANCH  15  64
ATOM     64  O   UNL     1     134.486 164.555 199.068  0.00  0.00    -0.377 OA
ATOM     65  H   UNL     1     135.387 164.875 199.280  0.00  0.00    +0.211 HD
ENDBRANCH  15  64
BRANCH   6  66
ATOM     66  O   UNL     1     128.979 159.070 199.925  0.00  0.00    -0.387 OA
ATOM     67  H   UNL     1     128.113 159.167 199.490  0.00  0.00    +0.210 HD
ENDBRANCH   6  66
BRANCH  12  68
ATOM     68  O   UNL     1     133.889 159.780 200.494  0.00  0.00    -0.456 OA
BRANCH  68  69
ATOM     69  C   UNL     1     134.919 158.974 200.848  0.00  0.00    +0.305 C 
ATOM     70  O   UNL     1     134.832 157.851 201.318  0.00  0.00    -0.251 OA
BRANCH  69  71
ATOM     71  C   UNL     1     136.218 159.666 200.569  0.00  0.00    +0.033 C 
ATOM     72  H   UNL     1     136.925 159.481 201.381  0.00  0.00    +0.034 HD
ATOM     73  H   UNL     1     136.046 160.736 200.447  0.00  0.00    +0.034 HD
ATOM     74  H   UNL     1     136.651 159.262 199.648  0.00  0.00    +0.034 HD
ENDBRANCH  69  71
ENDBRANCH  68  69
ENDBRANCH  12  68
TORSDOF 10
ENDMDL
MODEL 10
REMARK VINA RESULT:      -6.3     17.628     20.358
REMARK  Name = Cytochalasin D_conf2
REMARK  10 active torsions:
REMARK  status: ('A' for Active; 'I' for Inactive)
REMARK    1  A    between atoms: C_1  and  C_2
REMARK    2  A    between atoms: C_7  and  O_37
REMARK    3  A    between atoms: C_10  and  C_36
REMARK    4  A    between atoms: C_13  and  O_21
REMARK    5  A    between atoms: C_16  and  C_19
REMARK    6  A    between atoms: C_16  and  O_20
REMARK    7  A    between atoms: O_21  and  C_22
REMARK    8  A    between atoms: C_22  and  C_24
REMARK    9  A    between atoms: C_28  and  C_29
REMARK   10  A    between atoms: C_29  and  C_30
REMARK                            x       y       z     vdW  Elec       q    Type
REMARK                         _______ _______ _______ _____ _____    ______ ____
ROOT
ATOM      1  C   UNL     1     135.675 155.266 197.407  0.00  0.00    +0.021 C 
ATOM      2  C   UNL     1     134.813 155.937 196.325  0.00  0.00    -0.025 C 
ATOM      3  C   UNL     1     134.518 157.383 196.632  0.00  0.00    -0.087 C 
ATOM      4  C   UNL     1     133.309 157.836 197.006  0.00  0.00    -0.081 C 
ATOM      5  C   UNL     1     132.997 159.298 197.327  0.00  0.00    +0.025 C 
ATOM      6  C   UNL     1     131.986 159.844 196.277  0.00  0.00    +0.084 C 
ATOM      7  C   UNL     1     131.542 161.268 196.547  0.00  0.00    -0.045 C 
ATOM      8  C   UNL     1     130.575 161.830 195.797  0.00  0.00    -0.097 C 
ATOM      9  C   UNL     1     132.253 161.951 197.697  0.00  0.00    -0.015 C 
ATOM     10  C   UNL     1     132.081 161.107 198.987  0.00  0.00    +0.002 C 
ATOM     11  C   UNL     1     132.526 159.591 198.804  0.00  0.00    +0.101 C 
ATOM     12  C   UNL     1     133.626 159.255 199.872  0.00  0.00    +0.136 C 
ATOM     13  C   UNL     1     133.861 157.778 200.130  0.00  0.00    -0.044 C 
ATOM     14  C   UNL     1     134.977 157.076 199.856  0.00  0.00    -0.046 C 
ATOM     15  C   UNL     1     135.139 155.585 199.992  0.00  0.00    +0.139 C 
ATOM     16  C   UNL     1     134.819 154.917 198.626  0.00  0.00    +0.171 C 
ATOM     17  O   UNL     1     133.878 154.117 198.535  0.00  0.00    -0.294 OA
ATOM     18  C   UNL     1     131.229 158.836 199.088  0.00  0.00    +0.224 C 
ATOM     19  O   UNL     1     131.034 157.634 199.000  0.00  0.00    -0.275 OA
ATOM     20  N   UNL     1     130.233 159.701 199.433  0.00  0.00    -0.311 N 
ATOM     21  C   UNL     1     130.619 161.075 199.495  0.00  0.00    +0.032 C 
ATOM     22  H   UNL     1     136.488 155.937 197.705  0.00  0.00    +0.038 HD
ATOM     23  H   UNL     1     135.341 155.914 195.364  0.00  0.00    +0.031 HD
ATOM     24  H   UNL     1     133.880 155.381 196.174  0.00  0.00    +0.031 HD
ATOM     25  H   UNL     1     135.351 158.078 196.544  0.00  0.00    +0.057 HD
ATOM     26  H   UNL     1     132.485 157.128 197.089  0.00  0.00    +0.057 HD
ATOM     27  H   UNL     1     133.936 159.847 197.163  0.00  0.00    +0.038 HD
ATOM     28  H   UNL     1     131.103 159.195 196.223  0.00  0.00    +0.065 HD
ATOM     29  H   UNL     1     130.224 162.844 195.946  0.00  0.00    +0.054 HD
ATOM     30  H   UNL     1     130.120 161.276 194.979  0.00  0.00    +0.054 HD
ATOM     31  H   UNL     1     133.325 161.965 197.448  0.00  0.00    +0.035 HD
ATOM     32  H   UNL     1     132.701 161.593 199.744  0.00  0.00    +0.034 HD
ATOM     33  H   UNL     1     133.346 159.677 200.843  0.00  0.00    +0.079 HD
ATOM     34  H   UNL     1     133.011 157.249 200.560  0.00  0.00    +0.061 HD
ATOM     35  H   UNL     1     135.828 157.598 199.424  0.00  0.00    +0.060 HD
ATOM     36  H   UNL     1     129.300 159.351 199.612  0.00  0.00    +0.149 HD
ATOM     37  H   UNL     1     129.948 161.591 198.799  0.00  0.00    +0.050 HD
ENDROOT
BRANCH   1  38
ATOM     38  C   UNL     1     136.302 153.977 196.878  0.00  0.00    -0.055 C 
ATOM     39  H   UNL     1     136.032 153.123 197.511  0.00  0.00    +0.024 HD
ATOM     40  H   UNL     1     137.394 154.053 196.864  0.00  0.00    +0.024 HD
ATOM     41  H   UNL     1     135.963 153.752 195.861  0.00  0.00    +0.024 HD
ENDBRANCH   1  38
BRANCH  15  42
ATOM     42  C   UNL     1     136.535 155.199 200.476  0.00  0.00    -0.025 C 
ATOM     43  H   UNL     1     137.273 155.944 200.156  0.00  0.00    +0.026 HD
ATOM     44  H   UNL     1     136.849 154.241 200.046  0.00  0.00    +0.026 HD
ATOM     45  H   UNL     1     136.594 155.120 201.567  0.00  0.00    +0.026 HD
ENDBRANCH  15  42
BRANCH   9  46
ATOM     46  C   UNL     1     131.896 163.426 197.939  0.00  0.00    -0.058 C 
ATOM     47  H   UNL     1     131.294 163.574 198.840  0.00  0.00    +0.024 HD
ATOM     48  H   UNL     1     131.334 163.831 197.090  0.00  0.00    +0.024 HD
ATOM     49  H   UNL     1     132.805 164.028 198.042  0.00  0.00    +0.024 HD
ENDBRANCH   9  46
BRANCH  21  50
ATOM     50  C   UNL     1     130.378 161.711 200.881  0.00  0.00    -0.009 C 
ATOM     51  H   UNL     1     129.298 161.729 201.078  0.00  0.00    +0.033 HD
ATOM     52  H   UNL     1     130.800 161.049 201.650  0.00  0.00    +0.033 HD
BRANCH  50  53
ATOM     53  C   UNL     1     130.955 163.088 201.113  0.00  0.00    -0.046 A 
ATOM     54  C   UNL     1     132.231 163.251 201.671  0.00  0.00    -0.059 A 
ATOM     55  C   UNL     1     132.765 164.526 201.868  0.00  0.00    -0.062 A 
ATOM     56  C   UNL     1     132.026 165.653 201.521  0.00  0.00    -0.062 A 
ATOM     57  C   UNL     1     130.750 165.506 200.984  0.00  0.00    -0.062 A 
ATOM     58  C   UNL     1     130.216 164.231 200.784  0.00  0.00    -0.059 A 
ATOM     59  H   UNL     1     132.826 162.388 201.955  0.00  0.00    +0.062 HD
ATOM     60  H   UNL     1     133.761 164.639 202.289  0.00  0.00    +0.062 HD
ATOM     61  H   UNL     1     132.443 166.646 201.668  0.00  0.00    +0.062 HD
ATOM     62  H   UNL     1     130.171 166.382 200.703  0.00  0.00    +0.062 HD
ATOM     63  H   UNL     1     129.223 164.145 200.346  0.00  0.00    +0.062 HD
ENDBRANCH  50  53
ENDBRANCH  21  50
BRANCH  15  64
ATOM     64  O   UNL     1     134.220 155.096 200.974  0.00  0.00    -0.377 OA
ATOM     65  H   UNL     1     133.366 155.532 200.776  0.00  0.00    +0.211 HD
ENDBRANCH  15  64
BRANCH   6  66
ATOM     66  O   UNL     1     132.601 159.857 194.985  0.00  0.00    -0.387 OA
ATOM     67  H   UNL     1     133.349 160.478 195.037  0.00  0.00    +0.210 HD
ENDBRANCH   6  66
BRANCH  12  68
ATOM     68  O   UNL     1     134.887 159.823 199.424  0.00  0.00    -0.456 OA
BRANCH  68  69
ATOM     69  C   UNL     1     135.490 160.781 200.169  0.00  0.00    +0.305 C 
ATOM     70  O   UNL     1     136.394 161.517 199.810  0.00  0.00    -0.251 OA
BRANCH  69  71
ATOM     71  C   UNL     1     134.872 160.820 201.534  0.00  0.00    +0.033 C 
ATOM     72  H   UNL     1     134.075 160.076 201.608  0.00  0.00    +0.034 HD
ATOM     73  H   UNL     1     134.482 161.820 201.731  0.00  0.00    +0.034 HD
ATOM     74  H   UNL     1     135.632 160.574 202.282  0.00  0.00    +0.034 HD
ENDBRANCH  69  71
ENDBRANCH  68  69
ENDBRANCH  12  68
TORSDOF 10
ENDMDL
