MODEL 1
REMARK VINA RESULT:      -7.2      0.000      0.000
REMARK  Name = Cytochalasin D_conf3
REMARK  10 active torsions:
REMARK  status: ('A' for Active; 'I' for Inactive)
REMARK    1  A    between atoms: C_1  and  C_2
REMARK    2  A    between atoms: C_7  and  O_37
REMARK    3  A    between atoms: C_10  and  C_36
REMARK    4  A    between atoms: C_13  and  O_21
REMARK    5  A    between atoms: C_16  and  C_19
REMARK    6  A    between atoms: C_16  and  O_20
REMARK    7  A    between atoms: O_21  and  C_22
REMARK    8  A    between atoms: C_22  and  C_24
REMARK    9  A    between atoms: C_28  and  C_29
REMARK   10  A    between atoms: C_29  and  C_30
REMARK                            x       y       z     vdW  Elec       q    Type
REMARK                         _______ _______ _______ _____ _____    ______ ____
ROOT
ATOM      1  C   UNL     1     152.489 161.438 189.074  0.00  0.00    +0.021 C 
ATOM      2  C   UNL     1     152.736 162.089 190.444  0.00  0.00    -0.025 C 
ATOM      3  C   UNL     1     151.567 162.855 191.007  0.00  0.00    -0.087 C 
ATOM      4  C   UNL     1     151.698 164.081 191.548  0.00  0.00    -0.081 C 
ATOM      5  C   UNL     1     150.551 164.947 192.070  0.00  0.00    +0.025 C 
ATOM      6  C   UNL     1     150.680 165.006 193.625  0.00  0.00    +0.084 C 
ATOM      7  C   UNL     1     149.812 166.061 194.269  0.00  0.00    -0.045 C 
ATOM      8  C   UNL     1     150.089 166.525 195.500  0.00  0.00    -0.097 C 
ATOM      9  C   UNL     1     148.670 166.525 193.396  0.00  0.00    -0.015 C 
ATOM     10  C   UNL     1     149.243 167.220 192.131  0.00  0.00    +0.002 C 
ATOM     11  C   UNL     1     150.420 166.387 191.443  0.00  0.00    +0.101 C 
ATOM     12  C   UNL     1     150.213 166.411 189.889  0.00  0.00    +0.136 C 
ATOM     13  C   UNL     1     151.285 165.702 189.082  0.00  0.00    -0.044 C 
ATOM     14  C   UNL     1     151.100 164.613 188.311  0.00  0.00    -0.046 C 
ATOM     15  C   UNL     1     152.155 163.719 187.687  0.00  0.00    +0.139 C 
ATOM     16  C   UNL     1     151.719 162.262 188.041  0.00  0.00    +0.171 C 
ATOM     17  O   UNL     1     150.726 161.750 187.500  0.00  0.00    -0.294 OA
ATOM     18  C   UNL     1     151.642 167.234 191.771  0.00  0.00    +0.224 C 
ATOM     19  O   UNL     1     152.812 166.923 191.619  0.00  0.00    -0.275 OA
ATOM     20  N   UNL     1     151.254 168.450 192.254  0.00  0.00    -0.311 N 
ATOM     21  C   UNL     1     149.835 168.627 192.397  0.00  0.00    +0.032 C 
ATOM     22  H   UNL     1     151.850 160.562 189.264  0.00  0.00    +0.038 HD
ATOM     23  H   UNL     1     153.627 162.726 190.405  0.00  0.00    +0.031 HD
ATOM     24  H   UNL     1     152.980 161.291 191.159  0.00  0.00    +0.031 HD
ATOM     25  H   UNL     1     150.585 162.390 190.941  0.00  0.00    +0.057 HD
ATOM     26  H   UNL     1     152.697 164.509 191.631  0.00  0.00    +0.057 HD
ATOM     27  H   UNL     1     149.623 164.407 191.830  0.00  0.00    +0.038 HD
ATOM     28  H   UNL     1     151.726 165.167 193.918  0.00  0.00    +0.065 HD
ATOM     29  H   UNL     1     150.928 166.131 196.068  0.00  0.00    +0.054 HD
ATOM     30  H   UNL     1     149.490 167.283 195.992  0.00  0.00    +0.054 HD
ATOM     31  H   UNL     1     148.146 165.619 193.059  0.00  0.00    +0.035 HD
ATOM     32  H   UNL     1     148.393 167.314 191.448  0.00  0.00    +0.034 HD
ATOM     33  H   UNL     1     150.221 167.454 189.551  0.00  0.00    +0.079 HD
ATOM     34  H   UNL     1     152.287 166.108 189.203  0.00  0.00    +0.061 HD
ATOM     35  H   UNL     1     150.082 164.243 188.171  0.00  0.00    +0.060 HD
ATOM     36  H   UNL     1     151.951 169.131 192.535  0.00  0.00    +0.149 HD
ATOM     37  H   UNL     1     149.686 168.952 193.430  0.00  0.00    +0.050 HD
ENDROOT
BRANCH   1  38
ATOM     38  C   UNL     1     153.783 160.908 188.461  0.00  0.00    -0.055 C 
ATOM     39  H   UNL     1     153.637 159.903 188.050  0.00  0.00    +0.024 HD
ATOM     40  H   UNL     1     154.574 160.853 189.216  0.00  0.00    +0.024 HD
ATOM     41  H   UNL     1     154.140 161.547 187.647  0.00  0.00    +0.024 HD
ENDBRANCH   1  38
BRANCH  15  42
ATOM     42  C   UNL     1     152.145 163.877 186.166  0.00  0.00    -0.025 C 
ATOM     43  H   UNL     1     152.665 164.784 185.836  0.00  0.00    +0.026 HD
ATOM     44  H   UNL     1     151.116 163.927 185.792  0.00  0.00    +0.026 HD
ATOM     45  H   UNL     1     152.616 163.016 185.678  0.00  0.00    +0.026 HD
ENDBRANCH  15  42
BRANCH   9  46
ATOM     46  C   UNL     1     147.575 167.345 194.090  0.00  0.00    -0.058 C 
ATOM     47  H   UNL     1     147.661 167.256 195.178  0.00  0.00    +0.024 HD
ATOM     48  H   UNL     1     146.564 167.040 193.806  0.00  0.00    +0.024 HD
ATOM     49  H   UNL     1     147.677 168.408 193.842  0.00  0.00    +0.024 HD
ENDBRANCH   9  46
BRANCH  21  50
ATOM     50  C   UNL     1     149.330 169.725 191.439  0.00  0.00    -0.009 C 
ATOM     51  H   UNL     1     150.124 169.980 190.723  0.00  0.00    +0.033 HD
ATOM     52  H   UNL     1     148.504 169.349 190.824  0.00  0.00    +0.033 HD
BRANCH  50  53
ATOM     53  C   UNL     1     148.921 170.999 192.139  0.00  0.00    -0.046 A 
ATOM     54  C   UNL     1     147.601 171.461 192.061  0.00  0.00    -0.059 A 
ATOM     55  C   UNL     1     147.220 172.632 192.717  0.00  0.00    -0.062 A 
ATOM     56  C   UNL     1     148.155 173.358 193.452  0.00  0.00    -0.062 A 
ATOM     57  C   UNL     1     149.474 172.916 193.524  0.00  0.00    -0.062 A 
ATOM     58  C   UNL     1     149.857 171.746 192.868  0.00  0.00    -0.059 A 
ATOM     59  H   UNL     1     146.858 170.917 191.480  0.00  0.00    +0.062 HD
ATOM     60  H   UNL     1     146.193 172.983 192.647  0.00  0.00    +0.062 HD
ATOM     61  H   UNL     1     147.857 174.271 193.959  0.00  0.00    +0.062 HD
ATOM     62  H   UNL     1     150.207 173.487 194.089  0.00  0.00    +0.062 HD
ATOM     63  H   UNL     1     150.894 171.422 192.930  0.00  0.00    +0.062 HD
ENDBRANCH  50  53
ENDBRANCH  21  50
BRANCH  15  64
ATOM     64  O   UNL     1     153.458 164.068 188.121  0.00  0.00    -0.377 OA
ATOM     65  H   UNL     1     153.729 164.873 187.652  0.00  0.00    +0.211 HD
ENDBRANCH  15  64
BRANCH   6  66
ATOM     66  O   UNL     1     150.263 163.754 194.175  0.00  0.00    -0.387 OA
ATOM     67  H   UNL     1     149.830 163.263 193.456  0.00  0.00    +0.210 HD
ENDBRANCH   6  66
BRANCH  12  68
ATOM     68  O   UNL     1     148.934 165.793 189.612  0.00  0.00    -0.456 OA
BRANCH  68  69
ATOM     69  C   UNL     1     148.020 166.535 188.932  0.00  0.00    +0.305 C 
ATOM     70  O   UNL     1     148.255 167.255 187.973  0.00  0.00    -0.251 OA
BRANCH  69  71
ATOM     71  C   UNL     1     146.666 166.366 189.551  0.00  0.00    +0.033 C 
ATOM     72  H   UNL     1     145.897 166.554 188.798  0.00  0.00    +0.034 HD
ATOM     73  H   UNL     1     146.550 165.343 189.917  0.00  0.00    +0.034 HD
ATOM     74  H   UNL     1     146.541 167.083 190.368  0.00  0.00    +0.034 HD
ENDBRANCH  69  71
ENDBRANCH  68  69
ENDBRANCH  12  68
TORSDOF 10
ENDMDL
MODEL 2
REMARK VINA RESULT:      -6.9      6.306      9.827
REMARK  Name = Cytochalasin D_conf3
REMARK  10 active torsions:
REMARK  status: ('A' for Active; 'I' for Inactive)
REMARK    1  A    between atoms: C_1  and  C_2
REMARK    2  A    between atoms: C_7  and  O_37
REMARK    3  A    between atoms: C_10  and  C_36
REMARK    4  A    between atoms: C_13  and  O_21
REMARK    5  A    between atoms: C_16  and  C_19
REMARK    6  A    between atoms: C_16  and  O_20
REMARK    7  A    between atoms: O_21  and  C_22
REMARK    8  A    between atoms: C_22  and  C_24
REMARK    9  A    between atoms: C_28  and  C_29
REMARK   10  A    between atoms: C_29  and  C_30
REMARK                            x       y       z     vdW  Elec       q    Type
REMARK                         _______ _______ _______ _____ _____    ______ ____
ROOT
ATOM      1  C   UNL     1     148.920 170.790 192.133  0.00  0.00    +0.021 C 
ATOM      2  C   UNL     1     148.199 172.084 191.725  0.00  0.00    -0.025 C 
ATOM      3  C   UNL     1     146.739 172.146 192.094  0.00  0.00    -0.087 C 
ATOM      4  C   UNL     1     145.791 172.559 191.233  0.00  0.00    -0.081 C 
ATOM      5  C   UNL     1     144.287 172.577 191.510  0.00  0.00    +0.025 C 
ATOM      6  C   UNL     1     143.852 174.072 191.627  0.00  0.00    +0.084 C 
ATOM      7  C   UNL     1     142.356 174.276 191.598  0.00  0.00    -0.045 C 
ATOM      8  C   UNL     1     141.828 175.470 191.275  0.00  0.00    -0.097 C 
ATOM      9  C   UNL     1     141.567 173.032 191.931  0.00  0.00    -0.015 C 
ATOM     10  C   UNL     1     141.829 171.954 190.844  0.00  0.00    +0.002 C 
ATOM     11  C   UNL     1     143.378 171.785 190.496  0.00  0.00    +0.101 C 
ATOM     12  C   UNL     1     143.704 170.256 190.376  0.00  0.00    +0.136 C 
ATOM     13  C   UNL     1     145.136 169.927 189.996  0.00  0.00    -0.044 C 
ATOM     14  C   UNL     1     146.024 169.265 190.763  0.00  0.00    -0.046 C 
ATOM     15  C   UNL     1     147.519 169.124 190.553  0.00  0.00    +0.139 C 
ATOM     16  C   UNL     1     148.163 169.477 191.931  0.00  0.00    +0.171 C 
ATOM     17  O   UNL     1     148.056 168.703 192.894  0.00  0.00    -0.294 OA
ATOM     18  C   UNL     1     143.459 172.397 189.104  0.00  0.00    +0.224 C 
ATOM     19  O   UNL     1     144.472 172.671 188.481  0.00  0.00    -0.275 OA
ATOM     20  N   UNL     1     142.204 172.588 188.602  0.00  0.00    -0.311 N 
ATOM     21  C   UNL     1     141.130 172.239 189.490  0.00  0.00    +0.032 C 
ATOM     22  H   UNL     1     149.074 170.858 193.222  0.00  0.00    +0.038 HD
ATOM     23  H   UNL     1     148.329 172.267 190.652  0.00  0.00    +0.031 HD
ATOM     24  H   UNL     1     148.700 172.924 192.226  0.00  0.00    +0.031 HD
ATOM     25  H   UNL     1     146.461 171.815 193.094  0.00  0.00    +0.057 HD
ATOM     26  H   UNL     1     146.100 172.914 190.250  0.00  0.00    +0.057 HD
ATOM     27  H   UNL     1     144.150 172.110 192.497  0.00  0.00    +0.038 HD
ATOM     28  H   UNL     1     144.316 174.671 190.831  0.00  0.00    +0.065 HD
ATOM     29  H   UNL     1     142.468 176.321 191.056  0.00  0.00    +0.054 HD
ATOM     30  H   UNL     1     140.759 175.651 191.243  0.00  0.00    +0.054 HD
ATOM     31  H   UNL     1     141.975 172.646 192.876  0.00  0.00    +0.035 HD
ATOM     32  H   UNL     1     141.429 171.024 191.263  0.00  0.00    +0.034 HD
ATOM     33  H   UNL     1     143.076 169.825 189.588  0.00  0.00    +0.079 HD
ATOM     34  H   UNL     1     145.452 170.323 189.032  0.00  0.00    +0.061 HD
ATOM     35  H   UNL     1     145.679 168.844 191.709  0.00  0.00    +0.060 HD
ATOM     36  H   UNL     1     142.082 173.002 187.684  0.00  0.00    +0.149 HD
ATOM     37  H   UNL     1     140.489 173.123 189.532  0.00  0.00    +0.050 HD
ENDROOT
BRANCH   1  38
ATOM     38  C   UNL     1     150.308 170.697 191.504  0.00  0.00    -0.055 C 
ATOM     39  H   UNL     1     151.051 171.220 192.117  0.00  0.00    +0.024 HD
ATOM     40  H   UNL     1     150.312 171.148 190.507  0.00  0.00    +0.024 HD
ATOM     41  H   UNL     1     150.640 169.658 191.403  0.00  0.00    +0.024 HD
ENDBRANCH   1  38
BRANCH  15  42
ATOM     42  C   UNL     1     147.867 167.676 190.206  0.00  0.00    -0.025 C 
ATOM     43  H   UNL     1     148.261 167.122 191.066  0.00  0.00    +0.026 HD
ATOM     44  H   UNL     1     148.622 167.642 189.412  0.00  0.00    +0.026 HD
ATOM     45  H   UNL     1     146.988 167.140 189.827  0.00  0.00    +0.026 HD
ENDBRANCH  15  42
BRANCH   9  46
ATOM     46  C   UNL     1     140.076 173.234 192.232  0.00  0.00    -0.058 C 
ATOM     47  H   UNL     1     139.781 174.269 192.029  0.00  0.00    +0.024 HD
ATOM     48  H   UNL     1     139.811 173.006 193.268  0.00  0.00    +0.024 HD
ATOM     49  H   UNL     1     139.465 172.590 191.589  0.00  0.00    +0.024 HD
ENDBRANCH   9  46
BRANCH  21  50
ATOM     50  C   UNL     1     140.325 171.052 188.923  0.00  0.00    -0.009 C 
ATOM     51  H   UNL     1     140.258 171.145 187.830  0.00  0.00    +0.033 HD
ATOM     52  H   UNL     1     140.857 170.109 189.094  0.00  0.00    +0.033 HD
BRANCH  50  53
ATOM     53  C   UNL     1     138.917 170.963 189.461  0.00  0.00    -0.046 A 
ATOM     54  C   UNL     1     137.870 171.641 188.825  0.00  0.00    -0.059 A 
ATOM     55  C   UNL     1     136.565 171.550 189.315  0.00  0.00    -0.062 A 
ATOM     56  C   UNL     1     136.296 170.786 190.447  0.00  0.00    -0.062 A 
ATOM     57  C   UNL     1     137.333 170.119 191.097  0.00  0.00    -0.062 A 
ATOM     58  C   UNL     1     138.637 170.210 190.610  0.00  0.00    -0.059 A 
ATOM     59  H   UNL     1     138.060 172.256 187.947  0.00  0.00    +0.062 HD
ATOM     60  H   UNL     1     135.760 172.083 188.814  0.00  0.00    +0.062 HD
ATOM     61  H   UNL     1     135.282 170.718 190.829  0.00  0.00    +0.062 HD
ATOM     62  H   UNL     1     137.125 169.530 191.987  0.00  0.00    +0.062 HD
ATOM     63  H   UNL     1     139.434 169.688 191.136  0.00  0.00    +0.062 HD
ENDBRANCH  50  53
ENDBRANCH  21  50
BRANCH  15  64
ATOM     64  O   UNL     1     147.972 169.917 189.469  0.00  0.00    -0.377 OA
ATOM     65  H   UNL     1     148.155 170.811 189.801  0.00  0.00    +0.211 HD
ENDBRANCH  15  64
BRANCH   6  66
ATOM     66  O   UNL     1     144.302 174.593 192.880  0.00  0.00    -0.387 OA
ATOM     67  H   UNL     1     145.219 174.288 192.996  0.00  0.00    +0.210 HD
ENDBRANCH   6  66
BRANCH  12  68
ATOM     68  O   UNL     1     143.410 169.648 191.656  0.00  0.00    -0.456 OA
BRANCH  68  69
ATOM     69  C   UNL     1     142.589 168.565 191.655  0.00  0.00    +0.305 C 
ATOM     70  O   UNL     1     141.650 168.380 190.894  0.00  0.00    -0.251 OA
BRANCH  69  71
ATOM     71  C   UNL     1     142.982 167.627 192.755  0.00  0.00    +0.033 C 
ATOM     72  H   UNL     1     143.604 166.827 192.344  0.00  0.00    +0.034 HD
ATOM     73  H   UNL     1     143.563 168.163 193.510  0.00  0.00    +0.034 HD
ATOM     74  H   UNL     1     142.088 167.184 193.201  0.00  0.00    +0.034 HD
ENDBRANCH  69  71
ENDBRANCH  68  69
ENDBRANCH  12  68
TORSDOF 10
ENDMDL
MODEL 3
REMARK VINA RESULT:      -6.7     18.482     20.138
REMARK  Name = Cytochalasin D_conf3
REMARK  10 active torsions:
REMARK  status: ('A' for Active; 'I' for Inactive)
REMARK    1  A    between atoms: C_1  and  C_2
REMARK    2  A    between atoms: C_7  and  O_37
REMARK    3  A    between atoms: C_10  and  C_36
REMARK    4  A    between atoms: C_13  and  O_21
REMARK    5  A    between atoms: C_16  and  C_19
REMARK    6  A    between atoms: C_16  and  O_20
REMARK    7  A    between atoms: O_21  and  C_22
REMARK    8  A    between atoms: C_22  and  C_24
REMARK    9  A    between atoms: C_28  and  C_29
REMARK   10  A    between atoms: C_29  and  C_30
REMARK                            x       y       z     vdW  Elec       q    Type
REMARK                         _______ _______ _______ _____ _____    ______ ____
ROOT
ATOM      1  C   UNL     1     134.357 155.839 196.176  0.00  0.00    +0.021 C 
ATOM      2  C   UNL     1     133.125 156.731 195.956  0.00  0.00    -0.025 C 
ATOM      3  C   UNL     1     133.332 158.191 196.262  0.00  0.00    -0.087 C 
ATOM      4  C   UNL     1     132.451 158.913 196.980  0.00  0.00    -0.081 C 
ATOM      5  C   UNL     1     132.629 160.375 197.392  0.00  0.00    +0.025 C 
ATOM      6  C   UNL     1     131.599 161.219 196.577  0.00  0.00    +0.084 C 
ATOM      7  C   UNL     1     131.433 162.633 197.081  0.00  0.00    -0.045 C 
ATOM      8  C   UNL     1     130.333 163.347 196.785  0.00  0.00    -0.097 C 
ATOM      9  C   UNL     1     132.582 163.111 197.936  0.00  0.00    -0.015 C 
ATOM     10  C   UNL     1     132.654 162.249 199.226  0.00  0.00    +0.002 C 
ATOM     11  C   UNL     1     132.540 160.683 198.935  0.00  0.00    +0.101 C 
ATOM     12  C   UNL     1     133.593 159.929 199.818  0.00  0.00    +0.136 C 
ATOM     13  C   UNL     1     133.577 158.416 199.694  0.00  0.00    -0.044 C 
ATOM     14  C   UNL     1     134.580 157.654 199.217  0.00  0.00    -0.046 C 
ATOM     15  C   UNL     1     134.538 156.185 198.837  0.00  0.00    +0.139 C 
ATOM     16  C   UNL     1     135.198 156.108 197.425  0.00  0.00    +0.171 C 
ATOM     17  O   UNL     1     136.419 156.281 197.287  0.00  0.00    -0.294 OA
ATOM     18  C   UNL     1     131.153 160.360 199.473  0.00  0.00    +0.224 C 
ATOM     19  O   UNL     1     130.528 159.323 199.317  0.00  0.00    -0.275 OA
ATOM     20  N   UNL     1     130.679 161.408 200.208  0.00  0.00    -0.311 N 
ATOM     21  C   UNL     1     131.537 162.559 200.256  0.00  0.00    +0.032 C 
ATOM     22  H   UNL     1     135.035 156.043 195.333  0.00  0.00    +0.038 HD
ATOM     23  H   UNL     1     132.270 156.340 196.520  0.00  0.00    +0.031 HD
ATOM     24  H   UNL     1     132.836 156.654 194.899  0.00  0.00    +0.031 HD
ATOM     25  H   UNL     1     134.248 158.654 195.899  0.00  0.00    +0.057 HD
ATOM     26  H   UNL     1     131.528 158.433 197.305  0.00  0.00    +0.057 HD
ATOM     27  H   UNL     1     133.637 160.667 197.064  0.00  0.00    +0.038 HD
ATOM     28  H   UNL     1     130.620 160.721 196.562  0.00  0.00    +0.065 HD
ATOM     29  H   UNL     1     129.552 162.931 196.153  0.00  0.00    +0.054 HD
ATOM     30  H   UNL     1     130.180 164.363 197.131  0.00  0.00    +0.054 HD
ATOM     31  H   UNL     1     133.501 162.915 197.364  0.00  0.00    +0.035 HD
ATOM     32  H   UNL     1     133.625 162.484 199.673  0.00  0.00    +0.034 HD
ATOM     33  H   UNL     1     133.387 160.147 200.872  0.00  0.00    +0.079 HD
ATOM     34  H   UNL     1     132.637 157.948 199.978  0.00  0.00    +0.061 HD
ATOM     35  H   UNL     1     135.528 158.136 198.973  0.00  0.00    +0.060 HD
ATOM     36  H   UNL     1     129.757 161.359 200.628  0.00  0.00    +0.149 HD
ATOM     37  H   UNL     1     130.911 163.401 199.947  0.00  0.00    +0.050 HD
ENDROOT
BRANCH   1  38
ATOM     38  C   UNL     1     134.000 154.356 196.096  0.00  0.00    -0.055 C 
ATOM     39  H   UNL     1     132.926 154.203 196.254  0.00  0.00    +0.024 HD
ATOM     40  H   UNL     1     134.538 153.787 196.859  0.00  0.00    +0.024 HD
ATOM     41  H   UNL     1     134.251 153.929 195.120  0.00  0.00    +0.024 HD
ENDBRANCH   1  38
BRANCH  15  42
ATOM     42  C   UNL     1     135.380 155.365 199.817  0.00  0.00    -0.025 C 
ATOM     43  H   UNL     1     135.657 154.385 199.413  0.00  0.00    +0.026 HD
ATOM     44  H   UNL     1     134.830 155.199 200.750  0.00  0.00    +0.026 HD
ATOM     45  H   UNL     1     136.301 155.898 200.085  0.00  0.00    +0.026 HD
ENDBRANCH  15  42
BRANCH   9  46
ATOM     46  C   UNL     1     132.639 164.619 198.215  0.00  0.00    -0.058 C 
ATOM     47  H   UNL     1     131.639 165.005 198.442  0.00  0.00    +0.024 HD
ATOM     48  H   UNL     1     133.041 165.197 197.378  0.00  0.00    +0.024 HD
ATOM     49  H   UNL     1     133.272 164.823 199.086  0.00  0.00    +0.024 HD
ENDBRANCH   9  46
BRANCH  21  50
ATOM     50  C   UNL     1     132.040 162.799 201.693  0.00  0.00    -0.009 C 
ATOM     51  H   UNL     1     131.187 162.785 202.386  0.00  0.00    +0.033 HD
ATOM     52  H   UNL     1     132.682 161.972 202.019  0.00  0.00    +0.033 HD
BRANCH  50  53
ATOM     53  C   UNL     1     132.754 164.117 201.874  0.00  0.00    -0.046 A 
ATOM     54  C   UNL     1     132.026 165.304 202.021  0.00  0.00    -0.059 A 
ATOM     55  C   UNL     1     132.685 166.522 202.201  0.00  0.00    -0.062 A 
ATOM     56  C   UNL     1     134.077 166.566 202.228  0.00  0.00    -0.062 A 
ATOM     57  C   UNL     1     134.812 165.393 202.068  0.00  0.00    -0.062 A 
ATOM     58  C   UNL     1     134.155 164.175 201.887  0.00  0.00    -0.059 A 
ATOM     59  H   UNL     1     130.938 165.295 201.988  0.00  0.00    +0.062 HD
ATOM     60  H   UNL     1     132.110 167.438 202.311  0.00  0.00    +0.062 HD
ATOM     61  H   UNL     1     134.588 167.514 202.364  0.00  0.00    +0.062 HD
ATOM     62  H   UNL     1     135.898 165.428 202.079  0.00  0.00    +0.062 HD
ATOM     63  H   UNL     1     134.746 163.272 201.756  0.00  0.00    +0.062 HD
ENDBRANCH  50  53
ENDBRANCH  21  50
BRANCH  15  64
ATOM     64  O   UNL     1     133.222 155.665 198.904  0.00  0.00    -0.377 OA
ATOM     65  H   UNL     1     133.265 154.708 198.748  0.00  0.00    +0.211 HD
ENDBRANCH  15  64
BRANCH   6  66
ATOM     66  O   UNL     1     132.051 161.326 195.224  0.00  0.00    -0.387 OA
ATOM     67  H   UNL     1     132.151 162.276 195.038  0.00  0.00    +0.210 HD
ENDBRANCH   6  66
BRANCH  12  68
ATOM     68  O   UNL     1     134.903 160.414 199.441  0.00  0.00    -0.456 OA
BRANCH  68  69
ATOM     69  C   UNL     1     135.636 161.036 200.402  0.00  0.00    +0.305 C 
ATOM     70  O   UNL     1     136.645 161.700 200.216  0.00  0.00    -0.251 OA
BRANCH  69  71
ATOM     71  C   UNL     1     135.040 160.764 201.750  0.00  0.00    +0.033 C 
ATOM     72  H   UNL     1     135.805 160.341 202.406  0.00  0.00    +0.034 HD
ATOM     73  H   UNL     1     134.682 161.697 202.193  0.00  0.00    +0.034 HD
ATOM     74  H   UNL     1     134.222 160.045 201.654  0.00  0.00    +0.034 HD
ENDBRANCH  69  71
ENDBRANCH  68  69
ENDBRANCH  12  68
TORSDOF 10
ENDMDL
MODEL 4
REMARK VINA RESULT:      -6.7      1.942      3.453
REMARK  Name = Cytochalasin D_conf3
REMARK  10 active torsions:
REMARK  status: ('A' for Active; 'I' for Inactive)
REMARK    1  A    between atoms: C_1  and  C_2
REMARK    2  A    between atoms: C_7  and  O_37
REMARK    3  A    between atoms: C_10  and  C_36
REMARK    4  A    between atoms: C_13  and  O_21
REMARK    5  A    between atoms: C_16  and  C_19
REMARK    6  A    between atoms: C_16  and  O_20
REMARK    7  A    between atoms: O_21  and  C_22
REMARK    8  A    between atoms: C_22  and  C_24
REMARK    9  A    between atoms: C_28  and  C_29
REMARK   10  A    between atoms: C_29  and  C_30
REMARK                            x       y       z     vdW  Elec       q    Type
REMARK                         _______ _______ _______ _____ _____    ______ ____
ROOT
ATOM      1  C   UNL     1     150.256 160.836 189.391  0.00  0.00    +0.021 C 
ATOM      2  C   UNL     1     149.023 161.413 190.104  0.00  0.00    -0.025 C 
ATOM      3  C   UNL     1     148.611 162.790 189.653  0.00  0.00    -0.087 C 
ATOM      4  C   UNL     1     148.297 163.772 190.519  0.00  0.00    -0.081 C 
ATOM      5  C   UNL     1     147.944 165.211 190.139  0.00  0.00    +0.025 C 
ATOM      6  C   UNL     1     146.424 165.411 190.434  0.00  0.00    +0.084 C 
ATOM      7  C   UNL     1     145.982 166.855 190.402  0.00  0.00    -0.045 C 
ATOM      8  C   UNL     1     144.852 167.246 191.019  0.00  0.00    -0.097 C 
ATOM      9  C   UNL     1     146.929 167.764 189.655  0.00  0.00    -0.015 C 
ATOM     10  C   UNL     1     148.295 167.797 190.392  0.00  0.00    +0.002 C 
ATOM     11  C   UNL     1     148.818 166.344 190.799  0.00  0.00    +0.101 C 
ATOM     12  C   UNL     1     150.352 166.255 190.488  0.00  0.00    +0.136 C 
ATOM     13  C   UNL     1     151.015 164.943 190.868  0.00  0.00    -0.044 C 
ATOM     14  C   UNL     1     151.580 164.069 190.014  0.00  0.00    -0.046 C 
ATOM     15  C   UNL     1     152.029 162.647 190.293  0.00  0.00    +0.139 C 
ATOM     16  C   UNL     1     151.423 161.791 189.136  0.00  0.00    +0.171 C 
ATOM     17  O   UNL     1     151.868 161.883 187.982  0.00  0.00    -0.294 OA
ATOM     18  C   UNL     1     148.641 166.353 192.311  0.00  0.00    +0.224 C 
ATOM     19  O   UNL     1     148.730 165.400 193.066  0.00  0.00    -0.275 OA
ATOM     20  N   UNL     1     148.385 167.622 192.745  0.00  0.00    -0.311 N 
ATOM     21  C   UNL     1     148.283 168.614 191.710  0.00  0.00    +0.032 C 
ATOM     22  H   UNL     1     149.915 160.537 188.387  0.00  0.00    +0.038 HD
ATOM     23  H   UNL     1     149.171 161.395 191.190  0.00  0.00    +0.031 HD
ATOM     24  H   UNL     1     148.176 160.738 189.915  0.00  0.00    +0.031 HD
ATOM     25  H   UNL     1     148.598 162.983 188.582  0.00  0.00    +0.057 HD
ATOM     26  H   UNL     1     148.288 163.542 191.585  0.00  0.00    +0.057 HD
ATOM     27  H   UNL     1     148.088 165.286 189.051  0.00  0.00    +0.038 HD
ATOM     28  H   UNL     1     146.159 164.972 191.406  0.00  0.00    +0.065 HD
ATOM     29  H   UNL     1     144.219 166.525 191.530  0.00  0.00    +0.054 HD
ATOM     30  H   UNL     1     144.507 168.273 191.017  0.00  0.00    +0.054 HD
ATOM     31  H   UNL     1     147.101 167.298 188.674  0.00  0.00    +0.035 HD
ATOM     32  H   UNL     1     148.988 168.268 189.687  0.00  0.00    +0.034 HD
ATOM     33  H   UNL     1     150.871 167.032 191.061  0.00  0.00    +0.079 HD
ATOM     34  H   UNL     1     150.963 164.700 191.928  0.00  0.00    +0.061 HD
ATOM     35  H   UNL     1     151.656 164.347 188.961  0.00  0.00    +0.060 HD
ATOM     36  H   UNL     1     148.227 167.800 193.730  0.00  0.00    +0.149 HD
ATOM     37  H   UNL     1     147.325 169.113 191.879  0.00  0.00    +0.050 HD
ENDROOT
BRANCH   1  38
ATOM     38  C   UNL     1     150.758 159.566 190.074  0.00  0.00    -0.055 C 
ATOM     39  H   UNL     1     151.177 158.867 189.341  0.00  0.00    +0.024 HD
ATOM     40  H   UNL     1     149.941 159.059 190.597  0.00  0.00    +0.024 HD
ATOM     41  H   UNL     1     151.542 159.781 190.807  0.00  0.00    +0.024 HD
ENDBRANCH   1  38
BRANCH  15  42
ATOM     42  C   UNL     1     153.554 162.554 190.223  0.00  0.00    -0.025 C 
ATOM     43  H   UNL     1     153.921 161.537 190.400  0.00  0.00    +0.026 HD
ATOM     44  H   UNL     1     154.013 163.210 190.972  0.00  0.00    +0.026 HD
ATOM     45  H   UNL     1     153.924 162.887 189.246  0.00  0.00    +0.026 HD
ENDBRANCH  15  42
BRANCH   9  46
ATOM     46  C   UNL     1     146.398 169.161 189.308  0.00  0.00    -0.058 C 
ATOM     47  H   UNL     1     145.712 169.109 188.455  0.00  0.00    +0.024 HD
ATOM     48  H   UNL     1     147.189 169.873 189.060  0.00  0.00    +0.024 HD
ATOM     49  H   UNL     1     145.836 169.577 190.152  0.00  0.00    +0.024 HD
ENDBRANCH   9  46
BRANCH  21  50
ATOM     50  C   UNL     1     149.423 169.644 191.835  0.00  0.00    -0.009 C 
ATOM     51  H   UNL     1     150.172 169.275 192.550  0.00  0.00    +0.033 HD
ATOM     52  H   UNL     1     149.962 169.739 190.885  0.00  0.00    +0.033 HD
BRANCH  50  53
ATOM     53  C   UNL     1     148.964 171.001 192.312  0.00  0.00    -0.046 A 
ATOM     54  C   UNL     1     147.649 171.426 192.088  0.00  0.00    -0.059 A 
ATOM     55  C   UNL     1     147.221 172.676 192.540  0.00  0.00    -0.062 A 
ATOM     56  C   UNL     1     148.105 173.515 193.213  0.00  0.00    -0.062 A 
ATOM     57  C   UNL     1     149.420 173.109 193.429  0.00  0.00    -0.062 A 
ATOM     58  C   UNL     1     149.850 171.861 192.978  0.00  0.00    -0.059 A 
ATOM     59  H   UNL     1     146.946 170.792 191.551  0.00  0.00    +0.062 HD
ATOM     60  H   UNL     1     146.198 172.996 192.358  0.00  0.00    +0.062 HD
ATOM     61  H   UNL     1     147.771 174.488 193.562  0.00  0.00    +0.062 HD
ATOM     62  H   UNL     1     150.113 173.768 193.946  0.00  0.00    +0.062 HD
ATOM     63  H   UNL     1     150.883 171.566 193.148  0.00  0.00    +0.062 HD
ENDBRANCH  50  53
ENDBRANCH  21  50
BRANCH  15  64
ATOM     64  O   UNL     1     151.659 162.228 191.595  0.00  0.00    -0.377 OA
ATOM     65  H   UNL     1     151.617 161.258 191.602  0.00  0.00    +0.211 HD
ENDBRANCH  15  64
BRANCH   6  66
ATOM     66  O   UNL     1     145.660 164.737 189.431  0.00  0.00    -0.387 OA
ATOM     67  H   UNL     1     146.076 163.867 189.301  0.00  0.00    +0.210 HD
ENDBRANCH   6  66
BRANCH  12  68
ATOM     68  O   UNL     1     150.520 166.468 189.066  0.00  0.00    -0.456 OA
BRANCH  68  69
ATOM     69  C   UNL     1     151.602 167.189 188.670  0.00  0.00    +0.305 C 
ATOM     70  O   UNL     1     152.228 167.979 189.362  0.00  0.00    -0.251 OA
BRANCH  69  71
ATOM     71  C   UNL     1     151.907 166.900 187.232  0.00  0.00    +0.033 C 
ATOM     72  H   UNL     1     152.628 166.081 187.172  0.00  0.00    +0.034 HD
ATOM     73  H   UNL     1     150.994 166.596 186.713  0.00  0.00    +0.034 HD
ATOM     74  H   UNL     1     152.341 167.787 186.761  0.00  0.00    +0.034 HD
ENDBRANCH  69  71
ENDBRANCH  68  69
ENDBRANCH  12  68
TORSDOF 10
ENDMDL
MODEL 5
REMARK VINA RESULT:      -6.5      2.596      8.059
REMARK  Name = Cytochalasin D_conf3
REMARK  10 active torsions:
REMARK  status: ('A' for Active; 'I' for Inactive)
REMARK    1  A    between atoms: C_1  and  C_2
REMARK    2  A    between atoms: C_7  and  O_37
REMARK    3  A    between atoms: C_10  and  C_36
REMARK    4  A    between atoms: C_13  and  O_21
REMARK    5  A    between atoms: C_16  and  C_19
REMARK    6  A    between atoms: C_16  and  O_20
REMARK    7  A    between atoms: O_21  and  C_22
REMARK    8  A    between atoms: C_22  and  C_24
REMARK    9  A    between atoms: C_28  and  C_29
REMARK   10  A    between atoms: C_29  and  C_30
REMARK                            x       y       z     vdW  Elec       q    Type
REMARK                         _______ _______ _______ _____ _____    ______ ____
ROOT
ATOM      1  C   UNL     1     146.319 172.799 190.736  0.00  0.00    +0.021 C 
ATOM      2  C   UNL     1     147.255 172.200 191.797  0.00  0.00    -0.025 C 
ATOM      3  C   UNL     1     148.314 171.272 191.262  0.00  0.00    -0.087 C 
ATOM      4  C   UNL     1     148.588 170.082 191.830  0.00  0.00    -0.081 C 
ATOM      5  C   UNL     1     149.593 169.057 191.302  0.00  0.00    +0.025 C 
ATOM      6  C   UNL     1     150.795 169.027 192.297  0.00  0.00    +0.084 C 
ATOM      7  C   UNL     1     151.729 167.858 192.090  0.00  0.00    -0.045 C 
ATOM      8  C   UNL     1     152.548 167.446 193.073  0.00  0.00    -0.097 C 
ATOM      9  C   UNL     1     151.615 167.224 190.724  0.00  0.00    -0.015 C 
ATOM     10  C   UNL     1     150.196 166.616 190.558  0.00  0.00    +0.002 C 
ATOM     11  C   UNL     1     149.035 167.610 191.020  0.00  0.00    +0.101 C 
ATOM     12  C   UNL     1     147.871 167.547 189.972  0.00  0.00    +0.136 C 
ATOM     13  C   UNL     1     146.660 168.404 190.296  0.00  0.00    -0.044 C 
ATOM     14  C   UNL     1     146.218 169.449 189.571  0.00  0.00    -0.046 C 
ATOM     15  C   UNL     1     145.183 170.487 189.962  0.00  0.00    +0.139 C 
ATOM     16  C   UNL     1     145.836 171.865 189.626  0.00  0.00    +0.171 C 
ATOM     17  O   UNL     1     145.990 172.220 188.447  0.00  0.00    -0.294 OA
ATOM     18  C   UNL     1     148.550 166.957 192.307  0.00  0.00    +0.224 C 
ATOM     19  O   UNL     1     147.791 167.438 193.133  0.00  0.00    -0.275 OA
ATOM     20  N   UNL     1     149.068 165.699 192.418  0.00  0.00    -0.311 N 
ATOM     21  C   UNL     1     149.969 165.313 191.367  0.00  0.00    +0.032 C 
ATOM     22  H   UNL     1     146.905 173.572 190.214  0.00  0.00    +0.038 HD
ATOM     23  H   UNL     1     146.671 171.703 192.580  0.00  0.00    +0.031 HD
ATOM     24  H   UNL     1     147.770 173.030 192.302  0.00  0.00    +0.031 HD
ATOM     25  H   UNL     1     148.850 171.585 190.368  0.00  0.00    +0.057 HD
ATOM     26  H   UNL     1     148.059 169.807 192.743  0.00  0.00    +0.057 HD
ATOM     27  H   UNL     1     149.960 169.452 190.343  0.00  0.00    +0.038 HD
ATOM     28  H   UNL     1     150.435 169.024 193.335  0.00  0.00    +0.065 HD
ATOM     29  H   UNL     1     152.576 167.963 194.029  0.00  0.00    +0.054 HD
ATOM     30  H   UNL     1     153.230 166.610 192.960  0.00  0.00    +0.054 HD
ATOM     31  H   UNL     1     151.706 168.040 189.992  0.00  0.00    +0.035 HD
ATOM     32  H   UNL     1     150.104 166.393 189.490  0.00  0.00    +0.034 HD
ATOM     33  H   UNL     1     147.504 166.516 189.918  0.00  0.00    +0.079 HD
ATOM     34  H   UNL     1     146.164 168.153 191.231  0.00  0.00    +0.061 HD
ATOM     35  H   UNL     1     146.705 169.663 188.618  0.00  0.00    +0.060 HD
ATOM     36  H   UNL     1     148.852 165.130 193.230  0.00  0.00    +0.149 HD
ATOM     37  H   UNL     1     150.877 164.975 191.873  0.00  0.00    +0.050 HD
ENDROOT
BRANCH   1  38
ATOM     38  C   UNL     1     145.129 173.514 191.374  0.00  0.00    -0.055 C 
ATOM     39  H   UNL     1     144.377 172.793 191.714  0.00  0.00    +0.024 HD
ATOM     40  H   UNL     1     144.652 174.187 190.655  0.00  0.00    +0.024 HD
ATOM     41  H   UNL     1     145.430 174.109 192.242  0.00  0.00    +0.024 HD
ENDBRANCH   1  38
BRANCH  15  42
ATOM     42  C   UNL     1     143.923 170.321 189.110  0.00  0.00    -0.025 C 
ATOM     43  H   UNL     1     143.126 171.015 189.401  0.00  0.00    +0.026 HD
ATOM     44  H   UNL     1     143.530 169.302 189.202  0.00  0.00    +0.026 HD
ATOM     45  H   UNL     1     144.144 170.478 188.048  0.00  0.00    +0.026 HD
ENDBRANCH  15  42
BRANCH   9  46
ATOM     46  C   UNL     1     152.737 166.254 190.330  0.00  0.00    -0.058 C 
ATOM     47  H   UNL     1     152.686 165.343 190.937  0.00  0.00    +0.024 HD
ATOM     48  H   UNL     1     153.736 166.681 190.446  0.00  0.00    +0.024 HD
ATOM     49  H   UNL     1     152.631 165.952 189.282  0.00  0.00    +0.024 HD
ENDBRANCH   9  46
BRANCH  21  50
ATOM     50  C   UNL     1     149.377 164.147 190.550  0.00  0.00    -0.009 C 
ATOM     51  H   UNL     1     148.375 163.904 190.932  0.00  0.00    +0.033 HD
ATOM     52  H   UNL     1     149.217 164.449 189.509  0.00  0.00    +0.033 HD
BRANCH  50  53
ATOM     53  C   UNL     1     150.205 162.886 190.606  0.00  0.00    -0.046 A 
ATOM     54  C   UNL     1     149.590 161.629 190.533  0.00  0.00    -0.059 A 
ATOM     55  C   UNL     1     150.356 160.462 190.572  0.00  0.00    -0.062 A 
ATOM     56  C   UNL     1     151.741 160.540 190.693  0.00  0.00    -0.062 A 
ATOM     57  C   UNL     1     152.362 161.784 190.783  0.00  0.00    -0.062 A 
ATOM     58  C   UNL     1     151.598 162.951 190.744  0.00  0.00    -0.059 A 
ATOM     59  H   UNL     1     148.508 161.546 190.453  0.00  0.00    +0.062 HD
ATOM     60  H   UNL     1     149.868 159.492 190.517  0.00  0.00    +0.062 HD
ATOM     61  H   UNL     1     152.335 159.631 190.727  0.00  0.00    +0.062 HD
ATOM     62  H   UNL     1     153.443 161.844 190.887  0.00  0.00    +0.062 HD
ATOM     63  H   UNL     1     152.101 163.912 190.823  0.00  0.00    +0.062 HD
ENDBRANCH  50  53
ENDBRANCH  21  50
BRANCH  15  64
ATOM     64  O   UNL     1     144.779 170.339 191.312  0.00  0.00    -0.377 OA
ATOM     65  H   UNL     1     143.893 169.943 191.322  0.00  0.00    +0.211 HD
ENDBRANCH  15  64
BRANCH   6  66
ATOM     66  O   UNL     1     151.583 170.205 192.114  0.00  0.00    -0.387 OA
ATOM     67  H   UNL     1     152.132 170.055 191.325  0.00  0.00    +0.210 HD
ENDBRANCH   6  66
BRANCH  12  68
ATOM     68  O   UNL     1     148.412 167.967 188.696  0.00  0.00    -0.456 OA
BRANCH  68  69
ATOM     69  C   UNL     1     148.313 167.091 187.662  0.00  0.00    +0.305 C 
ATOM     70  O   UNL     1     147.405 166.293 187.484  0.00  0.00    -0.251 OA
BRANCH  69  71
ATOM     71  C   UNL     1     149.511 167.220 186.771  0.00  0.00    +0.033 C 
ATOM     72  H   UNL     1     150.410 166.950 187.330  0.00  0.00    +0.034 HD
ATOM     73  H   UNL     1     149.415 166.541 185.919  0.00  0.00    +0.034 HD
ATOM     74  H   UNL     1     149.607 168.254 186.428  0.00  0.00    +0.034 HD
ENDBRANCH  69  71
ENDBRANCH  68  69
ENDBRANCH  12  68
TORSDOF 10
ENDMDL
MODEL 6
REMARK VINA RESULT:      -6.3      2.913      3.909
REMARK  Name = Cytochalasin D_conf3
REMARK  10 active torsions:
REMARK  status: ('A' for Active; 'I' for Inactive)
REMARK    1  A    between atoms: C_1  and  C_2
REMARK    2  A    between atoms: C_7  and  O_37
REMARK    3  A    between atoms: C_10  and  C_36
REMARK    4  A    between atoms: C_13  and  O_21
REMARK    5  A    between atoms: C_16  and  C_19
REMARK    6  A    between atoms: C_16  and  O_20
REMARK    7  A    between atoms: O_21  and  C_22
REMARK    8  A    between atoms: C_22  and  C_24
REMARK    9  A    between atoms: C_28  and  C_29
REMARK   10  A    between atoms: C_29  and  C_30
REMARK                            x       y       z     vdW  Elec       q    Type
REMARK                         _______ _______ _______ _____ _____    ______ ____
ROOT
ATOM      1  C   UNL     1     146.744 160.892 188.553  0.00  0.00    +0.021 C 
ATOM      2  C   UNL     1     148.031 161.497 189.134  0.00  0.00    -0.025 C 
ATOM      3  C   UNL     1     147.825 162.482 190.255  0.00  0.00    -0.087 C 
ATOM      4  C   UNL     1     148.465 163.664 190.308  0.00  0.00    -0.081 C 
ATOM      5  C   UNL     1     148.251 164.743 191.371  0.00  0.00    +0.025 C 
ATOM      6  C   UNL     1     149.539 164.793 192.252  0.00  0.00    +0.084 C 
ATOM      7  C   UNL     1     149.617 166.003 193.152  0.00  0.00    -0.045 C 
ATOM      8  C   UNL     1     150.794 166.418 193.650  0.00  0.00    -0.097 C 
ATOM      9  C   UNL     1     148.283 166.671 193.388  0.00  0.00    -0.015 C 
ATOM     10  C   UNL     1     147.743 167.227 192.042  0.00  0.00    +0.002 C 
ATOM     11  C   UNL     1     147.851 166.174 190.846  0.00  0.00    +0.101 C 
ATOM     12  C   UNL     1     146.525 166.221 190.012  0.00  0.00    +0.136 C 
ATOM     13  C   UNL     1     146.489 165.308 188.800  0.00  0.00    -0.044 C 
ATOM     14  C   UNL     1     145.652 164.268 188.621  0.00  0.00    -0.046 C 
ATOM     15  C   UNL     1     145.727 163.179 187.567  0.00  0.00    +0.139 C 
ATOM     16  C   UNL     1     145.559 161.838 188.350  0.00  0.00    +0.171 C 
ATOM     17  O   UNL     1     144.463 161.524 188.838  0.00  0.00    -0.294 OA
ATOM     18  C   UNL     1     148.966 166.770 189.997  0.00  0.00    +0.224 C 
ATOM     19  O   UNL     1     149.543 166.237 189.064  0.00  0.00    -0.275 OA
ATOM     20  N   UNL     1     149.236 168.044 190.406  0.00  0.00    -0.311 N 
ATOM     21  C   UNL     1     148.481 168.496 191.542  0.00  0.00    +0.032 C 
ATOM     22  H   UNL     1     146.390 160.158 189.294  0.00  0.00    +0.038 HD
ATOM     23  H   UNL     1     148.632 161.948 188.335  0.00  0.00    +0.031 HD
ATOM     24  H   UNL     1     148.644 160.674 189.529  0.00  0.00    +0.031 HD
ATOM     25  H   UNL     1     147.106 162.216 191.029  0.00  0.00    +0.057 HD
ATOM     26  H   UNL     1     149.202 163.892 189.537  0.00  0.00    +0.057 HD
ATOM     27  H   UNL     1     147.424 164.391 192.005  0.00  0.00    +0.038 HD
ATOM     28  H   UNL     1     150.438 164.751 191.622  0.00  0.00    +0.065 HD
ATOM     29  H   UNL     1     151.711 165.875 193.439  0.00  0.00    +0.054 HD
ATOM     30  H   UNL     1     150.887 167.284 194.298  0.00  0.00    +0.054 HD
ATOM     31  H   UNL     1     147.590 165.881 193.712  0.00  0.00    +0.035 HD
ATOM     32  H   UNL     1     146.696 167.477 192.236  0.00  0.00    +0.034 HD
ATOM     33  H   UNL     1     146.389 167.239 189.627  0.00  0.00    +0.079 HD
ATOM     34  H   UNL     1     147.256 165.513 188.055  0.00  0.00    +0.061 HD
ATOM     35  H   UNL     1     144.866 164.101 189.360  0.00  0.00    +0.060 HD
ATOM     36  H   UNL     1     149.967 168.580 189.950  0.00  0.00    +0.149 HD
ATOM     37  H   UNL     1     149.222 168.854 192.260  0.00  0.00    +0.050 HD
ENDROOT
BRANCH   1  38
ATOM     38  C   UNL     1     147.018 160.113 187.268  0.00  0.00    -0.055 C 
ATOM     39  H   UNL     1     147.884 160.525 186.739  0.00  0.00    +0.024 HD
ATOM     40  H   UNL     1     146.156 160.161 186.596  0.00  0.00    +0.024 HD
ATOM     41  H   UNL     1     147.228 159.058 187.469  0.00  0.00    +0.024 HD
ENDBRANCH   1  38
BRANCH  15  42
ATOM     42  C   UNL     1     144.564 163.319 186.583  0.00  0.00    -0.025 C 
ATOM     43  H   UNL     1     144.440 162.432 185.951  0.00  0.00    +0.026 HD
ATOM     44  H   UNL     1     144.722 164.181 185.923  0.00  0.00    +0.026 HD
ATOM     45  H   UNL     1     143.620 163.498 187.112  0.00  0.00    +0.026 HD
ENDBRANCH  15  42
BRANCH   9  46
ATOM     46  C   UNL     1     148.229 167.696 194.528  0.00  0.00    -0.058 C 
ATOM     47  H   UNL     1     147.387 167.482 195.196  0.00  0.00    +0.024 HD
ATOM     48  H   UNL     1     148.127 168.726 194.177  0.00  0.00    +0.024 HD
ATOM     49  H   UNL     1     149.143 167.646 195.131  0.00  0.00    +0.024 HD
ENDBRANCH   9  46
BRANCH  21  50
ATOM     50  C   UNL     1     147.552 169.660 191.144  0.00  0.00    -0.009 C 
ATOM     51  H   UNL     1     147.629 169.836 190.061  0.00  0.00    +0.033 HD
ATOM     52  H   UNL     1     146.503 169.391 191.312  0.00  0.00    +0.033 HD
BRANCH  50  53
ATOM     53  C   UNL     1     147.876 170.959 191.841  0.00  0.00    -0.046 A 
ATOM     54  C   UNL     1     146.902 171.958 191.971  0.00  0.00    -0.059 A 
ATOM     55  C   UNL     1     147.196 173.155 192.626  0.00  0.00    -0.062 A 
ATOM     56  C   UNL     1     148.468 173.369 193.151  0.00  0.00    -0.062 A 
ATOM     57  C   UNL     1     149.450 172.389 193.015  0.00  0.00    -0.062 A 
ATOM     58  C   UNL     1     149.157 171.193 192.360  0.00  0.00    -0.059 A 
ATOM     59  H   UNL     1     145.906 171.817 191.555  0.00  0.00    +0.062 HD
ATOM     60  H   UNL     1     146.433 173.924 192.719  0.00  0.00    +0.062 HD
ATOM     61  H   UNL     1     148.697 174.302 193.658  0.00  0.00    +0.062 HD
ATOM     62  H   UNL     1     150.446 172.560 193.416  0.00  0.00    +0.062 HD
ATOM     63  H   UNL     1     149.939 170.444 192.257  0.00  0.00    +0.062 HD
ENDBRANCH  50  53
ENDBRANCH  21  50
BRANCH  15  64
ATOM     64  O   UNL     1     146.916 163.272 186.802  0.00  0.00    -0.377 OA
ATOM     65  H   UNL     1     146.766 162.828 185.952  0.00  0.00    +0.211 HD
ENDBRANCH  15  64
BRANCH   6  66
ATOM     66  O   UNL     1     149.560 163.652 193.113  0.00  0.00    -0.387 OA
ATOM     67  H   UNL     1     150.437 163.241 193.012  0.00  0.00    +0.210 HD
ENDBRANCH   6  66
BRANCH  12  68
ATOM     68  O   UNL     1     145.440 165.860 190.900  0.00  0.00    -0.456 OA
BRANCH  68  69
ATOM     69  C   UNL     1     144.523 166.823 191.183  0.00  0.00    +0.305 C 
ATOM     70  O   UNL     1     144.202 167.744 190.447  0.00  0.00    -0.251 OA
BRANCH  69  71
ATOM     71  C   UNL     1     143.974 166.611 192.561  0.00  0.00    +0.033 C 
ATOM     72  H   UNL     1     142.883 166.548 192.511  0.00  0.00    +0.034 HD
ATOM     73  H   UNL     1     144.356 165.674 192.974  0.00  0.00    +0.034 HD
ATOM     74  H   UNL     1     144.248 167.454 193.202  0.00  0.00    +0.034 HD
ENDBRANCH  69  71
ENDBRANCH  68  69
ENDBRANCH  12  68
TORSDOF 10
ENDMDL
MODEL 7
REMARK VINA RESULT:      -6.3     18.785     21.937
REMARK  Name = Cytochalasin D_conf3
REMARK  10 active torsions:
REMARK  status: ('A' for Active; 'I' for Inactive)
REMARK    1  A    between atoms: C_1  and  C_2
REMARK    2  A    between atoms: C_7  and  O_37
REMARK    3  A    between atoms: C_10  and  C_36
REMARK    4  A    between atoms: C_13  and  O_21
REMARK    5  A    between atoms: C_16  and  C_19
REMARK    6  A    between atoms: C_16  and  O_20
REMARK    7  A    between atoms: O_21  and  C_22
REMARK    8  A    between atoms: C_22  and  C_24
REMARK    9  A    between atoms: C_28  and  C_29
REMARK   10  A    between atoms: C_29  and  C_30
REMARK                            x       y       z     vdW  Elec       q    Type
REMARK                         _______ _______ _______ _____ _____    ______ ____
ROOT
ATOM      1  C   UNL     1     129.591 164.542 199.751  0.00  0.00    +0.021 C 
ATOM      2  C   UNL     1     129.186 163.294 198.952  0.00  0.00    -0.025 C 
ATOM      3  C   UNL     1     129.739 161.994 199.474  0.00  0.00    -0.087 C 
ATOM      4  C   UNL     1     130.298 161.069 198.671  0.00  0.00    -0.081 C 
ATOM      5  C   UNL     1     130.945 159.763 199.136  0.00  0.00    +0.025 C 
ATOM      6  C   UNL     1     130.016 158.594 198.680  0.00  0.00    +0.084 C 
ATOM      7  C   UNL     1     130.655 157.230 198.791  0.00  0.00    -0.045 C 
ATOM      8  C   UNL     1     130.187 156.188 198.082  0.00  0.00    -0.097 C 
ATOM      9  C   UNL     1     131.839 157.188 199.727  0.00  0.00    -0.015 C 
ATOM     10  C   UNL     1     132.968 158.095 199.166  0.00  0.00    +0.002 C 
ATOM     11  C   UNL     1     132.438 159.526 198.694  0.00  0.00    +0.101 C 
ATOM     12  C   UNL     1     133.449 160.622 199.177  0.00  0.00    +0.136 C 
ATOM     13  C   UNL     1     133.113 162.043 198.761  0.00  0.00    -0.044 C 
ATOM     14  C   UNL     1     132.811 163.058 199.593  0.00  0.00    -0.046 C 
ATOM     15  C   UNL     1     132.229 164.414 199.240  0.00  0.00    +0.139 C 
ATOM     16  C   UNL     1     131.041 164.621 200.232  0.00  0.00    +0.171 C 
ATOM     17  O   UNL     1     131.252 164.838 201.435  0.00  0.00    -0.294 OA
ATOM     18  C   UNL     1     132.544 159.420 197.178  0.00  0.00    +0.224 C 
ATOM     19  O   UNL     1     132.085 160.194 196.355  0.00  0.00    -0.275 OA
ATOM     20  N   UNL     1     133.271 158.316 196.836  0.00  0.00    -0.311 N 
ATOM     21  C   UNL     1     133.703 157.502 197.937  0.00  0.00    +0.032 C 
ATOM     22  H   UNL     1     128.992 164.519 200.675  0.00  0.00    +0.038 HD
ATOM     23  H   UNL     1     129.446 163.422 197.894  0.00  0.00    +0.031 HD
ATOM     24  H   UNL     1     128.090 163.218 198.974  0.00  0.00    +0.031 HD
ATOM     25  H   UNL     1     129.697 161.828 200.549  0.00  0.00    +0.057 HD
ATOM     26  H   UNL     1     130.298 161.246 197.595  0.00  0.00    +0.057 HD
ATOM     27  H   UNL     1     130.936 159.790 200.235  0.00  0.00    +0.038 HD
ATOM     28  H   UNL     1     129.677 158.752 197.647  0.00  0.00    +0.065 HD
ATOM     29  H   UNL     1     129.321 156.300 197.434  0.00  0.00    +0.054 HD
ATOM     30  H   UNL     1     130.622 155.196 198.136  0.00  0.00    +0.054 HD
ATOM     31  H   UNL     1     131.505 157.635 200.675  0.00  0.00    +0.035 HD
ATOM     32  H   UNL     1     133.681 158.206 199.989  0.00  0.00    +0.034 HD
ATOM     33  H   UNL     1     134.433 160.406 198.745  0.00  0.00    +0.079 HD
ATOM     34  H   UNL     1     133.072 162.202 197.685  0.00  0.00    +0.061 HD
ATOM     35  H   UNL     1     132.893 162.889 200.668  0.00  0.00    +0.060 HD
ATOM     36  H   UNL     1     133.424 158.092 195.858  0.00  0.00    +0.149 HD
ATOM     37  H   UNL     1     133.365 156.490 197.701  0.00  0.00    +0.050 HD
ENDROOT
BRANCH   1  38
ATOM     38  C   UNL     1     129.211 165.827 199.020  0.00  0.00    -0.055 C 
ATOM     39  H   UNL     1     128.832 166.579 199.721  0.00  0.00    +0.024 HD
ATOM     40  H   UNL     1     128.431 165.634 198.278  0.00  0.00    +0.024 HD
ATOM     41  H   UNL     1     130.067 166.267 198.498  0.00  0.00    +0.024 HD
ENDBRANCH   1  38
BRANCH  15  42
ATOM     42  C   UNL     1     133.268 165.510 199.484  0.00  0.00    -0.025 C 
ATOM     43  H   UNL     1     132.811 166.497 199.625  0.00  0.00    +0.026 HD
ATOM     44  H   UNL     1     133.959 165.580 198.636  0.00  0.00    +0.026 HD
ATOM     45  H   UNL     1     133.877 165.286 200.368  0.00  0.00    +0.026 HD
ENDBRANCH  15  42
BRANCH   9  46
ATOM     46  C   UNL     1     132.334 155.794 200.135  0.00  0.00    -0.058 C 
ATOM     47  H   UNL     1     131.506 155.076 200.126  0.00  0.00    +0.024 HD
ATOM     48  H   UNL     1     132.788 155.772 201.129  0.00  0.00    +0.024 HD
ATOM     49  H   UNL     1     133.086 155.432 199.425  0.00  0.00    +0.024 HD
ENDBRANCH   9  46
BRANCH  21  50
ATOM     50  C   UNL     1     135.241 157.512 198.046  0.00  0.00    -0.009 C 
ATOM     51  H   UNL     1     135.679 157.359 197.049  0.00  0.00    +0.033 HD
ATOM     52  H   UNL     1     135.598 158.499 198.363  0.00  0.00    +0.033 HD
BRANCH  50  53
ATOM     53  C   UNL     1     135.792 156.441 198.956  0.00  0.00    -0.046 A 
ATOM     54  C   UNL     1     136.079 156.726 200.297  0.00  0.00    -0.059 A 
ATOM     55  C   UNL     1     136.578 155.733 201.142  0.00  0.00    -0.062 A 
ATOM     56  C   UNL     1     136.802 154.448 200.654  0.00  0.00    -0.062 A 
ATOM     57  C   UNL     1     136.535 154.156 199.317  0.00  0.00    -0.062 A 
ATOM     58  C   UNL     1     136.037 155.148 198.471  0.00  0.00    -0.059 A 
ATOM     59  H   UNL     1     135.926 157.727 200.695  0.00  0.00    +0.062 HD
ATOM     60  H   UNL     1     136.799 155.966 202.181  0.00  0.00    +0.062 HD
ATOM     61  H   UNL     1     137.193 153.677 201.311  0.00  0.00    +0.062 HD
ATOM     62  H   UNL     1     136.719 153.156 198.933  0.00  0.00    +0.062 HD
ATOM     63  H   UNL     1     135.843 154.903 197.429  0.00  0.00    +0.062 HD
ENDBRANCH  50  53
ENDBRANCH  21  50
BRANCH  15  64
ATOM     64  O   UNL     1     131.876 164.491 197.870  0.00  0.00    -0.377 OA
ATOM     65  H   UNL     1     130.909 164.446 197.802  0.00  0.00    +0.211 HD
ENDBRANCH  15  64
BRANCH   6  66
ATOM     66  O   UNL     1     128.858 158.563 199.517  0.00  0.00    -0.387 OA
ATOM     67  H   UNL     1     128.340 159.359 199.307  0.00  0.00    +0.210 HD
ENDBRANCH   6  66
BRANCH  12  68
ATOM     68  O   UNL     1     133.499 160.559 200.622  0.00  0.00    -0.456 OA
BRANCH  68  69
ATOM     69  C   UNL     1     134.707 160.763 201.211  0.00  0.00    +0.305 C 
ATOM     70  O   UNL     1     134.890 161.220 202.330  0.00  0.00    -0.251 OA
BRANCH  69  71
ATOM     71  C   UNL     1     135.804 160.373 200.269  0.00  0.00    +0.033 C 
ATOM     72  H   UNL     1     135.375 159.857 199.406  0.00  0.00    +0.034 HD
ATOM     73  H   UNL     1     136.325 161.266 199.913  0.00  0.00    +0.034 HD
ATOM     74  H   UNL     1     136.501 159.696 200.772  0.00  0.00    +0.034 HD
ENDBRANCH  69  71
ENDBRANCH  68  69
ENDBRANCH  12  68
TORSDOF 10
ENDMDL
MODEL 8
REMARK VINA RESULT:      -6.1      3.794      6.851
REMARK  Name = Cytochalasin D_conf3
REMARK  10 active torsions:
REMARK  status: ('A' for Active; 'I' for Inactive)
REMARK    1  A    between atoms: C_1  and  C_2
REMARK    2  A    between atoms: C_7  and  O_37
REMARK    3  A    between atoms: C_10  and  C_36
REMARK    4  A    between atoms: C_13  and  O_21
REMARK    5  A    between atoms: C_16  and  C_19
REMARK    6  A    between atoms: C_16  and  O_20
REMARK    7  A    between atoms: O_21  and  C_22
REMARK    8  A    between atoms: C_22  and  C_24
REMARK    9  A    between atoms: C_28  and  C_29
REMARK   10  A    between atoms: C_29  and  C_30
REMARK                            x       y       z     vdW  Elec       q    Type
REMARK                         _______ _______ _______ _____ _____    ______ ____
ROOT
ATOM      1  C   UNL     1     142.813 164.015 186.474  0.00  0.00    +0.021 C 
ATOM      2  C   UNL     1     144.303 164.379 186.390  0.00  0.00    -0.025 C 
ATOM      3  C   UNL     1     144.927 164.822 187.688  0.00  0.00    -0.087 C 
ATOM      4  C   UNL     1     145.721 165.906 187.777  0.00  0.00    -0.081 C 
ATOM      5  C   UNL     1     146.327 166.458 189.068  0.00  0.00    +0.025 C 
ATOM      6  C   UNL     1     147.864 166.193 189.013  0.00  0.00    +0.084 C 
ATOM      7  C   UNL     1     148.650 166.942 190.064  0.00  0.00    -0.045 C 
ATOM      8  C   UNL     1     149.968 167.162 189.914  0.00  0.00    -0.097 C 
ATOM      9  C   UNL     1     147.812 167.412 191.229  0.00  0.00    -0.015 C 
ATOM     10  C   UNL     1     146.766 168.443 190.724  0.00  0.00    +0.002 C 
ATOM     11  C   UNL     1     146.008 167.965 189.403  0.00  0.00    +0.101 C 
ATOM     12  C   UNL     1     144.483 168.297 189.549  0.00  0.00    +0.136 C 
ATOM     13  C   UNL     1     143.626 167.948 188.346  0.00  0.00    -0.044 C 
ATOM     14  C   UNL     1     142.632 167.039 188.323  0.00  0.00    -0.046 C 
ATOM     15  C   UNL     1     141.915 166.468 187.114  0.00  0.00    +0.139 C 
ATOM     16  C   UNL     1     141.921 164.921 187.324  0.00  0.00    +0.171 C 
ATOM     17  O   UNL     1     141.214 164.399 188.200  0.00  0.00    -0.294 OA
ATOM     18  C   UNL     1     146.596 168.890 188.346  0.00  0.00    +0.224 C 
ATOM     19  O   UNL     1     146.468 168.796 187.136  0.00  0.00    -0.275 OA
ATOM     20  N   UNL     1     147.293 169.900 188.943  0.00  0.00    -0.311 N 
ATOM     21  C   UNL     1     147.364 169.830 190.376  0.00  0.00    +0.032 C 
ATOM     22  H   UNL     1     142.767 163.033 186.972  0.00  0.00    +0.038 HD
ATOM     23  H   UNL     1     144.465 165.134 185.611  0.00  0.00    +0.031 HD
ATOM     24  H   UNL     1     144.851 163.489 186.050  0.00  0.00    +0.031 HD
ATOM     25  H   UNL     1     144.692 164.243 188.579  0.00  0.00    +0.057 HD
ATOM     26  H   UNL     1     145.965 166.449 186.864  0.00  0.00    +0.057 HD
ATOM     27  H   UNL     1     145.911 165.852 189.887  0.00  0.00    +0.038 HD
ATOM     28  H   UNL     1     148.262 166.440 188.019  0.00  0.00    +0.065 HD
ATOM     29  H   UNL     1     150.501 166.782 189.047  0.00  0.00    +0.054 HD
ATOM     30  H   UNL     1     150.562 167.697 190.647  0.00  0.00    +0.054 HD
ATOM     31  H   UNL     1     147.255 166.534 191.588  0.00  0.00    +0.035 HD
ATOM     32  H   UNL     1     146.057 168.558 191.550  0.00  0.00    +0.034 HD
ATOM     33  H   UNL     1     144.373 169.378 189.694  0.00  0.00    +0.079 HD
ATOM     34  H   UNL     1     143.903 168.461 187.427  0.00  0.00    +0.061 HD
ATOM     35  H   UNL     1     142.343 166.561 189.261  0.00  0.00    +0.060 HD
ATOM     36  H   UNL     1     147.761 170.599 188.376  0.00  0.00    +0.149 HD
ATOM     37  H   UNL     1     148.428 169.896 190.618  0.00  0.00    +0.050 HD
ENDROOT
BRANCH   1  38
ATOM     38  C   UNL     1     142.200 163.828 185.088  0.00  0.00    -0.055 C 
ATOM     39  H   UNL     1     142.955 163.960 184.306  0.00  0.00    +0.024 HD
ATOM     40  H   UNL     1     141.403 164.559 184.917  0.00  0.00    +0.024 HD
ATOM     41  H   UNL     1     141.770 162.829 184.965  0.00  0.00    +0.024 HD
ENDBRANCH   1  38
BRANCH  15  42
ATOM     42  C   UNL     1     140.464 166.952 187.087  0.00  0.00    -0.025 C 
ATOM     43  H   UNL     1     140.341 167.877 186.512  0.00  0.00    +0.026 HD
ATOM     44  H   UNL     1     140.104 167.141 188.106  0.00  0.00    +0.026 HD
ATOM     45  H   UNL     1     139.803 166.191 186.657  0.00  0.00    +0.026 HD
ENDBRANCH  15  42
BRANCH   9  46
ATOM     46  C   UNL     1     148.580 167.889 192.468  0.00  0.00    -0.058 C 
ATOM     47  H   UNL     1     149.290 167.123 192.797  0.00  0.00    +0.024 HD
ATOM     48  H   UNL     1     147.928 168.129 193.313  0.00  0.00    +0.024 HD
ATOM     49  H   UNL     1     149.158 168.791 192.237  0.00  0.00    +0.024 HD
ENDBRANCH   9  46
BRANCH  21  50
ATOM     50  C   UNL     1     146.624 171.024 191.013  0.00  0.00    -0.009 C 
ATOM     51  H   UNL     1     146.298 171.716 190.222  0.00  0.00    +0.033 HD
ATOM     52  H   UNL     1     145.698 170.690 191.495  0.00  0.00    +0.033 HD
BRANCH  50  53
ATOM     53  C   UNL     1     147.466 171.810 191.988  0.00  0.00    -0.046 A 
ATOM     54  C   UNL     1     148.823 171.508 192.160  0.00  0.00    -0.059 A 
ATOM     55  C   UNL     1     149.606 172.242 193.053  0.00  0.00    -0.062 A 
ATOM     56  C   UNL     1     149.038 173.279 193.789  0.00  0.00    -0.062 A 
ATOM     57  C   UNL     1     147.686 173.579 193.638  0.00  0.00    -0.062 A 
ATOM     58  C   UNL     1     146.902 172.846 192.746  0.00  0.00    -0.059 A 
ATOM     59  H   UNL     1     149.283 170.691 191.606  0.00  0.00    +0.062 HD
ATOM     60  H   UNL     1     150.657 171.997 193.180  0.00  0.00    +0.062 HD
ATOM     61  H   UNL     1     149.647 173.847 194.486  0.00  0.00    +0.062 HD
ATOM     62  H   UNL     1     147.240 174.382 194.220  0.00  0.00    +0.062 HD
ATOM     63  H   UNL     1     145.847 173.090 192.649  0.00  0.00    +0.062 HD
ENDBRANCH  50  53
ENDBRANCH  21  50
BRANCH  15  64
ATOM     64  O   UNL     1     142.506 166.902 185.902  0.00  0.00    -0.377 OA
ATOM     65  H   UNL     1     142.366 167.859 185.821  0.00  0.00    +0.211 HD
ENDBRANCH  15  64
BRANCH   6  66
ATOM     66  O   UNL     1     148.108 164.804 189.246  0.00  0.00    -0.387 OA
ATOM     67  H   UNL     1     149.072 164.680 189.209  0.00  0.00    +0.210 HD
ENDBRANCH   6  66
BRANCH  12  68
ATOM     68  O   UNL     1     143.989 167.572 190.700  0.00  0.00    -0.456 OA
BRANCH  68  69
ATOM     69  C   UNL     1     143.251 168.270 191.603  0.00  0.00    +0.305 C 
ATOM     70  O   UNL     1     143.235 169.486 191.727  0.00  0.00    -0.251 OA
BRANCH  69  71
ATOM     71  C   UNL     1     142.470 167.323 192.462  0.00  0.00    +0.033 C 
ATOM     72  H   UNL     1     142.549 167.632 193.508  0.00  0.00    +0.034 HD
ATOM     73  H   UNL     1     141.416 167.343 192.174  0.00  0.00    +0.034 HD
ATOM     74  H   UNL     1     142.876 166.313 192.363  0.00  0.00    +0.034 HD
ENDBRANCH  69  71
ENDBRANCH  68  69
ENDBRANCH  12  68
TORSDOF 10
ENDMDL
MODEL 9
REMARK VINA RESULT:      -6.1     10.954     13.341
REMARK  Name = Cytochalasin D_conf3
REMARK  10 active torsions:
REMARK  status: ('A' for Active; 'I' for Inactive)
REMARK    1  A    between atoms: C_1  and  C_2
REMARK    2  A    between atoms: C_7  and  O_37
REMARK    3  A    between atoms: C_10  and  C_36
REMARK    4  A    between atoms: C_13  and  O_21
REMARK    5  A    between atoms: C_16  and  C_19
REMARK    6  A    between atoms: C_16  and  O_20
REMARK    7  A    between atoms: O_21  and  C_22
REMARK    8  A    between atoms: C_22  and  C_24
REMARK    9  A    between atoms: C_28  and  C_29
REMARK   10  A    between atoms: C_29  and  C_30
REMARK                            x       y       z     vdW  Elec       q    Type
REMARK                         _______ _______ _______ _____ _____    ______ ____
ROOT
ATOM      1  C   UNL     1     163.718 167.559 181.841  0.00  0.00    +0.021 C 
ATOM      2  C   UNL     1     162.505 167.023 182.616  0.00  0.00    -0.025 C 
ATOM      3  C   UNL     1     161.174 167.587 182.189  0.00  0.00    -0.087 C 
ATOM      4  C   UNL     1     160.254 168.019 183.071  0.00  0.00    -0.081 C 
ATOM      5  C   UNL     1     158.917 168.670 182.713  0.00  0.00    +0.025 C 
ATOM      6  C   UNL     1     157.789 167.657 183.085  0.00  0.00    +0.084 C 
ATOM      7  C   UNL     1     156.403 168.257 183.077  0.00  0.00    -0.045 C 
ATOM      8  C   UNL     1     155.396 167.675 183.752  0.00  0.00    -0.097 C 
ATOM      9  C   UNL     1     156.300 169.538 182.285  0.00  0.00    -0.015 C 
ATOM     10  C   UNL     1     157.187 170.625 182.951  0.00  0.00    +0.002 C 
ATOM     11  C   UNL     1     158.645 170.095 183.328  0.00  0.00    +0.101 C 
ATOM     12  C   UNL     1     159.696 171.191 182.940  0.00  0.00    +0.136 C 
ATOM     13  C   UNL     1     161.137 170.857 183.284  0.00  0.00    -0.044 C 
ATOM     14  C   UNL     1     162.139 170.687 182.400  0.00  0.00    -0.046 C 
ATOM     15  C   UNL     1     163.521 170.115 182.653  0.00  0.00    +0.139 C 
ATOM     16  C   UNL     1     163.740 169.056 181.528  0.00  0.00    +0.171 C 
ATOM     17  O   UNL     1     163.919 169.410 180.352  0.00  0.00    -0.294 OA
ATOM     18  C   UNL     1     158.574 170.023 184.848  0.00  0.00    +0.224 C 
ATOM     19  O   UNL     1     159.384 169.500 185.596  0.00  0.00    -0.275 OA
ATOM     20  N   UNL     1     157.458 170.669 185.296  0.00  0.00    -0.311 N 
ATOM     21  C   UNL     1     156.602 171.196 184.269  0.00  0.00    +0.032 C 
ATOM     22  H   UNL     1     163.690 167.068 180.854  0.00  0.00    +0.038 HD
ATOM     23  H   UNL     1     162.651 167.165 183.693  0.00  0.00    +0.031 HD
ATOM     24  H   UNL     1     162.462 165.935 182.469  0.00  0.00    +0.031 HD
ATOM     25  H   UNL     1     160.982 167.662 181.120  0.00  0.00    +0.057 HD
ATOM     26  H   UNL     1     160.459 167.903 184.136  0.00  0.00    +0.057 HD
ATOM     27  H   UNL     1     158.916 168.787 181.619  0.00  0.00    +0.038 HD
ATOM     28  H   UNL     1     157.985 167.207 184.068  0.00  0.00    +0.065 HD
ATOM     29  H   UNL     1     155.551 166.746 184.293  0.00  0.00    +0.054 HD
ATOM     30  H   UNL     1     154.390 168.080 183.770  0.00  0.00    +0.054 HD
ATOM     31  H   UNL     1     156.733 169.330 181.295  0.00  0.00    +0.035 HD
ATOM     32  H   UNL     1     157.253 171.431 182.213  0.00  0.00    +0.034 HD
ATOM     33  H   UNL     1     159.461 172.111 183.487  0.00  0.00    +0.079 HD
ATOM     34  H   UNL     1     161.325 170.700 184.344  0.00  0.00    +0.061 HD
ATOM     35  H   UNL     1     161.940 170.885 181.345  0.00  0.00    +0.060 HD
ATOM     36  H   UNL     1     157.254 170.701 186.289  0.00  0.00    +0.149 HD
ATOM     37  H   UNL     1     155.608 170.798 184.488  0.00  0.00    +0.050 HD
ENDROOT
BRANCH   1  38
ATOM     38  C   UNL     1     165.033 167.141 182.495  0.00  0.00    -0.055 C 
ATOM     39  H   UNL     1     165.881 167.663 182.036  0.00  0.00    +0.024 HD
ATOM     40  H   UNL     1     165.197 166.065 182.382  0.00  0.00    +0.024 HD
ATOM     41  H   UNL     1     165.047 167.373 183.565  0.00  0.00    +0.024 HD
ENDBRANCH   1  38
BRANCH  15  42
ATOM     42  C   UNL     1     164.578 171.211 182.506  0.00  0.00    -0.025 C 
ATOM     43  H   UNL     1     164.782 171.726 183.452  0.00  0.00    +0.026 HD
ATOM     44  H   UNL     1     164.251 171.964 181.779  0.00  0.00    +0.026 HD
ATOM     45  H   UNL     1     165.522 170.800 182.129  0.00  0.00    +0.026 HD
ENDBRANCH  15  42
BRANCH   9  46
ATOM     46  C   UNL     1     154.882 170.028 181.967  0.00  0.00    -0.058 C 
ATOM     47  H   UNL     1     154.277 170.067 182.880  0.00  0.00    +0.024 HD
ATOM     48  H   UNL     1     154.359 169.396 181.244  0.00  0.00    +0.024 HD
ATOM     49  H   UNL     1     154.911 171.042 181.553  0.00  0.00    +0.024 HD
ENDBRANCH   9  46
BRANCH  21  50
ATOM     50  C   UNL     1     156.562 172.735 184.338  0.00  0.00    -0.009 C 
ATOM     51  H   UNL     1     156.070 173.047 185.270  0.00  0.00    +0.033 HD
ATOM     52  H   UNL     1     157.577 173.145 184.404  0.00  0.00    +0.033 HD
BRANCH  50  53
ATOM     53  C   UNL     1     155.815 173.374 183.192  0.00  0.00    -0.046 A 
ATOM     54  C   UNL     1     156.467 174.257 182.322  0.00  0.00    -0.059 A 
ATOM     55  C   UNL     1     155.780 174.839 181.256  0.00  0.00    -0.062 A 
ATOM     56  C   UNL     1     154.433 174.551 181.052  0.00  0.00    -0.062 A 
ATOM     57  C   UNL     1     153.769 173.686 181.919  0.00  0.00    -0.062 A 
ATOM     58  C   UNL     1     154.455 173.104 182.986  0.00  0.00    -0.059 A 
ATOM     59  H   UNL     1     157.516 174.508 182.473  0.00  0.00    +0.062 HD
ATOM     60  H   UNL     1     156.297 175.525 180.588  0.00  0.00    +0.062 HD
ATOM     61  H   UNL     1     153.899 175.007 180.223  0.00  0.00    +0.062 HD
ATOM     62  H   UNL     1     152.715 173.468 181.766  0.00  0.00    +0.062 HD
ATOM     63  H   UNL     1     153.916 172.437 183.657  0.00  0.00    +0.062 HD
ENDBRANCH  50  53
ENDBRANCH  21  50
BRANCH  15  64
ATOM     64  O   UNL     1     163.645 169.611 183.972  0.00  0.00    -0.377 OA
ATOM     65  H   UNL     1     162.900 169.011 184.139  0.00  0.00    +0.211 HD
ENDBRANCH  15  64
BRANCH   6  66
ATOM     66  O   UNL     1     157.773 166.601 182.121  0.00  0.00    -0.387 OA
ATOM     67  H   UNL     1     158.678 166.247 182.078  0.00  0.00    +0.210 HD
ENDBRANCH   6  66
BRANCH  12  68
ATOM     68  O   UNL     1     159.594 171.403 181.512  0.00  0.00    -0.456 OA
BRANCH  68  69
ATOM     69  C   UNL     1     159.452 172.685 181.083  0.00  0.00    +0.305 C 
ATOM     70  O   UNL     1     159.854 173.682 181.665  0.00  0.00    -0.251 OA
BRANCH  69  71
ATOM     71  C   UNL     1     158.694 172.708 179.792  0.00  0.00    +0.033 C 
ATOM     72  H   UNL     1     157.667 173.036 179.979  0.00  0.00    +0.034 HD
ATOM     73  H   UNL     1     159.161 173.413 179.099  0.00  0.00    +0.034 HD
ATOM     74  H   UNL     1     158.668 171.704 179.360  0.00  0.00    +0.034 HD
ENDBRANCH  69  71
ENDBRANCH  68  69
ENDBRANCH  12  68
TORSDOF 10
ENDMDL
MODEL 10
REMARK VINA RESULT:      -6.1     18.542     21.330
REMARK  Name = Cytochalasin D_conf3
REMARK  10 active torsions:
REMARK  status: ('A' for Active; 'I' for Inactive)
REMARK    1  A    between atoms: C_1  and  C_2
REMARK    2  A    between atoms: C_7  and  O_37
REMARK    3  A    between atoms: C_10  and  C_36
REMARK    4  A    between atoms: C_13  and  O_21
REMARK    5  A    between atoms: C_16  and  C_19
REMARK    6  A    between atoms: C_16  and  O_20
REMARK    7  A    between atoms: O_21  and  C_22
REMARK    8  A    between atoms: C_22  and  C_24
REMARK    9  A    between atoms: C_28  and  C_29
REMARK   10  A    between atoms: C_29  and  C_30
REMARK                            x       y       z     vdW  Elec       q    Type
REMARK                         _______ _______ _______ _____ _____    ______ ____
ROOT
ATOM      1  C   UNL     1     132.256 169.486 201.639  0.00  0.00    +0.021 C 
ATOM      2  C   UNL     1     132.422 168.193 202.453  0.00  0.00    -0.025 C 
ATOM      3  C   UNL     1     133.146 167.079 201.743  0.00  0.00    -0.087 C 
ATOM      4  C   UNL     1     132.701 165.809 201.745  0.00  0.00    -0.081 C 
ATOM      5  C   UNL     1     133.338 164.643 200.988  0.00  0.00    +0.025 C 
ATOM      6  C   UNL     1     133.977 163.691 202.047  0.00  0.00    +0.084 C 
ATOM      7  C   UNL     1     134.380 162.345 201.492  0.00  0.00    -0.045 C 
ATOM      8  C   UNL     1     134.550 161.286 202.304  0.00  0.00    -0.097 C 
ATOM      9  C   UNL     1     134.535 162.328 199.990  0.00  0.00    -0.015 C 
ATOM     10  C   UNL     1     133.159 162.619 199.331  0.00  0.00    +0.002 C 
ATOM     11  C   UNL     1     132.402 163.860 199.991  0.00  0.00    +0.101 C 
ATOM     12  C   UNL     1     131.779 164.735 198.849  0.00  0.00    +0.136 C 
ATOM     13  C   UNL     1     130.977 165.936 199.318  0.00  0.00    -0.044 C 
ATOM     14  C   UNL     1     131.279 167.227 199.083  0.00  0.00    -0.046 C 
ATOM     15  C   UNL     1     130.671 168.461 199.723  0.00  0.00    +0.139 C 
ATOM     16  C   UNL     1     131.887 169.336 200.163  0.00  0.00    +0.171 C 
ATOM     17  O   UNL     1     132.588 169.914 199.318  0.00  0.00    -0.294 OA
ATOM     18  C   UNL     1     131.265 163.178 200.739  0.00  0.00    +0.224 C 
ATOM     19  O   UNL     1     130.512 163.688 201.553  0.00  0.00    -0.275 OA
ATOM     20  N   UNL     1     131.166 161.872 200.353  0.00  0.00    -0.311 N 
ATOM     21  C   UNL     1     132.159 161.437 199.410  0.00  0.00    +0.032 C 
ATOM     22  H   UNL     1     133.245 169.970 201.632  0.00  0.00    +0.038 HD
ATOM     23  H   UNL     1     131.447 167.846 202.815  0.00  0.00    +0.031 HD
ATOM     24  H   UNL     1     132.998 168.434 203.358  0.00  0.00    +0.031 HD
ATOM     25  H   UNL     1     134.048 167.340 201.192  0.00  0.00    +0.057 HD
ATOM     26  H   UNL     1     131.813 165.570 202.331  0.00  0.00    +0.057 HD
ATOM     27  H   UNL     1     134.154 165.075 200.390  0.00  0.00    +0.038 HD
ATOM     28  H   UNL     1     133.292 163.544 202.894  0.00  0.00    +0.065 HD
ATOM     29  H   UNL     1     134.427 161.384 203.380  0.00  0.00    +0.054 HD
ATOM     30  H   UNL     1     134.837 160.306 201.940  0.00  0.00    +0.054 HD
ATOM     31  H   UNL     1     135.200 163.167 199.735  0.00  0.00    +0.035 HD
ATOM     32  H   UNL     1     133.385 162.825 198.280  0.00  0.00    +0.034 HD
ATOM     33  H   UNL     1     131.084 164.115 198.272  0.00  0.00    +0.079 HD
ATOM     34  H   UNL     1     130.117 165.692 199.939  0.00  0.00    +0.061 HD
ATOM     35  H   UNL     1     132.123 167.451 198.428  0.00  0.00    +0.060 HD
ATOM     36  H   UNL     1     130.464 161.271 200.769  0.00  0.00    +0.149 HD
ATOM     37  H   UNL     1     132.607 160.543 199.852  0.00  0.00    +0.050 HD
ENDROOT
BRANCH   1  38
ATOM     38  C   UNL     1     131.300 170.462 202.322  0.00  0.00    -0.055 C 
ATOM     39  H   UNL     1     130.950 171.224 201.616  0.00  0.00    +0.024 HD
ATOM     40  H   UNL     1     131.797 170.973 203.152  0.00  0.00    +0.024 HD
ATOM     41  H   UNL     1     130.417 169.954 202.721  0.00  0.00    +0.024 HD
ENDBRANCH   1  38
BRANCH  15  42
ATOM     42  C   UNL     1     129.855 169.240 198.690  0.00  0.00    -0.025 C 
ATOM     43  H   UNL     1     129.957 170.325 198.807  0.00  0.00    +0.026 HD
ATOM     44  H   UNL     1     128.791 168.993 198.776  0.00  0.00    +0.026 HD
ATOM     45  H   UNL     1     130.157 168.976 197.669  0.00  0.00    +0.026 HD
ENDBRANCH  15  42
BRANCH   9  46
ATOM     46  C   UNL     1     135.243 161.105 199.394  0.00  0.00    -0.058 C 
ATOM     47  H   UNL     1     135.962 161.414 198.628  0.00  0.00    +0.024 HD
ATOM     48  H   UNL     1     134.554 160.388 198.939  0.00  0.00    +0.024 HD
ATOM     49  H   UNL     1     135.804 160.572 200.170  0.00  0.00    +0.024 HD
ENDBRANCH   9  46
BRANCH  21  50
ATOM     50  C   UNL     1     131.501 161.065 198.066  0.00  0.00    -0.009 C 
ATOM     51  H   UNL     1     130.443 160.815 198.234  0.00  0.00    +0.033 HD
ATOM     52  H   UNL     1     131.483 161.930 197.393  0.00  0.00    +0.033 HD
BRANCH  50  53
ATOM     53  C   UNL     1     132.145 159.884 197.382  0.00  0.00    -0.046 A 
ATOM     54  C   UNL     1     132.847 158.927 198.126  0.00  0.00    -0.059 A 
ATOM     55  C   UNL     1     133.433 157.828 197.495  0.00  0.00    -0.062 A 
ATOM     56  C   UNL     1     133.330 157.678 196.114  0.00  0.00    -0.062 A 
ATOM     57  C   UNL     1     132.647 158.631 195.361  0.00  0.00    -0.062 A 
ATOM     58  C   UNL     1     132.061 159.731 195.991  0.00  0.00    -0.059 A 
ATOM     59  H   UNL     1     132.953 159.033 199.204  0.00  0.00    +0.062 HD
ATOM     60  H   UNL     1     133.978 157.093 198.083  0.00  0.00    +0.062 HD
ATOM     61  H   UNL     1     133.788 156.825 195.624  0.00  0.00    +0.062 HD
ATOM     62  H   UNL     1     132.574 158.520 194.283  0.00  0.00    +0.062 HD
ATOM     63  H   UNL     1     131.539 160.468 195.384  0.00  0.00    +0.062 HD
ENDBRANCH  50  53
ENDBRANCH  21  50
BRANCH  15  64
ATOM     64  O   UNL     1     129.778 168.121 200.768  0.00  0.00    -0.377 OA
ATOM     65  H   UNL     1     129.114 167.509 200.414  0.00  0.00    +0.211 HD
ENDBRANCH  15  64
BRANCH   6  66
ATOM     66  O   UNL     1     135.172 164.289 202.554  0.00  0.00    -0.387 OA
ATOM     67  H   UNL     1     135.566 163.648 203.170  0.00  0.00    +0.210 HD
ENDBRANCH   6  66
BRANCH  12  68
ATOM     68  O   UNL     1     132.867 165.199 198.014  0.00  0.00    -0.456 OA
BRANCH  68  69
ATOM     69  C   UNL     1     132.618 165.326 196.684  0.00  0.00    +0.305 C 
ATOM     70  O   UNL     1     132.935 166.277 195.985  0.00  0.00    -0.251 OA
BRANCH  69  71
ATOM     71  C   UNL     1     131.858 164.132 196.193  0.00  0.00    +0.033 C 
ATOM     72  H   UNL     1     132.561 163.389 195.806  0.00  0.00    +0.034 HD
ATOM     73  H   UNL     1     131.299 163.683 197.017  0.00  0.00    +0.034 HD
ATOM     74  H   UNL     1     131.183 164.430 195.386  0.00  0.00    +0.034 HD
ENDBRANCH  69  71
ENDBRANCH  68  69
ENDBRANCH  12  68
TORSDOF 10
ENDMDL
