MODEL 1
REMARK VINA RESULT:      -7.5      0.000      0.000
REMARK  Name = Cytochalasin D_conf1
REMARK  10 active torsions:
REMARK  status: ('A' for Active; 'I' for Inactive)
REMARK    1  A    between atoms: C_1  and  C_2
REMARK    2  A    between atoms: C_7  and  O_37
REMARK    3  A    between atoms: C_10  and  C_36
REMARK    4  A    between atoms: C_13  and  O_21
REMARK    5  A    between atoms: C_16  and  C_19
REMARK    6  A    between atoms: C_16  and  O_20
REMARK    7  A    between atoms: O_21  and  C_22
REMARK    8  A    between atoms: C_22  and  C_24
REMARK    9  A    between atoms: C_28  and  C_29
REMARK   10  A    between atoms: C_29  and  C_30
REMARK                            x       y       z     vdW  Elec       q    Type
REMARK                         _______ _______ _______ _____ _____    ______ ____
ROOT
ATOM      1  C   UNL     1     154.275 163.978 188.278  0.00  0.00    +0.021 C 
ATOM      2  C   UNL     1     153.762 163.662 189.693  0.00  0.00    -0.025 C 
ATOM      3  C   UNL     1     152.357 164.155 189.922  0.00  0.00    -0.087 C 
ATOM      4  C   UNL     1     152.046 165.197 190.712  0.00  0.00    -0.081 C 
ATOM      5  C   UNL     1     150.623 165.710 190.941  0.00  0.00    +0.025 C 
ATOM      6  C   UNL     1     150.242 165.498 192.435  0.00  0.00    +0.084 C 
ATOM      7  C   UNL     1     148.877 166.048 192.796  0.00  0.00    -0.045 C 
ATOM      8  C   UNL     1     148.470 166.060 194.079  0.00  0.00    -0.097 C 
ATOM      9  C   UNL     1     148.071 166.574 191.625  0.00  0.00    -0.015 C 
ATOM     10  C   UNL     1     148.884 167.669 190.888  0.00  0.00    +0.002 C 
ATOM     11  C   UNL     1     150.342 167.187 190.468  0.00  0.00    +0.101 C 
ATOM     12  C   UNL     1     150.502 167.372 188.917  0.00  0.00    +0.136 C 
ATOM     13  C   UNL     1     151.926 167.361 188.397  0.00  0.00    -0.044 C 
ATOM     14  C   UNL     1     152.486 166.443 187.587  0.00  0.00    -0.046 C 
ATOM     15  C   UNL     1     153.939 166.380 187.192  0.00  0.00    +0.139 C 
ATOM     16  C   UNL     1     154.692 165.447 188.180  0.00  0.00    +0.171 C 
ATOM     17  O   UNL     1     155.611 165.896 188.877  0.00  0.00    -0.294 OA
ATOM     18  C   UNL     1     151.238 168.155 191.235  0.00  0.00    +0.224 C 
ATOM     19  O   UNL     1     152.457 168.145 191.300  0.00  0.00    -0.275 OA
ATOM     20  N   UNL     1     150.489 169.069 191.918  0.00  0.00    -0.311 N 
ATOM     21  C   UNL     1     149.077 168.950 191.738  0.00  0.00    +0.032 C 
ATOM     22  H   UNL     1     153.492 163.764 187.543  0.00  0.00    +0.038 HD
ATOM     23  H   UNL     1     154.440 164.077 190.450  0.00  0.00    +0.031 HD
ATOM     24  H   UNL     1     153.753 162.576 189.851  0.00  0.00    +0.031 HD
ATOM     25  H   UNL     1     151.565 163.619 189.401  0.00  0.00    +0.057 HD
ATOM     26  H   UNL     1     152.849 165.723 191.229  0.00  0.00    +0.057 HD
ATOM     27  H   UNL     1     149.969 165.044 190.361  0.00  0.00    +0.038 HD
ATOM     28  H   UNL     1     150.999 165.948 193.091  0.00  0.00    +0.065 HD
ATOM     29  H   UNL     1     149.104 165.655 194.864  0.00  0.00    +0.054 HD
ATOM     30  H   UNL     1     147.503 166.439 194.391  0.00  0.00    +0.054 HD
ATOM     31  H   UNL     1     147.933 165.734 190.929  0.00  0.00    +0.035 HD
ATOM     32  H   UNL     1     148.301 167.924 189.999  0.00  0.00    +0.034 HD
ATOM     33  H   UNL     1     150.090 168.339 188.613  0.00  0.00    +0.079 HD
ATOM     34  H   UNL     1     152.547 168.184 188.749  0.00  0.00    +0.061 HD
ATOM     35  H   UNL     1     151.874 165.616 187.234  0.00  0.00    +0.060 HD
ATOM     36  H   UNL     1     150.945 169.753 192.509  0.00  0.00    +0.149 HD
ATOM     37  H   UNL     1     148.673 168.817 192.746  0.00  0.00    +0.050 HD
ENDROOT
BRANCH   1  38
ATOM     38  C   UNL     1     155.487 163.113 187.933  0.00  0.00    -0.055 C 
ATOM     39  H   UNL     1     155.716 163.148 186.863  0.00  0.00    +0.024 HD
ATOM     40  H   UNL     1     155.307 162.066 188.199  0.00  0.00    +0.024 HD
ATOM     41  H   UNL     1     156.374 163.451 188.480  0.00  0.00    +0.024 HD
ENDBRANCH   1  38
BRANCH  15  42
ATOM     42  C   UNL     1     154.123 165.915 185.750  0.00  0.00    -0.025 C 
ATOM     43  H   UNL     1     154.883 165.133 185.654  0.00  0.00    +0.026 HD
ATOM     44  H   UNL     1     153.182 165.529 185.339  0.00  0.00    +0.026 HD
ATOM     45  H   UNL     1     154.423 166.753 185.110  0.00  0.00    +0.026 HD
ENDBRANCH  15  42
BRANCH   9  46
ATOM     46  C   UNL     1     146.645 167.050 191.941  0.00  0.00    -0.058 C 
ATOM     47  H   UNL     1     146.535 167.240 193.014  0.00  0.00    +0.024 HD
ATOM     48  H   UNL     1     146.426 167.989 191.420  0.00  0.00    +0.024 HD
ATOM     49  H   UNL     1     145.881 166.321 191.653  0.00  0.00    +0.024 HD
ENDBRANCH   9  46
BRANCH  21  50
ATOM     50  C   UNL     1     148.427 170.232 191.175  0.00  0.00    -0.009 C 
ATOM     51  H   UNL     1     148.941 170.508 190.245  0.00  0.00    +0.033 HD
ATOM     52  H   UNL     1     147.396 170.000 190.877  0.00  0.00    +0.033 HD
BRANCH  50  53
ATOM     53  C   UNL     1     148.370 171.430 192.092  0.00  0.00    -0.046 A 
ATOM     54  C   UNL     1     149.509 171.844 192.792  0.00  0.00    -0.059 A 
ATOM     55  C   UNL     1     149.457 172.941 193.653  0.00  0.00    -0.062 A 
ATOM     56  C   UNL     1     148.267 173.645 193.818  0.00  0.00    -0.062 A 
ATOM     57  C   UNL     1     147.131 173.255 193.115  0.00  0.00    -0.062 A 
ATOM     58  C   UNL     1     147.183 172.159 192.253  0.00  0.00    -0.059 A 
ATOM     59  H   UNL     1     150.449 171.301 192.696  0.00  0.00    +0.062 HD
ATOM     60  H   UNL     1     150.345 173.234 194.207  0.00  0.00    +0.062 HD
ATOM     61  H   UNL     1     148.226 174.493 194.495  0.00  0.00    +0.062 HD
ATOM     62  H   UNL     1     146.201 173.804 193.241  0.00  0.00    +0.062 HD
ATOM     63  H   UNL     1     146.283 171.879 191.711  0.00  0.00    +0.062 HD
ENDBRANCH  50  53
ENDBRANCH  21  50
BRANCH  15  64
ATOM     64  O   UNL     1     154.507 167.691 187.268  0.00  0.00    -0.377 OA
ATOM     65  H   UNL     1     154.020 168.148 187.986  0.00  0.00    +0.211 HD
ENDBRANCH  15  64
BRANCH   6  66
ATOM     66  O   UNL     1     150.193 164.095 192.719  0.00  0.00    -0.387 OA
ATOM     67  H   UNL     1     149.975 164.010 193.663  0.00  0.00    +0.210 HD
ENDBRANCH   6  66
BRANCH  12  68
ATOM     68  O   UNL     1     149.787 166.290 188.260  0.00  0.00    -0.456 OA
BRANCH  68  69
ATOM     69  C   UNL     1     148.659 166.566 187.562  0.00  0.00    +0.305 C 
ATOM     70  O   UNL     1     147.527 166.206 187.843  0.00  0.00    -0.251 OA
BRANCH  69  71
ATOM     71  C   UNL     1     149.006 167.355 186.336  0.00  0.00    +0.033 C 
ATOM     72  H   UNL     1     148.906 166.721 185.451  0.00  0.00    +0.034 HD
ATOM     73  H   UNL     1     148.325 168.207 186.247  0.00  0.00    +0.034 HD
ATOM     74  H   UNL     1     150.026 167.743 186.417  0.00  0.00    +0.034 HD
ENDBRANCH  69  71
ENDBRANCH  68  69
ENDBRANCH  12  68
TORSDOF 10
ENDMDL
MODEL 2
REMARK VINA RESULT:      -7.5      2.983      7.848
REMARK  Name = Cytochalasin D_conf1
REMARK  10 active torsions:
REMARK  status: ('A' for Active; 'I' for Inactive)
REMARK    1  A    between atoms: C_1  and  C_2
REMARK    2  A    between atoms: C_7  and  O_37
REMARK    3  A    between atoms: C_10  and  C_36
REMARK    4  A    between atoms: C_13  and  O_21
REMARK    5  A    between atoms: C_16  and  C_19
REMARK    6  A    between atoms: C_16  and  O_20
REMARK    7  A    between atoms: O_21  and  C_22
REMARK    8  A    between atoms: C_22  and  C_24
REMARK    9  A    between atoms: C_28  and  C_29
REMARK   10  A    between atoms: C_29  and  C_30
REMARK                            x       y       z     vdW  Elec       q    Type
REMARK                         _______ _______ _______ _____ _____    ______ ____
ROOT
ATOM      1  C   UNL     1     143.607 167.094 192.471  0.00  0.00    +0.021 C 
ATOM      2  C   UNL     1     144.436 166.221 193.429  0.00  0.00    -0.025 C 
ATOM      3  C   UNL     1     145.883 166.639 193.485  0.00  0.00    -0.087 C 
ATOM      4  C   UNL     1     146.892 165.928 192.954  0.00  0.00    -0.081 C 
ATOM      5  C   UNL     1     148.361 166.350 192.998  0.00  0.00    +0.025 C 
ATOM      6  C   UNL     1     149.158 165.326 193.855  0.00  0.00    +0.084 C 
ATOM      7  C   UNL     1     150.648 165.601 193.899  0.00  0.00    -0.045 C 
ATOM      8  C   UNL     1     151.481 164.723 194.488  0.00  0.00    -0.097 C 
ATOM      9  C   UNL     1     151.078 166.891 193.229  0.00  0.00    -0.015 C 
ATOM     10  C   UNL     1     150.603 166.890 191.753  0.00  0.00    +0.002 C 
ATOM     11  C   UNL     1     149.045 166.604 191.600  0.00  0.00    +0.101 C 
ATOM     12  C   UNL     1     148.394 167.794 190.809  0.00  0.00    +0.136 C 
ATOM     13  C   UNL     1     147.027 167.518 190.214  0.00  0.00    -0.044 C 
ATOM     14  C   UNL     1     145.861 168.096 190.556  0.00  0.00    -0.046 C 
ATOM     15  C   UNL     1     144.497 167.710 190.045  0.00  0.00    +0.139 C 
ATOM     16  C   UNL     1     143.863 166.681 191.021  0.00  0.00    +0.171 C 
ATOM     17  O   UNL     1     143.578 165.545 190.622  0.00  0.00    -0.294 OA
ATOM     18  C   UNL     1     149.029 165.319 190.777  0.00  0.00    +0.224 C 
ATOM     19  O   UNL     1     148.057 164.653 190.458  0.00  0.00    -0.275 OA
ATOM     20  N   UNL     1     150.298 164.943 190.444  0.00  0.00    -0.311 N 
ATOM     21  C   UNL     1     151.327 165.828 190.889  0.00  0.00    +0.032 C 
ATOM     22  H   UNL     1     143.869 168.148 192.610  0.00  0.00    +0.038 HD
ATOM     23  H   UNL     1     144.356 165.162 193.152  0.00  0.00    +0.031 HD
ATOM     24  H   UNL     1     144.037 166.303 194.448  0.00  0.00    +0.031 HD
ATOM     25  H   UNL     1     146.095 167.580 193.991  0.00  0.00    +0.057 HD
ATOM     26  H   UNL     1     146.664 164.987 192.453  0.00  0.00    +0.057 HD
ATOM     27  H   UNL     1     148.382 167.298 193.556  0.00  0.00    +0.038 HD
ATOM     28  H   UNL     1     148.990 164.305 193.487  0.00  0.00    +0.065 HD
ATOM     29  H   UNL     1     151.094 163.822 194.957  0.00  0.00    +0.054 HD
ATOM     30  H   UNL     1     152.553 164.873 194.550  0.00  0.00    +0.054 HD
ATOM     31  H   UNL     1     150.558 167.709 193.747  0.00  0.00    +0.035 HD
ATOM     32  H   UNL     1     150.844 167.883 191.363  0.00  0.00    +0.034 HD
ATOM     33  H   UNL     1     149.029 168.070 189.962  0.00  0.00    +0.079 HD
ATOM     34  H   UNL     1     147.013 166.749 189.441  0.00  0.00    +0.061 HD
ATOM     35  H   UNL     1     145.866 168.862 191.329  0.00  0.00    +0.060 HD
ATOM     36  H   UNL     1     150.451 164.083 189.932  0.00  0.00    +0.149 HD
ATOM     37  H   UNL     1     151.990 165.208 191.501  0.00  0.00    +0.050 HD
ENDROOT
BRANCH   1  38
ATOM     38  C   UNL     1     142.112 166.942 192.755  0.00  0.00    -0.055 C 
ATOM     39  H   UNL     1     141.593 167.905 192.706  0.00  0.00    +0.024 HD
ATOM     40  H   UNL     1     141.946 166.526 193.754  0.00  0.00    +0.024 HD
ATOM     41  H   UNL     1     141.645 166.268 192.028  0.00  0.00    +0.024 HD
ENDBRANCH   1  38
BRANCH  15  42
ATOM     42  C   UNL     1     143.589 168.923 189.861  0.00  0.00    -0.025 C 
ATOM     43  H   UNL     1     142.599 168.653 189.477  0.00  0.00    +0.026 HD
ATOM     44  H   UNL     1     143.453 169.460 190.807  0.00  0.00    +0.026 HD
ATOM     45  H   UNL     1     144.035 169.636 189.158  0.00  0.00    +0.026 HD
ENDBRANCH  15  42
BRANCH   9  46
ATOM     46  C   UNL     1     152.568 167.250 193.340  0.00  0.00    -0.058 C 
ATOM     47  H   UNL     1     152.988 166.854 194.270  0.00  0.00    +0.024 HD
ATOM     48  H   UNL     1     153.135 166.807 192.513  0.00  0.00    +0.024 HD
ATOM     49  H   UNL     1     152.746 168.329 193.328  0.00  0.00    +0.024 HD
ENDBRANCH   9  46
BRANCH  21  50
ATOM     50  C   UNL     1     152.192 166.380 189.735  0.00  0.00    -0.009 C 
ATOM     51  H   UNL     1     151.612 166.329 188.805  0.00  0.00    +0.033 HD
ATOM     52  H   UNL     1     152.365 167.451 189.909  0.00  0.00    +0.033 HD
BRANCH  50  53
ATOM     53  C   UNL     1     153.541 165.738 189.523  0.00  0.00    -0.046 A 
ATOM     54  C   UNL     1     153.653 164.348 189.389  0.00  0.00    -0.059 A 
ATOM     55  C   UNL     1     154.900 163.748 189.209  0.00  0.00    -0.062 A 
ATOM     56  C   UNL     1     156.051 164.530 189.149  0.00  0.00    -0.062 A 
ATOM     57  C   UNL     1     155.953 165.914 189.263  0.00  0.00    -0.062 A 
ATOM     58  C   UNL     1     154.706 166.514 189.442  0.00  0.00    -0.059 A 
ATOM     59  H   UNL     1     152.772 163.711 189.450  0.00  0.00    +0.062 HD
ATOM     60  H   UNL     1     154.971 162.667 189.131  0.00  0.00    +0.062 HD
ATOM     61  H   UNL     1     157.022 164.060 189.017  0.00  0.00    +0.062 HD
ATOM     62  H   UNL     1     156.850 166.526 189.216  0.00  0.00    +0.062 HD
ATOM     63  H   UNL     1     154.657 167.597 189.522  0.00  0.00    +0.062 HD
ENDBRANCH  50  53
ENDBRANCH  21  50
BRANCH  15  64
ATOM     64  O   UNL     1     144.630 167.106 188.755  0.00  0.00    -0.377 OA
ATOM     65  H   UNL     1     144.536 166.142 188.904  0.00  0.00    +0.211 HD
ENDBRANCH  15  64
BRANCH   6  66
ATOM     66  O   UNL     1     148.703 165.384 195.211  0.00  0.00    -0.387 OA
ATOM     67  H   UNL     1     148.781 166.312 195.492  0.00  0.00    +0.210 HD
ENDBRANCH   6  66
BRANCH  12  68
ATOM     68  O   UNL     1     148.255 168.917 191.722  0.00  0.00    -0.456 OA
BRANCH  68  69
ATOM     69  C   UNL     1     148.667 170.146 191.330  0.00  0.00    +0.305 C 
ATOM     70  O   UNL     1     148.064 170.914 190.597  0.00  0.00    -0.251 OA
BRANCH  69  71
ATOM     71  C   UNL     1     150.027 170.425 191.895  0.00  0.00    +0.033 C 
ATOM     72  H   UNL     1     150.551 171.140 191.256  0.00  0.00    +0.034 HD
ATOM     73  H   UNL     1     149.924 170.849 192.898  0.00  0.00    +0.034 HD
ATOM     74  H   UNL     1     150.595 169.494 191.977  0.00  0.00    +0.034 HD
ENDBRANCH  69  71
ENDBRANCH  68  69
ENDBRANCH  12  68
TORSDOF 10
ENDMDL
MODEL 3
REMARK VINA RESULT:      -7.3      3.266      8.015
REMARK  Name = Cytochalasin D_conf1
REMARK  10 active torsions:
REMARK  status: ('A' for Active; 'I' for Inactive)
REMARK    1  A    between atoms: C_1  and  C_2
REMARK    2  A    between atoms: C_7  and  O_37
REMARK    3  A    between atoms: C_10  and  C_36
REMARK    4  A    between atoms: C_13  and  O_21
REMARK    5  A    between atoms: C_16  and  C_19
REMARK    6  A    between atoms: C_16  and  O_20
REMARK    7  A    between atoms: O_21  and  C_22
REMARK    8  A    between atoms: C_22  and  C_24
REMARK    9  A    between atoms: C_28  and  C_29
REMARK   10  A    between atoms: C_29  and  C_30
REMARK                            x       y       z     vdW  Elec       q    Type
REMARK                         _______ _______ _______ _____ _____    ______ ____
ROOT
ATOM      1  C   UNL     1     143.692 169.534 190.100  0.00  0.00    +0.021 C 
ATOM      2  C   UNL     1     144.832 170.476 190.523  0.00  0.00    -0.025 C 
ATOM      3  C   UNL     1     146.193 169.857 190.336  0.00  0.00    -0.087 C 
ATOM      4  C   UNL     1     146.981 169.456 191.349  0.00  0.00    -0.081 C 
ATOM      5  C   UNL     1     148.359 168.817 191.167  0.00  0.00    +0.025 C 
ATOM      6  C   UNL     1     149.440 169.763 191.766  0.00  0.00    +0.084 C 
ATOM      7  C   UNL     1     150.842 169.191 191.716  0.00  0.00    -0.045 C 
ATOM      8  C   UNL     1     151.858 169.836 192.318  0.00  0.00    -0.097 C 
ATOM      9  C   UNL     1     150.967 167.876 190.971  0.00  0.00    -0.015 C 
ATOM     10  C   UNL     1     150.012 166.831 191.603  0.00  0.00    +0.002 C 
ATOM     11  C   UNL     1     148.508 167.342 191.705  0.00  0.00    +0.101 C 
ATOM     12  C   UNL     1     147.581 166.322 190.953  0.00  0.00    +0.136 C 
ATOM     13  C   UNL     1     146.104 166.409 191.281  0.00  0.00    -0.044 C 
ATOM     14  C   UNL     1     145.108 166.773 190.452  0.00  0.00    -0.046 C 
ATOM     15  C   UNL     1     143.666 166.981 190.837  0.00  0.00    +0.139 C 
ATOM     16  C   UNL     1     143.446 168.480 191.181  0.00  0.00    +0.171 C 
ATOM     17  O   UNL     1     143.082 168.806 192.318  0.00  0.00    -0.294 OA
ATOM     18  C   UNL     1     148.255 167.313 193.209  0.00  0.00    +0.224 C 
ATOM     19  O   UNL     1     147.257 167.691 193.802  0.00  0.00    -0.275 OA
ATOM     20  N   UNL     1     149.343 166.825 193.872  0.00  0.00    -0.311 N 
ATOM     21  C   UNL     1     150.430 166.423 193.037  0.00  0.00    +0.032 C 
ATOM     22  H   UNL     1     143.948 169.044 189.155  0.00  0.00    +0.038 HD
ATOM     23  H   UNL     1     144.699 170.799 191.564  0.00  0.00    +0.031 HD
ATOM     24  H   UNL     1     144.806 171.388 189.913  0.00  0.00    +0.031 HD
ATOM     25  H   UNL     1     146.533 169.736 189.309  0.00  0.00    +0.057 HD
ATOM     26  H   UNL     1     146.629 169.585 192.372  0.00  0.00    +0.057 HD
ATOM     27  H   UNL     1     148.538 168.796 190.083  0.00  0.00    +0.038 HD
ATOM     28  H   UNL     1     149.191 170.021 192.804  0.00  0.00    +0.065 HD
ATOM     29  H   UNL     1     151.689 170.782 192.825  0.00  0.00    +0.054 HD
ATOM     30  H   UNL     1     152.879 169.471 192.309  0.00  0.00    +0.054 HD
ATOM     31  H   UNL     1     150.630 168.058 189.941  0.00  0.00    +0.035 HD
ATOM     32  H   UNL     1     150.067 165.950 190.958  0.00  0.00    +0.034 HD
ATOM     33  H   UNL     1     147.875 165.298 191.203  0.00  0.00    +0.079 HD
ATOM     34  H   UNL     1     145.852 166.166 192.314  0.00  0.00    +0.061 HD
ATOM     35  H   UNL     1     145.353 167.020 189.421  0.00  0.00    +0.060 HD
ATOM     36  H   UNL     1     149.341 166.785 194.884  0.00  0.00    +0.149 HD
ATOM     37  H   UNL     1     151.286 167.014 193.381  0.00  0.00    +0.050 HD
ENDROOT
BRANCH   1  38
ATOM     38  C   UNL     1     142.394 170.313 189.888  0.00  0.00    -0.055 C 
ATOM     39  H   UNL     1     141.699 170.173 190.722  0.00  0.00    +0.024 HD
ATOM     40  H   UNL     1     141.887 169.983 188.975  0.00  0.00    +0.024 HD
ATOM     41  H   UNL     1     142.596 171.385 189.792  0.00  0.00    +0.024 HD
ENDBRANCH   1  38
BRANCH  15  42
ATOM     42  C   UNL     1     142.708 166.523 189.742  0.00  0.00    -0.025 C 
ATOM     43  H   UNL     1     142.501 167.309 189.007  0.00  0.00    +0.026 HD
ATOM     44  H   UNL     1     143.108 165.653 189.207  0.00  0.00    +0.026 HD
ATOM     45  H   UNL     1     141.749 166.211 190.174  0.00  0.00    +0.026 HD
ENDBRANCH  15  42
BRANCH   9  46
ATOM     46  C   UNL     1     152.389 167.316 190.817  0.00  0.00    -0.058 C 
ATOM     47  H   UNL     1     152.475 166.741 189.888  0.00  0.00    +0.024 HD
ATOM     48  H   UNL     1     153.123 168.130 190.764  0.00  0.00    +0.024 HD
ATOM     49  H   UNL     1     152.678 166.658 191.642  0.00  0.00    +0.024 HD
ENDBRANCH   9  46
BRANCH  21  50
ATOM     50  C   UNL     1     150.823 164.942 193.225  0.00  0.00    -0.009 C 
ATOM     51  H   UNL     1     151.894 164.888 193.459  0.00  0.00    +0.033 HD
ATOM     52  H   UNL     1     150.312 164.554 194.117  0.00  0.00    +0.033 HD
BRANCH  50  53
ATOM     53  C   UNL     1     150.510 164.001 192.087  0.00  0.00    -0.046 A 
ATOM     54  C   UNL     1     151.497 163.662 191.153  0.00  0.00    -0.059 A 
ATOM     55  C   UNL     1     151.208 162.805 190.090  0.00  0.00    -0.062 A 
ATOM     56  C   UNL     1     149.932 162.267 189.952  0.00  0.00    -0.062 A 
ATOM     57  C   UNL     1     148.945 162.581 190.883  0.00  0.00    -0.062 A 
ATOM     58  C   UNL     1     149.234 163.437 191.946  0.00  0.00    -0.059 A 
ATOM     59  H   UNL     1     152.499 164.082 191.227  0.00  0.00    +0.062 HD
ATOM     60  H   UNL     1     151.980 162.572 189.362  0.00  0.00    +0.062 HD
ATOM     61  H   UNL     1     149.706 161.607 189.119  0.00  0.00    +0.062 HD
ATOM     62  H   UNL     1     147.948 162.162 190.777  0.00  0.00    +0.062 HD
ATOM     63  H   UNL     1     148.447 163.662 192.662  0.00  0.00    +0.062 HD
ENDBRANCH  50  53
ENDBRANCH  21  50
BRANCH  15  64
ATOM     64  O   UNL     1     143.367 166.191 191.991  0.00  0.00    -0.377 OA
ATOM     65  H   UNL     1     144.209 165.756 192.239  0.00  0.00    +0.211 HD
ENDBRANCH  15  64
BRANCH   6  66
ATOM     66  O   UNL     1     149.479 170.979 191.010  0.00  0.00    -0.387 OA
ATOM     67  H   UNL     1     150.257 171.474 191.319  0.00  0.00    +0.210 HD
ENDBRANCH   6  66
BRANCH  12  68
ATOM     68  O   UNL     1     147.726 166.553 189.524  0.00  0.00    -0.456 OA
BRANCH  68  69
ATOM     69  C   UNL     1     148.055 165.519 188.714  0.00  0.00    +0.305 C 
ATOM     70  O   UNL     1     147.334 164.583 188.404  0.00  0.00    -0.251 OA
BRANCH  69  71
ATOM     71  C   UNL     1     149.482 165.656 188.276  0.00  0.00    +0.033 C 
ATOM     72  H   UNL     1     149.594 166.557 187.668  0.00  0.00    +0.034 HD
ATOM     73  H   UNL     1     150.126 165.735 189.157  0.00  0.00    +0.034 HD
ATOM     74  H   UNL     1     149.786 164.770 187.711  0.00  0.00    +0.034 HD
ENDBRANCH  69  71
ENDBRANCH  68  69
ENDBRANCH  12  68
TORSDOF 10
ENDMDL
MODEL 4
REMARK VINA RESULT:      -7.1      9.713     12.589
REMARK  Name = Cytochalasin D_conf1
REMARK  10 active torsions:
REMARK  status: ('A' for Active; 'I' for Inactive)
REMARK    1  A    between atoms: C_1  and  C_2
REMARK    2  A    between atoms: C_7  and  O_37
REMARK    3  A    between atoms: C_10  and  C_36
REMARK    4  A    between atoms: C_13  and  O_21
REMARK    5  A    between atoms: C_16  and  C_19
REMARK    6  A    between atoms: C_16  and  O_20
REMARK    7  A    between atoms: O_21  and  C_22
REMARK    8  A    between atoms: C_22  and  C_24
REMARK    9  A    between atoms: C_28  and  C_29
REMARK   10  A    between atoms: C_29  and  C_30
REMARK                            x       y       z     vdW  Elec       q    Type
REMARK                         _______ _______ _______ _____ _____    ______ ____
ROOT
ATOM      1  C   UNL     1     164.266 170.120 181.412  0.00  0.00    +0.021 C 
ATOM      2  C   UNL     1     163.526 168.806 181.718  0.00  0.00    -0.025 C 
ATOM      3  C   UNL     1     162.031 168.940 181.583  0.00  0.00    -0.087 C 
ATOM      4  C   UNL     1     161.180 168.940 182.623  0.00  0.00    -0.081 C 
ATOM      5  C   UNL     1     159.663 169.085 182.495  0.00  0.00    +0.025 C 
ATOM      6  C   UNL     1     158.984 167.770 182.976  0.00  0.00    +0.084 C 
ATOM      7  C   UNL     1     157.470 167.832 182.971  0.00  0.00    -0.045 C 
ATOM      8  C   UNL     1     156.750 166.819 183.488  0.00  0.00    -0.097 C 
ATOM      9  C   UNL     1     156.886 169.095 182.370  0.00  0.00    -0.015 C 
ATOM     10  C   UNL     1     157.444 170.331 183.122  0.00  0.00    +0.002 C 
ATOM     11  C   UNL     1     159.034 170.356 183.186  0.00  0.00    +0.101 C 
ATOM     12  C   UNL     1     159.539 171.704 182.558  0.00  0.00    +0.136 C 
ATOM     13  C   UNL     1     160.965 172.092 182.893  0.00  0.00    -0.044 C 
ATOM     14  C   UNL     1     162.004 172.179 182.041  0.00  0.00    -0.046 C 
ATOM     15  C   UNL     1     163.440 172.436 182.419  0.00  0.00    +0.139 C 
ATOM     16  C   UNL     1     164.166 171.075 182.603  0.00  0.00    +0.171 C 
ATOM     17  O   UNL     1     164.648 170.775 183.703  0.00  0.00    -0.294 OA
ATOM     18  C   UNL     1     159.301 170.312 184.687  0.00  0.00    +0.224 C 
ATOM     19  O   UNL     1     160.382 170.237 185.248  0.00  0.00    -0.275 OA
ATOM     20  N   UNL     1     158.128 170.327 185.386  0.00  0.00    -0.311 N 
ATOM     21  C   UNL     1     156.949 170.419 184.586  0.00  0.00    +0.032 C 
ATOM     22  H   UNL     1     163.835 170.590 180.522  0.00  0.00    +0.038 HD
ATOM     23  H   UNL     1     163.788 168.442 182.720  0.00  0.00    +0.031 HD
ATOM     24  H   UNL     1     163.845 168.027 181.014  0.00  0.00    +0.031 HD
ATOM     25  H   UNL     1     161.644 169.045 180.570  0.00  0.00    +0.057 HD
ATOM     26  H   UNL     1     161.582 168.832 183.631  0.00  0.00    +0.057 HD
ATOM     27  H   UNL     1     159.460 169.158 181.417  0.00  0.00    +0.038 HD
ATOM     28  H   UNL     1     159.332 167.506 183.983  0.00  0.00    +0.065 HD
ATOM     29  H   UNL     1     157.244 165.940 183.893  0.00  0.00    +0.054 HD
ATOM     30  H   UNL     1     155.666 166.812 183.507  0.00  0.00    +0.054 HD
ATOM     31  H   UNL     1     157.239 169.148 181.330  0.00  0.00    +0.035 HD
ATOM     32  H   UNL     1     157.076 171.203 182.574  0.00  0.00    +0.034 HD
ATOM     33  H   UNL     1     158.921 172.534 182.913  0.00  0.00    +0.079 HD
ATOM     34  H   UNL     1     161.146 172.297 183.948  0.00  0.00    +0.061 HD
ATOM     35  H   UNL     1     161.832 171.973 180.987  0.00  0.00    +0.060 HD
ATOM     36  H   UNL     1     158.143 170.259 186.397  0.00  0.00    +0.149 HD
ATOM     37  H   UNL     1     156.354 169.539 184.854  0.00  0.00    +0.050 HD
ENDROOT
BRANCH   1  38
ATOM     38  C   UNL     1     165.746 169.857 181.133  0.00  0.00    -0.055 C 
ATOM     39  H   UNL     1     166.364 170.057 182.015  0.00  0.00    +0.024 HD
ATOM     40  H   UNL     1     166.109 170.498 180.323  0.00  0.00    +0.024 HD
ATOM     41  H   UNL     1     165.906 168.815 180.836  0.00  0.00    +0.024 HD
ENDBRANCH   1  38
BRANCH  15  42
ATOM     42  C   UNL     1     164.157 173.306 181.391  0.00  0.00    -0.025 C 
ATOM     43  H   UNL     1     163.465 173.904 180.788  0.00  0.00    +0.026 HD
ATOM     44  H   UNL     1     164.863 173.989 181.878  0.00  0.00    +0.026 HD
ATOM     45  H   UNL     1     164.746 172.686 180.704  0.00  0.00    +0.026 HD
ENDBRANCH  15  42
BRANCH   9  46
ATOM     46  C   UNL     1     155.355 169.149 182.260  0.00  0.00    -0.058 C 
ATOM     47  H   UNL     1     155.054 169.807 181.438  0.00  0.00    +0.024 HD
ATOM     48  H   UNL     1     154.946 168.154 182.045  0.00  0.00    +0.024 HD
ATOM     49  H   UNL     1     154.876 169.518 183.172  0.00  0.00    +0.024 HD
ENDBRANCH   9  46
BRANCH  21  50
ATOM     50  C   UNL     1     156.080 171.649 184.927  0.00  0.00    -0.009 C 
ATOM     51  H   UNL     1     155.050 171.314 185.104  0.00  0.00    +0.033 HD
ATOM     52  H   UNL     1     156.419 172.062 185.887  0.00  0.00    +0.033 HD
BRANCH  50  53
ATOM     53  C   UNL     1     156.076 172.782 183.930  0.00  0.00    -0.046 A 
ATOM     54  C   UNL     1     155.081 172.860 182.947  0.00  0.00    -0.059 A 
ATOM     55  C   UNL     1     155.082 173.897 182.013  0.00  0.00    -0.062 A 
ATOM     56  C   UNL     1     156.071 174.875 182.055  0.00  0.00    -0.062 A 
ATOM     57  C   UNL     1     157.057 174.820 183.037  0.00  0.00    -0.062 A 
ATOM     58  C   UNL     1     157.056 173.784 183.971  0.00  0.00    -0.059 A 
ATOM     59  H   UNL     1     154.305 172.099 182.880  0.00  0.00    +0.062 HD
ATOM     60  H   UNL     1     154.316 173.928 181.243  0.00  0.00    +0.062 HD
ATOM     61  H   UNL     1     156.076 175.677 181.321  0.00  0.00    +0.062 HD
ATOM     62  H   UNL     1     157.830 175.583 183.071  0.00  0.00    +0.062 HD
ATOM     63  H   UNL     1     157.833 173.768 184.731  0.00  0.00    +0.062 HD
ENDBRANCH  50  53
ENDBRANCH  21  50
BRANCH  15  64
ATOM     64  O   UNL     1     163.482 173.155 183.655  0.00  0.00    -0.377 OA
ATOM     65  H   UNL     1     162.750 173.806 183.607  0.00  0.00    +0.211 HD
ENDBRANCH  15  64
BRANCH   6  66
ATOM     66  O   UNL     1     159.342 166.701 182.093  0.00  0.00    -0.387 OA
ATOM     67  H   UNL     1     160.288 166.524 182.239  0.00  0.00    +0.210 HD
ENDBRANCH   6  66
BRANCH  12  68
ATOM     68  O   UNL     1     159.445 171.588 181.111  0.00  0.00    -0.456 OA
BRANCH  68  69
ATOM     69  C   UNL     1     158.725 172.503 180.417  0.00  0.00    +0.305 C 
ATOM     70  O   UNL     1     159.013 173.678 180.254  0.00  0.00    -0.251 OA
BRANCH  69  71
ATOM     71  C   UNL     1     157.468 171.869 179.904  0.00  0.00    +0.033 C 
ATOM     72  H   UNL     1     157.203 172.310 178.940  0.00  0.00    +0.034 HD
ATOM     73  H   UNL     1     157.629 170.795 179.776  0.00  0.00    +0.034 HD
ATOM     74  H   UNL     1     156.658 172.008 180.626  0.00  0.00    +0.034 HD
ENDBRANCH  69  71
ENDBRANCH  68  69
ENDBRANCH  12  68
TORSDOF 10
ENDMDL
MODEL 5
REMARK VINA RESULT:      -7.1      2.645      5.017
REMARK  Name = Cytochalasin D_conf1
REMARK  10 active torsions:
REMARK  status: ('A' for Active; 'I' for Inactive)
REMARK    1  A    between atoms: C_1  and  C_2
REMARK    2  A    between atoms: C_7  and  O_37
REMARK    3  A    between atoms: C_10  and  C_36
REMARK    4  A    between atoms: C_13  and  O_21
REMARK    5  A    between atoms: C_16  and  C_19
REMARK    6  A    between atoms: C_16  and  O_20
REMARK    7  A    between atoms: O_21  and  C_22
REMARK    8  A    between atoms: C_22  and  C_24
REMARK    9  A    between atoms: C_28  and  C_29
REMARK   10  A    between atoms: C_29  and  C_30
REMARK                            x       y       z     vdW  Elec       q    Type
REMARK                         _______ _______ _______ _____ _____    ______ ____
ROOT
ATOM      1  C   UNL     1     155.203 166.234 186.769  0.00  0.00    +0.021 C 
ATOM      2  C   UNL     1     153.900 166.625 186.051  0.00  0.00    -0.025 C 
ATOM      3  C   UNL     1     152.840 167.115 187.003  0.00  0.00    -0.087 C 
ATOM      4  C   UNL     1     151.732 166.421 187.315  0.00  0.00    -0.081 C 
ATOM      5  C   UNL     1     150.657 166.906 188.288  0.00  0.00    +0.025 C 
ATOM      6  C   UNL     1     149.328 167.124 187.509  0.00  0.00    +0.084 C 
ATOM      7  C   UNL     1     148.166 167.528 188.393  0.00  0.00    -0.045 C 
ATOM      8  C   UNL     1     146.925 167.619 187.881  0.00  0.00    -0.097 C 
ATOM      9  C   UNL     1     148.527 167.786 189.843  0.00  0.00    -0.015 C 
ATOM     10  C   UNL     1     149.208 166.527 190.439  0.00  0.00    +0.002 C 
ATOM     11  C   UNL     1     150.444 166.019 189.575  0.00  0.00    +0.101 C 
ATOM     12  C   UNL     1     151.713 165.969 190.499  0.00  0.00    +0.136 C 
ATOM     13  C   UNL     1     152.870 165.137 189.982  0.00  0.00    -0.044 C 
ATOM     14  C   UNL     1     154.086 165.580 189.611  0.00  0.00    -0.046 C 
ATOM     15  C   UNL     1     155.173 164.754 188.975  0.00  0.00    +0.139 C 
ATOM     16  C   UNL     1     155.055 164.862 187.430  0.00  0.00    +0.171 C 
ATOM     17  O   UNL     1     154.837 163.849 186.753  0.00  0.00    -0.294 OA
ATOM     18  C   UNL     1     150.003 164.617 189.167  0.00  0.00    +0.224 C 
ATOM     19  O   UNL     1     150.585 163.841 188.426  0.00  0.00    -0.275 OA
ATOM     20  N   UNL     1     148.792 164.312 189.719  0.00  0.00    -0.311 N 
ATOM     21  C   UNL     1     148.241 165.323 190.564  0.00  0.00    +0.032 C 
ATOM     22  H   UNL     1     155.450 166.986 187.525  0.00  0.00    +0.038 HD
ATOM     23  H   UNL     1     153.521 165.783 185.457  0.00  0.00    +0.031 HD
ATOM     24  H   UNL     1     154.097 167.438 185.341  0.00  0.00    +0.031 HD
ATOM     25  H   UNL     1     153.009 168.092 187.454  0.00  0.00    +0.057 HD
ATOM     26  H   UNL     1     151.576 165.445 186.855  0.00  0.00    +0.057 HD
ATOM     27  H   UNL     1     150.983 167.902 188.621  0.00  0.00    +0.038 HD
ATOM     28  H   UNL     1     149.060 166.219 186.950  0.00  0.00    +0.065 HD
ATOM     29  H   UNL     1     146.747 167.427 186.825  0.00  0.00    +0.054 HD
ATOM     30  H   UNL     1     146.060 167.906 188.468  0.00  0.00    +0.054 HD
ATOM     31  H   UNL     1     149.266 168.600 189.848  0.00  0.00    +0.035 HD
ATOM     32  H   UNL     1     149.540 166.814 191.440  0.00  0.00    +0.034 HD
ATOM     33  H   UNL     1     151.451 165.533 191.467  0.00  0.00    +0.079 HD
ATOM     34  H   UNL     1     152.661 164.071 189.893  0.00  0.00    +0.061 HD
ATOM     35  H   UNL     1     154.301 166.644 189.694  0.00  0.00    +0.060 HD
ATOM     36  H   UNL     1     148.348 163.427 189.504  0.00  0.00    +0.149 HD
ATOM     37  H   UNL     1     147.264 165.556 190.128  0.00  0.00    +0.050 HD
ENDROOT
BRANCH   1  38
ATOM     38  C   UNL     1     156.368 166.165 185.781  0.00  0.00    -0.055 C 
ATOM     39  H   UNL     1     156.063 165.714 184.830  0.00  0.00    +0.024 HD
ATOM     40  H   UNL     1     157.187 165.561 186.186  0.00  0.00    +0.024 HD
ATOM     41  H   UNL     1     156.759 167.166 185.571  0.00  0.00    +0.024 HD
ENDBRANCH   1  38
BRANCH  15  42
ATOM     42  C   UNL     1     156.563 165.170 189.449  0.00  0.00    -0.025 C 
ATOM     43  H   UNL     1     157.299 164.365 189.356  0.00  0.00    +0.026 HD
ATOM     44  H   UNL     1     156.929 166.035 188.881  0.00  0.00    +0.026 HD
ATOM     45  H   UNL     1     156.536 165.477 190.502  0.00  0.00    +0.026 HD
ENDBRANCH  15  42
BRANCH   9  46
ATOM     46  C   UNL     1     147.392 168.292 190.746  0.00  0.00    -0.058 C 
ATOM     47  H   UNL     1     147.767 168.492 191.756  0.00  0.00    +0.024 HD
ATOM     48  H   UNL     1     146.980 169.232 190.361  0.00  0.00    +0.024 HD
ATOM     49  H   UNL     1     146.569 167.576 190.834  0.00  0.00    +0.024 HD
ENDBRANCH   9  46
BRANCH  21  50
ATOM     50  C   UNL     1     147.968 164.830 192.001  0.00  0.00    -0.009 C 
ATOM     51  H   UNL     1     146.994 165.217 192.327  0.00  0.00    +0.033 HD
ATOM     52  H   UNL     1     147.853 163.738 191.981  0.00  0.00    +0.033 HD
BRANCH  50  53
ATOM     53  C   UNL     1     149.011 165.150 193.045  0.00  0.00    -0.046 A 
ATOM     54  C   UNL     1     150.179 164.384 193.139  0.00  0.00    -0.059 A 
ATOM     55  C   UNL     1     151.139 164.666 194.112  0.00  0.00    -0.062 A 
ATOM     56  C   UNL     1     150.948 165.723 194.998  0.00  0.00    -0.062 A 
ATOM     57  C   UNL     1     149.800 166.504 194.904  0.00  0.00    -0.062 A 
ATOM     58  C   UNL     1     148.840 166.223 193.931  0.00  0.00    -0.059 A 
ATOM     59  H   UNL     1     150.346 163.540 192.471  0.00  0.00    +0.062 HD
ATOM     60  H   UNL     1     152.028 164.046 194.187  0.00  0.00    +0.062 HD
ATOM     61  H   UNL     1     151.692 165.936 195.760  0.00  0.00    +0.062 HD
ATOM     62  H   UNL     1     149.649 167.331 195.594  0.00  0.00    +0.062 HD
ATOM     63  H   UNL     1     147.955 166.852 193.875  0.00  0.00    +0.062 HD
ENDBRANCH  50  53
ENDBRANCH  21  50
BRANCH  15  64
ATOM     64  O   UNL     1     155.010 163.385 189.358  0.00  0.00    -0.377 OA
ATOM     65  H   UNL     1     155.911 162.999 189.348  0.00  0.00    +0.211 HD
ENDBRANCH  15  64
BRANCH   6  66
ATOM     66  O   UNL     1     149.499 168.188 186.566  0.00  0.00    -0.387 OA
ATOM     67  H   UNL     1     149.308 169.015 187.042  0.00  0.00    +0.210 HD
ENDBRANCH   6  66
BRANCH  12  68
ATOM     68  O   UNL     1     152.195 167.330 190.672  0.00  0.00    -0.456 OA
BRANCH  68  69
ATOM     69  C   UNL     1     152.275 167.853 191.920  0.00  0.00    +0.305 C 
ATOM     70  O   UNL     1     152.979 167.447 192.831  0.00  0.00    -0.251 OA
BRANCH  69  71
ATOM     71  C   UNL     1     151.317 168.998 192.048  0.00  0.00    +0.033 C 
ATOM     72  H   UNL     1     150.384 168.648 192.495  0.00  0.00    +0.034 HD
ATOM     73  H   UNL     1     151.756 169.768 192.689  0.00  0.00    +0.034 HD
ATOM     74  H   UNL     1     151.130 169.441 191.065  0.00  0.00    +0.034 HD
ENDBRANCH  69  71
ENDBRANCH  68  69
ENDBRANCH  12  68
TORSDOF 10
ENDMDL
MODEL 6
REMARK VINA RESULT:      -7.0      3.391      6.726
REMARK  Name = Cytochalasin D_conf1
REMARK  10 active torsions:
REMARK  status: ('A' for Active; 'I' for Inactive)
REMARK    1  A    between atoms: C_1  and  C_2
REMARK    2  A    between atoms: C_7  and  O_37
REMARK    3  A    between atoms: C_10  and  C_36
REMARK    4  A    between atoms: C_13  and  O_21
REMARK    5  A    between atoms: C_16  and  C_19
REMARK    6  A    between atoms: C_16  and  O_20
REMARK    7  A    between atoms: O_21  and  C_22
REMARK    8  A    between atoms: C_22  and  C_24
REMARK    9  A    between atoms: C_28  and  C_29
REMARK   10  A    between atoms: C_29  and  C_30
REMARK                            x       y       z     vdW  Elec       q    Type
REMARK                         _______ _______ _______ _____ _____    ______ ____
ROOT
ATOM      1  C   UNL     1     150.862 166.450 193.937  0.00  0.00    +0.021 C 
ATOM      2  C   UNL     1     151.347 166.335 192.482  0.00  0.00    -0.025 C 
ATOM      3  C   UNL     1     150.497 167.130 191.525  0.00  0.00    -0.087 C 
ATOM      4  C   UNL     1     149.653 166.581 190.635  0.00  0.00    -0.081 C 
ATOM      5  C   UNL     1     148.780 167.381 189.667  0.00  0.00    +0.025 C 
ATOM      6  C   UNL     1     149.233 167.083 188.209  0.00  0.00    +0.084 C 
ATOM      7  C   UNL     1     148.379 167.762 187.157  0.00  0.00    -0.045 C 
ATOM      8  C   UNL     1     148.567 167.488 185.853  0.00  0.00    -0.097 C 
ATOM      9  C   UNL     1     147.335 168.716 187.703  0.00  0.00    -0.015 C 
ATOM     10  C   UNL     1     146.415 167.962 188.698  0.00  0.00    +0.002 C 
ATOM     11  C   UNL     1     147.222 167.208 189.844  0.00  0.00    +0.101 C 
ATOM     12  C   UNL     1     146.706 167.717 191.237  0.00  0.00    +0.136 C 
ATOM     13  C   UNL     1     147.049 166.842 192.425  0.00  0.00    -0.044 C 
ATOM     14  C   UNL     1     147.857 167.153 193.456  0.00  0.00    -0.046 C 
ATOM     15  C   UNL     1     148.288 166.219 194.557  0.00  0.00    +0.139 C 
ATOM     16  C   UNL     1     149.638 165.559 194.161  0.00  0.00    +0.171 C 
ATOM     17  O   UNL     1     149.711 164.331 194.027  0.00  0.00    -0.294 OA
ATOM     18  C   UNL     1     146.835 165.751 189.611  0.00  0.00    +0.224 C 
ATOM     19  O   UNL     1     147.260 164.767 190.195  0.00  0.00    -0.275 OA
ATOM     20  N   UNL     1     145.936 165.648 188.590  0.00  0.00    -0.311 N 
ATOM     21  C   UNL     1     145.535 166.890 188.009  0.00  0.00    +0.032 C 
ATOM     22  H   UNL     1     150.609 167.492 194.162  0.00  0.00    +0.038 HD
ATOM     23  H   UNL     1     151.388 165.282 192.172  0.00  0.00    +0.031 HD
ATOM     24  H   UNL     1     152.371 166.719 192.400  0.00  0.00    +0.031 HD
ATOM     25  H   UNL     1     150.590 168.214 191.580  0.00  0.00    +0.057 HD
ATOM     26  H   UNL     1     149.571 165.494 190.589  0.00  0.00    +0.057 HD
ATOM     27  H   UNL     1     149.020 168.438 189.852  0.00  0.00    +0.038 HD
ATOM     28  H   UNL     1     149.242 166.001 188.025  0.00  0.00    +0.065 HD
ATOM     29  H   UNL     1     149.346 166.798 185.539  0.00  0.00    +0.054 HD
ATOM     30  H   UNL     1     147.986 167.948 185.062  0.00  0.00    +0.054 HD
ATOM     31  H   UNL     1     147.873 169.491 188.266  0.00  0.00    +0.035 HD
ATOM     32  H   UNL     1     145.763 168.723 189.135  0.00  0.00    +0.034 HD
ATOM     33  H   UNL     1     145.614 167.781 191.228  0.00  0.00    +0.079 HD
ATOM     34  H   UNL     1     146.595 165.851 192.408  0.00  0.00    +0.061 HD
ATOM     35  H   UNL     1     148.316 168.139 193.479  0.00  0.00    +0.060 HD
ATOM     36  H   UNL     1     145.616 164.735 188.290  0.00  0.00    +0.149 HD
ATOM     37  H   UNL     1     145.783 166.800 186.946  0.00  0.00    +0.050 HD
ENDROOT
BRANCH   1  38
ATOM     38  C   UNL     1     151.956 166.014 194.911  0.00  0.00    -0.055 C 
ATOM     39  H   UNL     1     151.892 164.943 195.135  0.00  0.00    +0.024 HD
ATOM     40  H   UNL     1     151.874 166.556 195.858  0.00  0.00    +0.024 HD
ATOM     41  H   UNL     1     152.949 166.212 194.493  0.00  0.00    +0.024 HD
ENDBRANCH   1  38
BRANCH  15  42
ATOM     42  C   UNL     1     148.398 166.929 195.903  0.00  0.00    -0.025 C 
ATOM     43  H   UNL     1     148.197 166.262 196.748  0.00  0.00    +0.026 HD
ATOM     44  H   UNL     1     149.397 167.360 196.039  0.00  0.00    +0.026 HD
ATOM     45  H   UNL     1     147.687 167.762 195.959  0.00  0.00    +0.026 HD
ENDBRANCH  15  42
BRANCH   9  46
ATOM     46  C   UNL     1     146.517 169.495 186.662  0.00  0.00    -0.058 C 
ATOM     47  H   UNL     1     146.126 168.815 185.897  0.00  0.00    +0.024 HD
ATOM     48  H   UNL     1     145.656 169.984 187.132  0.00  0.00    +0.024 HD
ATOM     49  H   UNL     1     147.103 170.266 186.152  0.00  0.00    +0.024 HD
ENDBRANCH   9  46
BRANCH  21  50
ATOM     50  C   UNL     1     144.011 167.128 188.079  0.00  0.00    -0.009 C 
ATOM     51  H   UNL     1     143.767 168.021 187.490  0.00  0.00    +0.033 HD
ATOM     52  H   UNL     1     143.503 166.298 187.569  0.00  0.00    +0.033 HD
BRANCH  50  53
ATOM     53  C   UNL     1     143.399 167.250 189.454  0.00  0.00    -0.046 A 
ATOM     54  C   UNL     1     142.965 168.492 189.930  0.00  0.00    -0.059 A 
ATOM     55  C   UNL     1     142.413 168.613 191.207  0.00  0.00    -0.062 A 
ATOM     56  C   UNL     1     142.280 167.491 192.020  0.00  0.00    -0.062 A 
ATOM     57  C   UNL     1     142.691 166.246 191.553  0.00  0.00    -0.062 A 
ATOM     58  C   UNL     1     143.242 166.125 190.276  0.00  0.00    -0.059 A 
ATOM     59  H   UNL     1     143.073 169.390 189.323  0.00  0.00    +0.062 HD
ATOM     60  H   UNL     1     142.103 169.589 191.570  0.00  0.00    +0.062 HD
ATOM     61  H   UNL     1     141.858 167.588 193.016  0.00  0.00    +0.062 HD
ATOM     62  H   UNL     1     142.587 165.368 192.185  0.00  0.00    +0.062 HD
ATOM     63  H   UNL     1     143.550 165.140 189.933  0.00  0.00    +0.062 HD
ENDBRANCH  50  53
ENDBRANCH  21  50
BRANCH  15  64
ATOM     64  O   UNL     1     147.302 165.194 194.720  0.00  0.00    -0.377 OA
ATOM     65  H   UNL     1     147.737 164.362 194.439  0.00  0.00    +0.211 HD
ENDBRANCH  15  64
BRANCH   6  66
ATOM     66  O   UNL     1     150.565 167.572 188.016  0.00  0.00    -0.387 OA
ATOM     67  H   UNL     1     150.532 168.533 188.159  0.00  0.00    +0.210 HD
ENDBRANCH   6  66
BRANCH  12  68
ATOM     68  O   UNL     1     147.285 169.029 191.478  0.00  0.00    -0.456 OA
BRANCH  68  69
ATOM     69  C   UNL     1     146.613 170.136 191.079  0.00  0.00    +0.305 C 
ATOM     70  O   UNL     1     145.407 170.313 191.144  0.00  0.00    -0.251 OA
BRANCH  69  71
ATOM     71  C   UNL     1     147.573 171.121 190.484  0.00  0.00    +0.033 C 
ATOM     72  H   UNL     1     147.406 172.107 190.925  0.00  0.00    +0.034 HD
ATOM     73  H   UNL     1     148.598 170.802 190.696  0.00  0.00    +0.034 HD
ATOM     74  H   UNL     1     147.446 171.158 189.399  0.00  0.00    +0.034 HD
ENDBRANCH  69  71
ENDBRANCH  68  69
ENDBRANCH  12  68
TORSDOF 10
ENDMDL
MODEL 7
REMARK VINA RESULT:      -6.9      3.792      6.704
REMARK  Name = Cytochalasin D_conf1
REMARK  10 active torsions:
REMARK  status: ('A' for Active; 'I' for Inactive)
REMARK    1  A    between atoms: C_1  and  C_2
REMARK    2  A    between atoms: C_7  and  O_37
REMARK    3  A    between atoms: C_10  and  C_36
REMARK    4  A    between atoms: C_13  and  O_21
REMARK    5  A    between atoms: C_16  and  C_19
REMARK    6  A    between atoms: C_16  and  O_20
REMARK    7  A    between atoms: O_21  and  C_22
REMARK    8  A    between atoms: C_22  and  C_24
REMARK    9  A    between atoms: C_28  and  C_29
REMARK   10  A    between atoms: C_29  and  C_30
REMARK                            x       y       z     vdW  Elec       q    Type
REMARK                         _______ _______ _______ _____ _____    ______ ____
ROOT
ATOM      1  C   UNL     1     151.074 158.105 188.147  0.00  0.00    +0.021 C 
ATOM      2  C   UNL     1     150.081 159.115 187.547  0.00  0.00    -0.025 C 
ATOM      3  C   UNL     1     150.558 160.538 187.673  0.00  0.00    -0.087 C 
ATOM      4  C   UNL     1     150.016 161.441 188.508  0.00  0.00    -0.081 C 
ATOM      5  C   UNL     1     150.501 162.885 188.649  0.00  0.00    +0.025 C 
ATOM      6  C   UNL     1     149.376 163.847 188.170  0.00  0.00    +0.084 C 
ATOM      7  C   UNL     1     149.717 165.313 188.343  0.00  0.00    -0.045 C 
ATOM      8  C   UNL     1     148.789 166.257 188.100  0.00  0.00    -0.097 C 
ATOM      9  C   UNL     1     151.132 165.587 188.812  0.00  0.00    -0.015 C 
ATOM     10  C   UNL     1     151.387 164.843 190.148  0.00  0.00    +0.002 C 
ATOM     11  C   UNL     1     151.053 163.289 190.070  0.00  0.00    +0.101 C 
ATOM     12  C   UNL     1     152.334 162.480 190.479  0.00  0.00    +0.136 C 
ATOM     13  C   UNL     1     152.104 161.031 190.859  0.00  0.00    -0.044 C 
ATOM     14  C   UNL     1     152.543 159.940 190.203  0.00  0.00    -0.046 C 
ATOM     15  C   UNL     1     152.189 158.511 190.524  0.00  0.00    +0.139 C 
ATOM     16  C   UNL     1     150.960 158.090 189.673  0.00  0.00    +0.171 C 
ATOM     17  O   UNL     1     149.907 157.755 190.229  0.00  0.00    -0.294 OA
ATOM     18  C   UNL     1     149.949 163.140 191.113  0.00  0.00    +0.224 C 
ATOM     19  O   UNL     1     149.305 162.137 191.375  0.00  0.00    -0.275 OA
ATOM     20  N   UNL     1     149.712 164.330 191.738  0.00  0.00    -0.311 N 
ATOM     21  C   UNL     1     150.550 165.409 191.322  0.00  0.00    +0.032 C 
ATOM     22  H   UNL     1     152.096 158.370 187.853  0.00  0.00    +0.038 HD
ATOM     23  H   UNL     1     149.091 159.001 188.008  0.00  0.00    +0.031 HD
ATOM     24  H   UNL     1     149.946 158.912 186.477  0.00  0.00    +0.031 HD
ATOM     25  H   UNL     1     151.395 160.826 187.039  0.00  0.00    +0.057 HD
ATOM     26  H   UNL     1     149.177 161.139 189.135  0.00  0.00    +0.057 HD
ATOM     27  H   UNL     1     151.324 162.995 187.929  0.00  0.00    +0.038 HD
ATOM     28  H   UNL     1     148.437 163.629 188.695  0.00  0.00    +0.065 HD
ATOM     29  H   UNL     1     147.795 165.981 187.756  0.00  0.00    +0.054 HD
ATOM     30  H   UNL     1     148.982 167.319 188.206  0.00  0.00    +0.054 HD
ATOM     31  H   UNL     1     151.808 165.161 188.057  0.00  0.00    +0.035 HD
ATOM     32  H   UNL     1     152.448 164.989 190.372  0.00  0.00    +0.034 HD
ATOM     33  H   UNL     1     152.800 162.939 191.356  0.00  0.00    +0.079 HD
ATOM     34  H   UNL     1     151.497 160.884 191.752  0.00  0.00    +0.061 HD
ATOM     35  H   UNL     1     153.147 160.078 189.309  0.00  0.00    +0.060 HD
ATOM     36  H   UNL     1     148.975 164.398 192.429  0.00  0.00    +0.149 HD
ATOM     37  H   UNL     1     149.861 166.186 190.975  0.00  0.00    +0.050 HD
ENDROOT
BRANCH   1  38
ATOM     38  C   UNL     1     150.791 156.693 187.633  0.00  0.00    -0.055 C 
ATOM     39  H   UNL     1     151.583 156.343 186.961  0.00  0.00    +0.024 HD
ATOM     40  H   UNL     1     149.848 156.663 187.077  0.00  0.00    +0.024 HD
ATOM     41  H   UNL     1     150.715 155.984 188.464  0.00  0.00    +0.024 HD
ENDBRANCH   1  38
BRANCH  15  42
ATOM     42  C   UNL     1     153.364 157.564 190.298  0.00  0.00    -0.025 C 
ATOM     43  H   UNL     1     153.294 156.654 190.903  0.00  0.00    +0.026 HD
ATOM     44  H   UNL     1     153.433 157.268 189.244  0.00  0.00    +0.026 HD
ATOM     45  H   UNL     1     154.311 158.057 190.547  0.00  0.00    +0.026 HD
ENDBRANCH  15  42
BRANCH   9  46
ATOM     46  C   UNL     1     151.543 167.065 188.905  0.00  0.00    -0.058 C 
ATOM     47  H   UNL     1     152.552 167.207 188.503  0.00  0.00    +0.024 HD
ATOM     48  H   UNL     1     150.866 167.693 188.314  0.00  0.00    +0.024 HD
ATOM     49  H   UNL     1     151.539 167.442 189.932  0.00  0.00    +0.024 HD
ENDBRANCH   9  46
BRANCH  21  50
ATOM     50  C   UNL     1     151.358 166.032 192.481  0.00  0.00    -0.009 C 
ATOM     51  H   UNL     1     152.373 165.616 192.466  0.00  0.00    +0.033 HD
ATOM     52  H   UNL     1     151.482 167.106 192.285  0.00  0.00    +0.033 HD
BRANCH  50  53
ATOM     53  C   UNL     1     150.780 165.895 193.869  0.00  0.00    -0.046 A 
ATOM     54  C   UNL     1     151.477 165.197 194.863  0.00  0.00    -0.059 A 
ATOM     55  C   UNL     1     150.939 165.054 196.143  0.00  0.00    -0.062 A 
ATOM     56  C   UNL     1     149.703 165.616 196.450  0.00  0.00    -0.062 A 
ATOM     57  C   UNL     1     149.007 166.327 195.477  0.00  0.00    -0.062 A 
ATOM     58  C   UNL     1     149.544 166.471 194.197  0.00  0.00    -0.059 A 
ATOM     59  H   UNL     1     152.438 164.733 194.647  0.00  0.00    +0.062 HD
ATOM     60  H   UNL     1     151.483 164.489 196.896  0.00  0.00    +0.062 HD
ATOM     61  H   UNL     1     149.282 165.496 197.444  0.00  0.00    +0.062 HD
ATOM     62  H   UNL     1     148.042 166.767 195.714  0.00  0.00    +0.062 HD
ATOM     63  H   UNL     1     148.983 167.036 193.457  0.00  0.00    +0.062 HD
ENDBRANCH  50  53
ENDBRANCH  21  50
BRANCH  15  64
ATOM     64  O   UNL     1     151.850 158.409 191.911  0.00  0.00    -0.377 OA
ATOM     65  H   UNL     1     150.985 157.950 191.937  0.00  0.00    +0.211 HD
ENDBRANCH  15  64
BRANCH   6  66
ATOM     66  O   UNL     1     149.149 163.654 186.769  0.00  0.00    -0.387 OA
ATOM     67  H   UNL     1     148.563 164.375 186.480  0.00  0.00    +0.210 HD
ENDBRANCH   6  66
BRANCH  12  68
ATOM     68  O   UNL     1     153.254 162.496 189.352  0.00  0.00    -0.456 OA
BRANCH  68  69
ATOM     69  C   UNL     1     154.521 162.940 189.536  0.00  0.00    +0.305 C 
ATOM     70  O   UNL     1     155.399 162.381 190.173  0.00  0.00    -0.251 OA
BRANCH  69  71
ATOM     71  C   UNL     1     154.688 164.274 188.872  0.00  0.00    +0.033 C 
ATOM     72  H   UNL     1     155.235 164.150 187.934  0.00  0.00    +0.034 HD
ATOM     73  H   UNL     1     153.702 164.699 188.659  0.00  0.00    +0.034 HD
ATOM     74  H   UNL     1     155.217 164.960 189.539  0.00  0.00    +0.034 HD
ENDBRANCH  69  71
ENDBRANCH  68  69
ENDBRANCH  12  68
TORSDOF 10
ENDMDL
MODEL 8
REMARK VINA RESULT:      -6.7     19.263     22.367
REMARK  Name = Cytochalasin D_conf1
REMARK  10 active torsions:
REMARK  status: ('A' for Active; 'I' for Inactive)
REMARK    1  A    between atoms: C_1  and  C_2
REMARK    2  A    between atoms: C_7  and  O_37
REMARK    3  A    between atoms: C_10  and  C_36
REMARK    4  A    between atoms: C_13  and  O_21
REMARK    5  A    between atoms: C_16  and  C_19
REMARK    6  A    between atoms: C_16  and  O_20
REMARK    7  A    between atoms: O_21  and  C_22
REMARK    8  A    between atoms: C_22  and  C_24
REMARK    9  A    between atoms: C_28  and  C_29
REMARK   10  A    between atoms: C_29  and  C_30
REMARK                            x       y       z     vdW  Elec       q    Type
REMARK                         _______ _______ _______ _____ _____    ______ ____
ROOT
ATOM      1  C   UNL     1     131.844 164.010 201.720  0.00  0.00    +0.021 C 
ATOM      2  C   UNL     1     130.581 163.244 201.291  0.00  0.00    -0.025 C 
ATOM      3  C   UNL     1     130.867 161.807 200.943  0.00  0.00    -0.087 C 
ATOM      4  C   UNL     1     130.838 161.317 199.692  0.00  0.00    -0.081 C 
ATOM      5  C   UNL     1     131.137 159.862 199.328  0.00  0.00    +0.025 C 
ATOM      6  C   UNL     1     129.848 159.207 198.754  0.00  0.00    +0.084 C 
ATOM      7  C   UNL     1     130.051 157.781 198.281  0.00  0.00    -0.045 C 
ATOM      8  C   UNL     1     129.062 157.134 197.637  0.00  0.00    -0.097 C 
ATOM      9  C   UNL     1     131.419 157.200 198.578  0.00  0.00    -0.015 C 
ATOM     10  C   UNL     1     132.512 158.105 197.954  0.00  0.00    +0.002 C 
ATOM     11  C   UNL     1     132.382 159.631 198.388  0.00  0.00    +0.101 C 
ATOM     12  C   UNL     1     133.734 160.081 199.045  0.00  0.00    +0.136 C 
ATOM     13  C   UNL     1     133.950 161.578 199.146  0.00  0.00    -0.044 C 
ATOM     14  C   UNL     1     134.029 162.312 200.272  0.00  0.00    -0.046 C 
ATOM     15  C   UNL     1     134.110 163.815 200.345  0.00  0.00    +0.139 C 
ATOM     16  C   UNL     1     132.675 164.393 200.493  0.00  0.00    +0.171 C 
ATOM     17  O   UNL     1     132.218 165.145 199.624  0.00  0.00    -0.294 OA
ATOM     18  C   UNL     1     132.156 160.332 197.052  0.00  0.00    +0.224 C 
ATOM     19  O   UNL     1     131.922 161.515 196.864  0.00  0.00    -0.275 OA
ATOM     20  N   UNL     1     132.207 159.437 196.023  0.00  0.00    -0.311 N 
ATOM     21  C   UNL     1     132.492 158.091 196.405  0.00  0.00    +0.032 C 
ATOM     22  H   UNL     1     132.443 163.390 202.395  0.00  0.00    +0.038 HD
ATOM     23  H   UNL     1     130.090 163.751 200.450  0.00  0.00    +0.031 HD
ATOM     24  H   UNL     1     129.853 163.239 202.113  0.00  0.00    +0.031 HD
ATOM     25  H   UNL     1     131.113 161.147 201.774  0.00  0.00    +0.057 HD
ATOM     26  H   UNL     1     130.588 161.989 198.870  0.00  0.00    +0.057 HD
ATOM     27  H   UNL     1     131.340 159.352 200.281  0.00  0.00    +0.038 HD
ATOM     28  H   UNL     1     129.448 159.808 197.927  0.00  0.00    +0.065 HD
ATOM     29  H   UNL     1     128.102 157.617 197.470  0.00  0.00    +0.054 HD
ATOM     30  H   UNL     1     129.154 156.114 197.281  0.00  0.00    +0.054 HD
ATOM     31  H   UNL     1     131.547 157.225 199.670  0.00  0.00    +0.035 HD
ATOM     32  H   UNL     1     133.467 157.697 198.295  0.00  0.00    +0.034 HD
ATOM     33  H   UNL     1     134.577 159.705 198.457  0.00  0.00    +0.079 HD
ATOM     34  H   UNL     1     134.026 162.093 198.189  0.00  0.00    +0.061 HD
ATOM     35  H   UNL     1     133.951 161.805 201.232  0.00  0.00    +0.060 HD
ATOM     36  H   UNL     1     132.033 159.749 195.075  0.00  0.00    +0.149 HD
ATOM     37  H   UNL     1     131.649 157.504 196.027  0.00  0.00    +0.050 HD
ENDROOT
BRANCH   1  38
ATOM     38  C   UNL     1     131.475 165.293 202.466  0.00  0.00    -0.055 C 
ATOM     39  H   UNL     1     131.742 166.185 201.889  0.00  0.00    +0.024 HD
ATOM     40  H   UNL     1     131.999 165.350 203.425  0.00  0.00    +0.024 HD
ATOM     41  H   UNL     1     130.399 165.329 202.667  0.00  0.00    +0.024 HD
ENDBRANCH   1  38
BRANCH  15  42
ATOM     42  C   UNL     1     135.011 164.287 201.482  0.00  0.00    -0.025 C 
ATOM     43  H   UNL     1     134.541 165.060 202.099  0.00  0.00    +0.026 HD
ATOM     44  H   UNL     1     135.290 163.452 202.135  0.00  0.00    +0.026 HD
ATOM     45  H   UNL     1     135.947 164.700 201.087  0.00  0.00    +0.026 HD
ENDBRANCH  15  42
BRANCH   9  46
ATOM     46  C   UNL     1     131.627 155.726 198.200  0.00  0.00    -0.058 C 
ATOM     47  H   UNL     1     131.326 155.073 199.027  0.00  0.00    +0.024 HD
ATOM     48  H   UNL     1     131.011 155.457 197.334  0.00  0.00    +0.024 HD
ATOM     49  H   UNL     1     132.668 155.493 197.956  0.00  0.00    +0.024 HD
ENDBRANCH   9  46
BRANCH  21  50
ATOM     50  C   UNL     1     133.756 157.522 195.724  0.00  0.00    -0.009 C 
ATOM     51  H   UNL     1     133.447 156.838 194.923  0.00  0.00    +0.033 HD
ATOM     52  H   UNL     1     134.280 158.343 195.217  0.00  0.00    +0.033 HD
BRANCH  50  53
ATOM     53  C   UNL     1     134.761 156.832 196.613  0.00  0.00    -0.046 A 
ATOM     54  C   UNL     1     134.755 155.438 196.743  0.00  0.00    -0.059 A 
ATOM     55  C   UNL     1     135.673 154.796 197.577  0.00  0.00    -0.062 A 
ATOM     56  C   UNL     1     136.615 155.538 198.284  0.00  0.00    -0.062 A 
ATOM     57  C   UNL     1     136.644 156.924 198.150  0.00  0.00    -0.062 A 
ATOM     58  C   UNL     1     135.727 157.566 197.317  0.00  0.00    -0.059 A 
ATOM     59  H   UNL     1     134.019 154.833 196.216  0.00  0.00    +0.062 HD
ATOM     60  H   UNL     1     135.638 153.715 197.684  0.00  0.00    +0.062 HD
ATOM     61  H   UNL     1     137.322 155.038 198.939  0.00  0.00    +0.062 HD
ATOM     62  H   UNL     1     137.379 157.506 198.700  0.00  0.00    +0.062 HD
ATOM     63  H   UNL     1     135.775 158.648 197.226  0.00  0.00    +0.062 HD
ENDBRANCH  50  53
ENDBRANCH  21  50
BRANCH  15  64
ATOM     64  O   UNL     1     134.689 164.316 199.136  0.00  0.00    -0.377 OA
ATOM     65  H   UNL     1     134.684 165.292 199.226  0.00  0.00    +0.211 HD
ENDBRANCH  15  64
BRANCH   6  66
ATOM     66  O   UNL     1     128.848 159.148 199.777  0.00  0.00    -0.387 OA
ATOM     67  H   UNL     1     128.938 159.962 200.302  0.00  0.00    +0.210 HD
ENDBRANCH   6  66
BRANCH  12  68
ATOM     68  O   UNL     1     133.780 159.540 200.395  0.00  0.00    -0.456 OA
BRANCH  68  69
ATOM     69  C   UNL     1     134.854 158.811 200.782  0.00  0.00    +0.305 C 
ATOM     70  O   UNL     1     135.991 159.226 200.943  0.00  0.00    -0.251 OA
BRANCH  69  71
ATOM     71  C   UNL     1     134.457 157.375 200.943  0.00  0.00    +0.033 C 
ATOM     72  H   UNL     1     135.327 156.734 200.784  0.00  0.00    +0.034 HD
ATOM     73  H   UNL     1     134.074 157.216 201.956  0.00  0.00    +0.034 HD
ATOM     74  H   UNL     1     133.661 157.126 200.236  0.00  0.00    +0.034 HD
ENDBRANCH  69  71
ENDBRANCH  68  69
ENDBRANCH  12  68
TORSDOF 10
ENDMDL
MODEL 9
REMARK VINA RESULT:      -6.7     10.466     14.340
REMARK  Name = Cytochalasin D_conf1
REMARK  10 active torsions:
REMARK  status: ('A' for Active; 'I' for Inactive)
REMARK    1  A    between atoms: C_1  and  C_2
REMARK    2  A    between atoms: C_7  and  O_37
REMARK    3  A    between atoms: C_10  and  C_36
REMARK    4  A    between atoms: C_13  and  O_21
REMARK    5  A    between atoms: C_16  and  C_19
REMARK    6  A    between atoms: C_16  and  O_20
REMARK    7  A    between atoms: O_21  and  C_22
REMARK    8  A    between atoms: C_22  and  C_24
REMARK    9  A    between atoms: C_28  and  C_29
REMARK   10  A    between atoms: C_29  and  C_30
REMARK                            x       y       z     vdW  Elec       q    Type
REMARK                         _______ _______ _______ _____ _____    ______ ____
ROOT
ATOM      1  C   UNL     1     153.255 177.780 179.400  0.00  0.00    +0.021 C 
ATOM      2  C   UNL     1     152.393 176.520 179.211  0.00  0.00    -0.025 C 
ATOM      3  C   UNL     1     152.888 175.354 180.027  0.00  0.00    -0.087 C 
ATOM      4  C   UNL     1     153.487 174.271 179.503  0.00  0.00    -0.081 C 
ATOM      5  C   UNL     1     154.000 173.088 180.325  0.00  0.00    +0.025 C 
ATOM      6  C   UNL     1     153.180 171.818 179.955  0.00  0.00    +0.084 C 
ATOM      7  C   UNL     1     153.660 170.562 180.652  0.00  0.00    -0.045 C 
ATOM      8  C   UNL     1     153.136 169.365 180.328  0.00  0.00    -0.097 C 
ATOM      9  C   UNL     1     154.749 170.782 181.684  0.00  0.00    -0.015 C 
ATOM     10  C   UNL     1     155.957 171.489 181.019  0.00  0.00    +0.002 C 
ATOM     11  C   UNL     1     155.553 172.825 180.253  0.00  0.00    +0.101 C 
ATOM     12  C   UNL     1     156.401 174.011 180.835  0.00  0.00    +0.136 C 
ATOM     13  C   UNL     1     156.462 175.259 179.977  0.00  0.00    -0.044 C 
ATOM     14  C   UNL     1     155.953 176.470 180.270  0.00  0.00    -0.046 C 
ATOM     15  C   UNL     1     155.909 177.659 179.345  0.00  0.00    +0.139 C 
ATOM     16  C   UNL     1     154.549 177.665 178.593  0.00  0.00    +0.171 C 
ATOM     17  O   UNL     1     154.525 177.571 177.359  0.00  0.00    -0.294 OA
ATOM     18  C   UNL     1     155.957 172.511 178.815  0.00  0.00    +0.224 C 
ATOM     19  O   UNL     1     155.779 173.202 177.826  0.00  0.00    -0.275 OA
ATOM     20  N   UNL     1     156.542 171.280 178.736  0.00  0.00    -0.311 N 
ATOM     21  C   UNL     1     156.681 170.595 179.981  0.00  0.00    +0.032 C 
ATOM     22  H   UNL     1     153.490 177.913 180.462  0.00  0.00    +0.038 HD
ATOM     23  H   UNL     1     152.339 176.247 178.149  0.00  0.00    +0.031 HD
ATOM     24  H   UNL     1     151.363 176.723 179.529  0.00  0.00    +0.031 HD
ATOM     25  H   UNL     1     152.741 175.420 181.104  0.00  0.00    +0.057 HD
ATOM     26  H   UNL     1     153.625 174.218 178.422  0.00  0.00    +0.057 HD
ATOM     27  H   UNL     1     153.750 173.320 181.370  0.00  0.00    +0.038 HD
ATOM     28  H   UNL     1     153.193 171.657 178.869  0.00  0.00    +0.065 HD
ATOM     29  H   UNL     1     152.349 169.290 179.582  0.00  0.00    +0.054 HD
ATOM     30  H   UNL     1     153.442 168.437 180.798  0.00  0.00    +0.054 HD
ATOM     31  H   UNL     1     154.338 171.463 182.442  0.00  0.00    +0.035 HD
ATOM     32  H   UNL     1     156.653 171.717 181.831  0.00  0.00    +0.034 HD
ATOM     33  H   UNL     1     157.441 173.696 180.965  0.00  0.00    +0.079 HD
ATOM     34  H   UNL     1     156.959 175.128 179.016  0.00  0.00    +0.061 HD
ATOM     35  H   UNL     1     155.453 176.609 181.226  0.00  0.00    +0.060 HD
ATOM     36  H   UNL     1     156.826 170.914 177.835  0.00  0.00    +0.149 HD
ATOM     37  H   UNL     1     156.154 169.645 179.844  0.00  0.00    +0.050 HD
ENDROOT
BRANCH   1  38
ATOM     38  C   UNL     1     152.506 179.027 178.927  0.00  0.00    -0.055 C 
ATOM     39  H   UNL     1     153.088 179.938 179.106  0.00  0.00    +0.024 HD
ATOM     40  H   UNL     1     151.553 179.133 179.456  0.00  0.00    +0.024 HD
ATOM     41  H   UNL     1     152.292 178.967 177.855  0.00  0.00    +0.024 HD
ENDBRANCH   1  38
BRANCH  15  42
ATOM     42  C   UNL     1     156.130 178.973 180.088  0.00  0.00    -0.025 C 
ATOM     43  H   UNL     1     156.466 179.779 179.427  0.00  0.00    +0.026 HD
ATOM     44  H   UNL     1     155.211 179.302 180.587  0.00  0.00    +0.026 HD
ATOM     45  H   UNL     1     156.885 178.850 180.873  0.00  0.00    +0.026 HD
ENDBRANCH  15  42
BRANCH   9  46
ATOM     46  C   UNL     1     155.191 169.544 182.479  0.00  0.00    -0.058 C 
ATOM     47  H   UNL     1     156.072 169.087 182.017  0.00  0.00    +0.024 HD
ATOM     48  H   UNL     1     155.468 169.820 183.504  0.00  0.00    +0.024 HD
ATOM     49  H   UNL     1     154.412 168.777 182.538  0.00  0.00    +0.024 HD
ENDBRANCH   9  46
BRANCH  21  50
ATOM     50  C   UNL     1     158.145 170.233 180.314  0.00  0.00    -0.009 C 
ATOM     51  H   UNL     1     158.183 169.187 180.642  0.00  0.00    +0.033 HD
ATOM     52  H   UNL     1     158.734 170.268 179.387  0.00  0.00    +0.033 HD
BRANCH  50  53
ATOM     53  C   UNL     1     158.852 171.103 181.326  0.00  0.00    -0.046 A 
ATOM     54  C   UNL     1     159.561 172.238 180.914  0.00  0.00    -0.059 A 
ATOM     55  C   UNL     1     160.230 173.036 181.844  0.00  0.00    -0.062 A 
ATOM     56  C   UNL     1     160.190 172.716 183.198  0.00  0.00    -0.062 A 
ATOM     57  C   UNL     1     159.474 171.600 183.624  0.00  0.00    -0.062 A 
ATOM     58  C   UNL     1     158.805 170.802 182.695  0.00  0.00    -0.059 A 
ATOM     59  H   UNL     1     159.624 172.502 179.860  0.00  0.00    +0.062 HD
ATOM     60  H   UNL     1     160.795 173.900 181.504  0.00  0.00    +0.062 HD
ATOM     61  H   UNL     1     160.718 173.333 183.919  0.00  0.00    +0.062 HD
ATOM     62  H   UNL     1     159.441 171.349 184.680  0.00  0.00    +0.062 HD
ATOM     63  H   UNL     1     158.248 169.940 183.054  0.00  0.00    +0.062 HD
ENDBRANCH  50  53
ENDBRANCH  21  50
BRANCH  15  64
ATOM     64  O   UNL     1     156.968 177.553 178.388  0.00  0.00    -0.377 OA
ATOM     65  H   UNL     1     157.532 176.816 178.700  0.00  0.00    +0.211 HD
ENDBRANCH  15  64
BRANCH   6  66
ATOM     66  O   UNL     1     151.817 171.999 180.355  0.00  0.00    -0.387 OA
ATOM     67  H   UNL     1     151.788 171.852 181.316  0.00  0.00    +0.210 HD
ENDBRANCH   6  66
BRANCH  12  68
ATOM     68  O   UNL     1     155.825 174.388 182.116  0.00  0.00    -0.456 OA
BRANCH  68  69
ATOM     69  C   UNL     1     156.576 174.286 183.238  0.00  0.00    +0.305 C 
ATOM     70  O   UNL     1     157.634 174.855 183.456  0.00  0.00    -0.251 OA
BRANCH  69  71
ATOM     71  C   UNL     1     155.940 173.312 184.184  0.00  0.00    +0.033 C 
ATOM     72  H   UNL     1     156.630 173.092 185.002  0.00  0.00    +0.034 HD
ATOM     73  H   UNL     1     155.025 173.750 184.594  0.00  0.00    +0.034 HD
ATOM     74  H   UNL     1     155.669 172.397 183.651  0.00  0.00    +0.034 HD
ENDBRANCH  69  71
ENDBRANCH  68  69
ENDBRANCH  12  68
TORSDOF 10
ENDMDL
MODEL 10
REMARK VINA RESULT:      -6.7      2.844      4.969
REMARK  Name = Cytochalasin D_conf1
REMARK  10 active torsions:
REMARK  status: ('A' for Active; 'I' for Inactive)
REMARK    1  A    between atoms: C_1  and  C_2
REMARK    2  A    between atoms: C_7  and  O_37
REMARK    3  A    between atoms: C_10  and  C_36
REMARK    4  A    between atoms: C_13  and  O_21
REMARK    5  A    between atoms: C_16  and  C_19
REMARK    6  A    between atoms: C_16  and  O_20
REMARK    7  A    between atoms: O_21  and  C_22
REMARK    8  A    between atoms: C_22  and  C_24
REMARK    9  A    between atoms: C_28  and  C_29
REMARK   10  A    between atoms: C_29  and  C_30
REMARK                            x       y       z     vdW  Elec       q    Type
REMARK                         _______ _______ _______ _____ _____    ______ ____
ROOT
ATOM      1  C   UNL     1     152.003 161.843 187.155  0.00  0.00    +0.021 C 
ATOM      2  C   UNL     1     150.497 162.045 186.918  0.00  0.00    -0.025 C 
ATOM      3  C   UNL     1     150.017 163.400 187.372  0.00  0.00    -0.087 C 
ATOM      4  C   UNL     1     149.244 163.599 188.453  0.00  0.00    -0.081 C 
ATOM      5  C   UNL     1     148.761 164.971 188.926  0.00  0.00    +0.025 C 
ATOM      6  C   UNL     1     147.212 165.034 188.803  0.00  0.00    +0.084 C 
ATOM      7  C   UNL     1     146.614 166.325 189.325  0.00  0.00    -0.045 C 
ATOM      8  C   UNL     1     145.278 166.467 189.410  0.00  0.00    -0.097 C 
ATOM      9  C   UNL     1     147.627 167.375 189.737  0.00  0.00    -0.015 C 
ATOM     10  C   UNL     1     148.578 166.784 190.809  0.00  0.00    +0.002 C 
ATOM     11  C   UNL     1     149.256 165.417 190.355  0.00  0.00    +0.101 C 
ATOM     12  C   UNL     1     150.815 165.581 190.439  0.00  0.00    +0.136 C 
ATOM     13  C   UNL     1     151.612 164.291 190.445  0.00  0.00    -0.044 C 
ATOM     14  C   UNL     1     152.463 163.858 189.496  0.00  0.00    -0.046 C 
ATOM     15  C   UNL     1     153.140 162.513 189.461  0.00  0.00    +0.139 C 
ATOM     16  C   UNL     1     152.272 161.530 188.628  0.00  0.00    +0.171 C 
ATOM     17  O   UNL     1     151.804 160.515 189.159  0.00  0.00    -0.294 OA
ATOM     18  C   UNL     1     148.746 164.436 191.407  0.00  0.00    +0.224 C 
ATOM     19  O   UNL     1     148.930 163.230 191.449  0.00  0.00    -0.275 OA
ATOM     20  N   UNL     1     147.982 165.079 192.337  0.00  0.00    -0.311 N 
ATOM     21  C   UNL     1     147.863 166.491 192.151  0.00  0.00    +0.032 C 
ATOM     22  H   UNL     1     152.549 162.746 186.861  0.00  0.00    +0.038 HD
ATOM     23  H   UNL     1     149.920 161.251 187.409  0.00  0.00    +0.031 HD
ATOM     24  H   UNL     1     150.275 161.967 185.846  0.00  0.00    +0.031 HD
ATOM     25  H   UNL     1     150.333 164.251 186.771  0.00  0.00    +0.057 HD
ATOM     26  H   UNL     1     148.934 162.737 189.044  0.00  0.00    +0.057 HD
ATOM     27  H   UNL     1     149.156 165.694 188.197  0.00  0.00    +0.038 HD
ATOM     28  H   UNL     1     146.752 164.185 189.326  0.00  0.00    +0.065 HD
ATOM     29  H   UNL     1     144.616 165.669 189.084  0.00  0.00    +0.054 HD
ATOM     30  H   UNL     1     144.800 167.370 189.772  0.00  0.00    +0.054 HD
ATOM     31  H   UNL     1     148.228 167.607 188.847  0.00  0.00    +0.035 HD
ATOM     32  H   UNL     1     149.344 167.546 190.979  0.00  0.00    +0.034 HD
ATOM     33  H   UNL     1     151.087 166.095 191.365  0.00  0.00    +0.079 HD
ATOM     34  H   UNL     1     151.443 163.656 191.314  0.00  0.00    +0.061 HD
ATOM     35  H   UNL     1     152.634 164.486 188.624  0.00  0.00    +0.060 HD
ATOM     36  H   UNL     1     147.537 164.550 193.077  0.00  0.00    +0.149 HD
ATOM     37  H   UNL     1     146.787 166.678 192.074  0.00  0.00    +0.050 HD
ENDROOT
BRANCH   1  38
ATOM     38  C   UNL     1     152.534 160.681 186.314  0.00  0.00    -0.055 C 
ATOM     39  H   UNL     1     151.989 159.753 186.521  0.00  0.00    +0.024 HD
ATOM     40  H   UNL     1     153.592 160.499 186.527  0.00  0.00    +0.024 HD
ATOM     41  H   UNL     1     152.438 160.899 185.245  0.00  0.00    +0.024 HD
ENDBRANCH   1  38
BRANCH  15  42
ATOM     42  C   UNL     1     154.558 162.598 188.905  0.00  0.00    -0.025 C 
ATOM     43  H   UNL     1     154.887 161.661 188.443  0.00  0.00    +0.026 HD
ATOM     44  H   UNL     1     154.639 163.395 188.155  0.00  0.00    +0.026 HD
ATOM     45  H   UNL     1     155.271 162.845 189.701  0.00  0.00    +0.026 HD
ENDBRANCH  15  42
BRANCH   9  46
ATOM     46  C   UNL     1     147.056 168.732 190.179  0.00  0.00    -0.058 C 
ATOM     47  H   UNL     1     147.605 169.112 191.048  0.00  0.00    +0.024 HD
ATOM     48  H   UNL     1     147.160 169.475 189.379  0.00  0.00    +0.024 HD
ATOM     49  H   UNL     1     145.998 168.679 190.452  0.00  0.00    +0.024 HD
ENDBRANCH   9  46
BRANCH  21  50
ATOM     50  C   UNL     1     148.358 167.305 193.366  0.00  0.00    -0.009 C 
ATOM     51  H   UNL     1     148.763 168.260 193.008  0.00  0.00    +0.033 HD
ATOM     52  H   UNL     1     147.491 167.572 193.986  0.00  0.00    +0.033 HD
BRANCH  50  53
ATOM     53  C   UNL     1     149.367 166.640 194.272  0.00  0.00    -0.046 A 
ATOM     54  C   UNL     1     148.972 166.111 195.506  0.00  0.00    -0.059 A 
ATOM     55  C   UNL     1     149.904 165.509 196.354  0.00  0.00    -0.062 A 
ATOM     56  C   UNL     1     151.240 165.420 195.974  0.00  0.00    -0.062 A 
ATOM     57  C   UNL     1     151.643 165.926 194.742  0.00  0.00    -0.062 A 
ATOM     58  C   UNL     1     150.712 166.527 193.894  0.00  0.00    -0.059 A 
ATOM     59  H   UNL     1     147.937 166.183 195.837  0.00  0.00    +0.062 HD
ATOM     60  H   UNL     1     149.584 165.125 197.319  0.00  0.00    +0.062 HD
ATOM     61  H   UNL     1     151.965 164.959 196.639  0.00  0.00    +0.062 HD
ATOM     62  H   UNL     1     152.686 165.856 194.443  0.00  0.00    +0.062 HD
ATOM     63  H   UNL     1     151.052 166.909 192.934  0.00  0.00    +0.062 HD
ENDBRANCH  50  53
ENDBRANCH  21  50
BRANCH  15  64
ATOM     64  O   UNL     1     153.259 162.010 190.795  0.00  0.00    -0.377 OA
ATOM     65  H   UNL     1     153.629 162.747 191.323  0.00  0.00    +0.211 HD
ENDBRANCH  15  64
BRANCH   6  66
ATOM     66  O   UNL     1     146.840 164.953 187.423  0.00  0.00    -0.387 OA
ATOM     67  H   UNL     1     145.902 164.698 187.402  0.00  0.00    +0.210 HD
ENDBRANCH   6  66
BRANCH  12  68
ATOM     68  O   UNL     1     151.247 166.356 189.287  0.00  0.00    -0.456 OA
BRANCH  68  69
ATOM     69  C   UNL     1     152.140 167.360 189.459  0.00  0.00    +0.305 C 
ATOM     70  O   UNL     1     153.076 167.631 188.723  0.00  0.00    -0.251 OA
BRANCH  69  71
ATOM     71  C   UNL     1     151.845 168.083 190.738  0.00  0.00    +0.033 C 
ATOM     72  H   UNL     1     151.160 167.487 191.346  0.00  0.00    +0.034 HD
ATOM     73  H   UNL     1     152.776 168.236 191.292  0.00  0.00    +0.034 HD
ATOM     74  H   UNL     1     151.413 169.064 190.522  0.00  0.00    +0.034 HD
ENDBRANCH  69  71
ENDBRANCH  68  69
ENDBRANCH  12  68
TORSDOF 10
ENDMDL
