MODEL 1
REMARK VINA RESULT:      -7.5      0.000      0.000
REMARK  Name = Cytochalasin B_conf2
REMARK  6 active torsions:
REMARK  status: ('A' for Active; 'I' for Inactive)
REMARK    1  A    between atoms: C_1  and  C_2
REMARK    2  A    between atoms: C_6  and  O_35
REMARK    3  A    between atoms: C_17  and  O_34
REMARK    4  A    between atoms: C_20  and  C_33
REMARK    5  A    between atoms: C_22  and  C_26
REMARK    6  A    between atoms: C_26  and  C_27
REMARK                            x       y       z     vdW  Elec       q    Type
REMARK                         _______ _______ _______ _____ _____    ______ ____
ROOT
ATOM      1  C   UNL     1     147.131 169.008 186.009  0.00  0.00    -0.040 C 
ATOM      2  C   UNL     1     147.127 169.573 187.442  0.00  0.00    -0.050 C 
ATOM      3  C   UNL     1     146.132 170.698 187.729  0.00  0.00    -0.050 C 
ATOM      4  C   UNL     1     145.768 170.866 189.216  0.00  0.00    -0.023 C 
ATOM      5  C   UNL     1     146.927 171.106 190.205  0.00  0.00    +0.074 C 
ATOM      6  C   UNL     1     147.853 169.940 190.383  0.00  0.00    -0.049 C 
ATOM      7  C   UNL     1     147.469 168.732 190.833  0.00  0.00    +0.021 C 
ATOM      8  C   UNL     1     148.299 167.515 190.750  0.00  0.00    +0.333 C 
ATOM      9  O   UNL     1     147.830 166.399 190.919  0.00  0.00    -0.246 OA
ATOM     10  O   UNL     1     149.580 167.799 190.431  0.00  0.00    -0.444 OA
ATOM     11  C   UNL     1     150.455 166.711 190.050  0.00  0.00    +0.202 C 
ATOM     12  C   UNL     1     150.014 166.017 188.725  0.00  0.00    +0.056 C 
ATOM     13  C   UNL     1     149.717 166.987 187.583  0.00  0.00    -0.078 C 
ATOM     14  C   UNL     1     148.563 167.054 186.895  0.00  0.00    -0.087 C 
ATOM     15  C   UNL     1     148.331 168.051 185.785  0.00  0.00    -0.032 C 
ATOM     16  C   UNL     1     151.078 164.969 188.289  0.00  0.00    +0.087 C 
ATOM     17  C   UNL     1     151.701 164.221 189.457  0.00  0.00    -0.045 C 
ATOM     18  C   UNL     1     152.895 163.618 189.317  0.00  0.00    -0.097 C 
ATOM     19  C   UNL     1     150.888 164.256 190.737  0.00  0.00    -0.012 C 
ATOM     20  C   UNL     1     150.708 165.717 191.238  0.00  0.00    +0.033 C 
ATOM     21  C   UNL     1     151.916 166.319 191.991  0.00  0.00    +0.035 C 
ATOM     22  N   UNL     1     152.601 167.089 190.994  0.00  0.00    -0.308 N 
ATOM     23  C   UNL     1     151.831 167.384 189.896  0.00  0.00    +0.258 C 
ATOM     24  O   UNL     1     152.219 168.099 188.987  0.00  0.00    -0.271 OA
ATOM     25  H   UNL     1     146.206 168.430 185.874  0.00  0.00    +0.030 HD
ATOM     26  H   UNL     1     146.895 168.736 188.109  0.00  0.00    +0.027 HD
ATOM     27  H   UNL     1     148.135 169.931 187.680  0.00  0.00    +0.027 HD
ATOM     28  H   UNL     1     145.200 170.508 187.184  0.00  0.00    +0.027 HD
ATOM     29  H   UNL     1     146.534 171.645 187.350  0.00  0.00    +0.027 HD
ATOM     30  H   UNL     1     145.183 169.994 189.539  0.00  0.00    +0.029 HD
ATOM     31  H   UNL     1     145.069 171.709 189.295  0.00  0.00    +0.029 HD
ATOM     32  H   UNL     1     147.508 171.980 189.892  0.00  0.00    +0.064 HD
ATOM     33  H   UNL     1     148.863 170.086 190.006  0.00  0.00    +0.060 HD
ATOM     34  H   UNL     1     146.453 168.561 191.171  0.00  0.00    +0.069 HD
ATOM     35  H   UNL     1     149.074 165.483 188.917  0.00  0.00    +0.042 HD
ATOM     36  H   UNL     1     150.523 167.667 187.307  0.00  0.00    +0.057 HD
ATOM     37  H   UNL     1     147.746 166.374 187.126  0.00  0.00    +0.057 HD
ATOM     38  H   UNL     1     148.170 167.492 184.854  0.00  0.00    +0.031 HD
ATOM     39  H   UNL     1     149.240 168.647 185.629  0.00  0.00    +0.031 HD
ATOM     40  H   UNL     1     151.868 165.459 187.706  0.00  0.00    +0.065 HD
ATOM     41  H   UNL     1     153.418 163.638 188.364  0.00  0.00    +0.054 HD
ATOM     42  H   UNL     1     153.386 163.082 190.122  0.00  0.00    +0.054 HD
ATOM     43  H   UNL     1     149.884 163.900 190.457  0.00  0.00    +0.035 HD
ATOM     44  H   UNL     1     149.863 165.691 191.932  0.00  0.00    +0.037 HD
ATOM     45  H   UNL     1     152.617 165.560 192.346  0.00  0.00    +0.051 HD
ATOM     46  H   UNL     1     153.537 167.466 191.095  0.00  0.00    +0.149 HD
ENDROOT
BRANCH   1  47
ATOM     47  C   UNL     1     147.155 170.104 184.942  0.00  0.00    -0.062 C 
ATOM     48  H   UNL     1     146.887 169.697 183.960  0.00  0.00    +0.023 HD
ATOM     49  H   UNL     1     146.437 170.898 185.169  0.00  0.00    +0.023 HD
ATOM     50  H   UNL     1     148.149 170.558 184.861  0.00  0.00    +0.023 HD
ENDBRANCH   1  47
BRANCH  19  51
ATOM     51  C   UNL     1     151.324 163.294 191.849  0.00  0.00    -0.058 C 
ATOM     52  H   UNL     1     150.570 163.261 192.644  0.00  0.00    +0.024 HD
ATOM     53  H   UNL     1     151.470 162.269 191.497  0.00  0.00    +0.024 HD
ATOM     54  H   UNL     1     152.263 163.631 192.301  0.00  0.00    +0.024 HD
ENDBRANCH  19  51
BRANCH  21  55
ATOM     55  C   UNL     1     151.466 167.199 193.176  0.00  0.00    -0.009 C 
ATOM     56  H   UNL     1     150.681 167.892 192.848  0.00  0.00    +0.033 HD
ATOM     57  H   UNL     1     152.292 167.825 193.536  0.00  0.00    +0.033 HD
BRANCH  55  58
ATOM     58  C   UNL     1     150.925 166.382 194.328  0.00  0.00    -0.046 A 
ATOM     59  C   UNL     1     149.591 166.524 194.734  0.00  0.00    -0.059 A 
ATOM     60  C   UNL     1     149.098 165.788 195.811  0.00  0.00    -0.062 A 
ATOM     61  C   UNL     1     149.933 164.905 196.494  0.00  0.00    -0.062 A 
ATOM     62  C   UNL     1     151.262 164.759 196.100  0.00  0.00    -0.062 A 
ATOM     63  C   UNL     1     151.758 165.495 195.023  0.00  0.00    -0.059 A 
ATOM     64  H   UNL     1     148.926 167.211 194.212  0.00  0.00    +0.062 HD
ATOM     65  H   UNL     1     148.062 165.903 196.118  0.00  0.00    +0.062 HD
ATOM     66  H   UNL     1     149.547 164.332 197.333  0.00  0.00    +0.062 HD
ATOM     67  H   UNL     1     151.912 164.069 196.633  0.00  0.00    +0.062 HD
ATOM     68  H   UNL     1     152.796 165.367 194.729  0.00  0.00    +0.062 HD
ENDBRANCH  55  58
ENDBRANCH  21  55
BRANCH  16  69
ATOM     69  O   UNL     1     150.473 163.998 187.432  0.00  0.00    -0.387 OA
ATOM     70  H   UNL     1     150.036 163.338 187.994  0.00  0.00    +0.210 HD
ENDBRANCH  16  69
BRANCH   5  71
ATOM     71  O   UNL     1     146.379 171.394 191.490  0.00  0.00    -0.388 OA
ATOM     72  H   UNL     1     146.386 172.360 191.595  0.00  0.00    +0.210 HD
ENDBRANCH   5  71
TORSDOF 6
ENDMDL
MODEL 2
REMARK VINA RESULT:      -7.5      2.946      5.903
REMARK  Name = Cytochalasin B_conf2
REMARK  6 active torsions:
REMARK  status: ('A' for Active; 'I' for Inactive)
REMARK    1  A    between atoms: C_1  and  C_2
REMARK    2  A    between atoms: C_6  and  O_35
REMARK    3  A    between atoms: C_17  and  O_34
REMARK    4  A    between atoms: C_20  and  C_33
REMARK    5  A    between atoms: C_22  and  C_26
REMARK    6  A    between atoms: C_26  and  C_27
REMARK                            x       y       z     vdW  Elec       q    Type
REMARK                         _______ _______ _______ _____ _____    ______ ____
ROOT
ATOM      1  C   UNL     1     143.642 166.665 192.331  0.00  0.00    -0.040 C 
ATOM      2  C   UNL     1     144.394 166.566 190.990  0.00  0.00    -0.050 C 
ATOM      3  C   UNL     1     143.573 166.832 189.727  0.00  0.00    -0.050 C 
ATOM      4  C   UNL     1     144.406 167.252 188.501  0.00  0.00    -0.023 C 
ATOM      5  C   UNL     1     145.527 166.296 188.046  0.00  0.00    +0.074 C 
ATOM      6  C   UNL     1     146.675 166.174 189.003  0.00  0.00    -0.049 C 
ATOM      7  C   UNL     1     147.451 167.203 189.388  0.00  0.00    +0.021 C 
ATOM      8  C   UNL     1     148.392 167.152 190.522  0.00  0.00    +0.333 C 
ATOM      9  O   UNL     1     148.877 168.163 191.008  0.00  0.00    -0.246 OA
ATOM     10  O   UNL     1     148.593 165.888 190.954  0.00  0.00    -0.444 OA
ATOM     11  C   UNL     1     149.271 165.689 192.217  0.00  0.00    +0.202 C 
ATOM     12  C   UNL     1     148.464 166.243 193.430  0.00  0.00    +0.056 C 
ATOM     13  C   UNL     1     146.998 165.813 193.452  0.00  0.00    -0.078 C 
ATOM     14  C   UNL     1     145.941 166.641 193.501  0.00  0.00    -0.087 C 
ATOM     15  C   UNL     1     144.514 166.147 193.504  0.00  0.00    -0.032 C 
ATOM     16  C   UNL     1     149.167 165.857 194.763  0.00  0.00    +0.087 C 
ATOM     17  C   UNL     1     150.685 165.902 194.679  0.00  0.00    -0.045 C 
ATOM     18  C   UNL     1     151.433 165.211 195.557  0.00  0.00    -0.097 C 
ATOM     19  C   UNL     1     151.230 166.739 193.538  0.00  0.00    -0.012 C 
ATOM     20  C   UNL     1     150.763 166.176 192.167  0.00  0.00    +0.033 C 
ATOM     21  C   UNL     1     151.548 164.952 191.643  0.00  0.00    +0.035 C 
ATOM     22  N   UNL     1     150.735 163.831 192.014  0.00  0.00    -0.308 N 
ATOM     23  C   UNL     1     149.436 164.161 192.308  0.00  0.00    +0.258 C 
ATOM     24  O   UNL     1     148.581 163.328 192.562  0.00  0.00    -0.271 OA
ATOM     25  H   UNL     1     143.423 167.726 192.514  0.00  0.00    +0.030 HD
ATOM     26  H   UNL     1     145.205 167.300 191.029  0.00  0.00    +0.027 HD
ATOM     27  H   UNL     1     144.839 165.567 190.912  0.00  0.00    +0.027 HD
ATOM     28  H   UNL     1     142.852 167.634 189.923  0.00  0.00    +0.027 HD
ATOM     29  H   UNL     1     142.992 165.938 189.475  0.00  0.00    +0.027 HD
ATOM     30  H   UNL     1     144.825 168.252 188.682  0.00  0.00    +0.029 HD
ATOM     31  H   UNL     1     143.713 167.394 187.661  0.00  0.00    +0.029 HD
ATOM     32  H   UNL     1     145.112 165.300 187.856  0.00  0.00    +0.064 HD
ATOM     33  H   UNL     1     146.783 165.202 189.479  0.00  0.00    +0.060 HD
ATOM     34  H   UNL     1     147.326 168.188 188.951  0.00  0.00    +0.069 HD
ATOM     35  H   UNL     1     148.453 167.339 193.360  0.00  0.00    +0.042 HD
ATOM     36  H   UNL     1     146.812 164.739 193.438  0.00  0.00    +0.057 HD
ATOM     37  H   UNL     1     146.089 167.718 193.541  0.00  0.00    +0.057 HD
ATOM     38  H   UNL     1     144.051 166.451 194.452  0.00  0.00    +0.031 HD
ATOM     39  H   UNL     1     144.505 165.049 193.499  0.00  0.00    +0.031 HD
ATOM     40  H   UNL     1     148.848 164.856 195.077  0.00  0.00    +0.065 HD
ATOM     41  H   UNL     1     150.965 164.631 196.349  0.00  0.00    +0.054 HD
ATOM     42  H   UNL     1     152.517 165.201 195.532  0.00  0.00    +0.054 HD
ATOM     43  H   UNL     1     150.756 167.726 193.645  0.00  0.00    +0.035 HD
ATOM     44  H   UNL     1     150.899 166.991 191.449  0.00  0.00    +0.037 HD
ATOM     45  H   UNL     1     152.514 164.824 192.135  0.00  0.00    +0.051 HD
ATOM     46  H   UNL     1     151.038 162.863 191.992  0.00  0.00    +0.149 HD
ENDROOT
BRANCH   1  47
ATOM     47  C   UNL     1     142.312 165.910 192.321  0.00  0.00    -0.062 C 
ATOM     48  H   UNL     1     141.646 166.285 193.105  0.00  0.00    +0.023 HD
ATOM     49  H   UNL     1     141.790 166.034 191.366  0.00  0.00    +0.023 HD
ATOM     50  H   UNL     1     142.463 164.838 192.488  0.00  0.00    +0.023 HD
ENDBRANCH   1  47
BRANCH  19  51
ATOM     51  C   UNL     1     152.733 167.045 193.575  0.00  0.00    -0.058 C 
ATOM     52  H   UNL     1     152.901 168.113 193.758  0.00  0.00    +0.024 HD
ATOM     53  H   UNL     1     153.265 166.494 194.356  0.00  0.00    +0.024 HD
ATOM     54  H   UNL     1     153.199 166.799 192.615  0.00  0.00    +0.024 HD
ENDBRANCH  19  51
BRANCH  21  55
ATOM     55  C   UNL     1     151.755 165.021 190.115  0.00  0.00    -0.009 C 
ATOM     56  H   UNL     1     151.285 165.929 189.716  0.00  0.00    +0.033 HD
ATOM     57  H   UNL     1     151.260 164.180 189.613  0.00  0.00    +0.033 HD
BRANCH  55  58
ATOM     58  C   UNL     1     153.218 165.036 189.731  0.00  0.00    -0.046 A 
ATOM     59  C   UNL     1     153.910 166.249 189.619  0.00  0.00    -0.059 A 
ATOM     60  C   UNL     1     155.253 166.264 189.243  0.00  0.00    -0.062 A 
ATOM     61  C   UNL     1     155.916 165.068 188.972  0.00  0.00    -0.062 A 
ATOM     62  C   UNL     1     155.235 163.856 189.077  0.00  0.00    -0.062 A 
ATOM     63  C   UNL     1     153.891 163.838 189.453  0.00  0.00    -0.059 A 
ATOM     64  H   UNL     1     153.405 167.192 189.825  0.00  0.00    +0.062 HD
ATOM     65  H   UNL     1     155.782 167.209 189.161  0.00  0.00    +0.062 HD
ATOM     66  H   UNL     1     156.962 165.081 188.679  0.00  0.00    +0.062 HD
ATOM     67  H   UNL     1     155.754 162.924 188.867  0.00  0.00    +0.062 HD
ATOM     68  H   UNL     1     153.377 162.884 189.532  0.00  0.00    +0.062 HD
ENDBRANCH  55  58
ENDBRANCH  21  55
BRANCH  16  69
ATOM     69  O   UNL     1     148.768 166.762 195.796  0.00  0.00    -0.387 OA
ATOM     70  H   UNL     1     149.142 167.633 195.587  0.00  0.00    +0.210 HD
ENDBRANCH  16  69
BRANCH   5  71
ATOM     71  O   UNL     1     146.067 166.778 186.816  0.00  0.00    -0.388 OA
ATOM     72  H   UNL     1     146.323 167.705 186.959  0.00  0.00    +0.210 HD
ENDBRANCH   5  71
TORSDOF 6
ENDMDL
MODEL 3
REMARK VINA RESULT:      -7.4      2.583      6.278
REMARK  Name = Cytochalasin B_conf2
REMARK  6 active torsions:
REMARK  status: ('A' for Active; 'I' for Inactive)
REMARK    1  A    between atoms: C_1  and  C_2
REMARK    2  A    between atoms: C_6  and  O_35
REMARK    3  A    between atoms: C_17  and  O_34
REMARK    4  A    between atoms: C_20  and  C_33
REMARK    5  A    between atoms: C_22  and  C_26
REMARK    6  A    between atoms: C_26  and  C_27
REMARK                            x       y       z     vdW  Elec       q    Type
REMARK                         _______ _______ _______ _____ _____    ______ ____
ROOT
ATOM      1  C   UNL     1     152.152 162.046 188.522  0.00  0.00    -0.040 C 
ATOM      2  C   UNL     1     151.542 163.308 187.881  0.00  0.00    -0.050 C 
ATOM      3  C   UNL     1     151.371 163.285 186.361  0.00  0.00    -0.050 C 
ATOM      4  C   UNL     1     150.313 164.266 185.823  0.00  0.00    -0.023 C 
ATOM      5  C   UNL     1     150.485 165.757 186.176  0.00  0.00    +0.074 C 
ATOM      6  C   UNL     1     150.302 166.084 187.628  0.00  0.00    -0.049 C 
ATOM      7  C   UNL     1     149.170 165.857 188.317  0.00  0.00    +0.021 C 
ATOM      8  C   UNL     1     149.068 165.915 189.787  0.00  0.00    +0.333 C 
ATOM      9  O   UNL     1     148.111 165.451 190.389  0.00  0.00    -0.246 OA
ATOM     10  O   UNL     1     150.157 166.486 190.345  0.00  0.00    -0.444 OA
ATOM     11  C   UNL     1     150.336 166.378 191.777  0.00  0.00    +0.202 C 
ATOM     12  C   UNL     1     150.555 164.908 192.249  0.00  0.00    +0.056 C 
ATOM     13  C   UNL     1     151.605 164.144 191.445  0.00  0.00    -0.078 C 
ATOM     14  C   UNL     1     151.407 162.977 190.810  0.00  0.00    -0.087 C 
ATOM     15  C   UNL     1     152.488 162.283 190.017  0.00  0.00    -0.032 C 
ATOM     16  C   UNL     1     150.898 164.878 193.766  0.00  0.00    +0.087 C 
ATOM     17  C   UNL     1     150.134 165.912 194.578  0.00  0.00    -0.045 C 
ATOM     18  C   UNL     1     150.599 166.312 195.775  0.00  0.00    -0.097 C 
ATOM     19  C   UNL     1     148.878 166.438 193.911  0.00  0.00    -0.012 C 
ATOM     20  C   UNL     1     149.219 167.144 192.570  0.00  0.00    +0.033 C 
ATOM     21  C   UNL     1     149.756 168.588 192.691  0.00  0.00    +0.035 C 
ATOM     22  N   UNL     1     151.179 168.439 192.600  0.00  0.00    -0.308 N 
ATOM     23  C   UNL     1     151.578 167.244 192.058  0.00  0.00    +0.258 C 
ATOM     24  O   UNL     1     152.747 166.977 191.826  0.00  0.00    -0.271 OA
ATOM     25  H   UNL     1     151.402 161.245 188.466  0.00  0.00    +0.030 HD
ATOM     26  H   UNL     1     150.553 163.442 188.332  0.00  0.00    +0.027 HD
ATOM     27  H   UNL     1     152.161 164.171 188.149  0.00  0.00    +0.027 HD
ATOM     28  H   UNL     1     151.077 162.278 186.042  0.00  0.00    +0.027 HD
ATOM     29  H   UNL     1     152.334 163.500 185.884  0.00  0.00    +0.027 HD
ATOM     30  H   UNL     1     149.318 163.924 186.140  0.00  0.00    +0.029 HD
ATOM     31  H   UNL     1     150.298 164.171 184.728  0.00  0.00    +0.029 HD
ATOM     32  H   UNL     1     151.473 166.104 185.852  0.00  0.00    +0.064 HD
ATOM     33  H   UNL     1     151.199 166.416 188.147  0.00  0.00    +0.060 HD
ATOM     34  H   UNL     1     148.280 165.485 187.818  0.00  0.00    +0.069 HD
ATOM     35  H   UNL     1     149.613 164.362 192.107  0.00  0.00    +0.042 HD
ATOM     36  H   UNL     1     152.598 164.592 191.404  0.00  0.00    +0.057 HD
ATOM     37  H   UNL     1     150.435 162.489 190.850  0.00  0.00    +0.057 HD
ATOM     38  H   UNL     1     152.691 161.315 190.493  0.00  0.00    +0.031 HD
ATOM     39  H   UNL     1     153.422 162.857 190.087  0.00  0.00    +0.031 HD
ATOM     40  H   UNL     1     151.976 165.026 193.908  0.00  0.00    +0.065 HD
ATOM     41  H   UNL     1     151.512 165.887 196.187  0.00  0.00    +0.054 HD
ATOM     42  H   UNL     1     150.098 167.054 196.387  0.00  0.00    +0.054 HD
ATOM     43  H   UNL     1     148.289 165.545 193.650  0.00  0.00    +0.035 HD
ATOM     44  H   UNL     1     148.280 167.185 192.009  0.00  0.00    +0.037 HD
ATOM     45  H   UNL     1     149.543 169.041 193.662  0.00  0.00    +0.051 HD
ATOM     46  H   UNL     1     151.853 169.162 192.829  0.00  0.00    +0.149 HD
ENDROOT
BRANCH   1  47
ATOM     47  C   UNL     1     153.407 161.561 187.794  0.00  0.00    -0.062 C 
ATOM     48  H   UNL     1     153.761 162.317 187.084  0.00  0.00    +0.023 HD
ATOM     49  H   UNL     1     154.225 161.367 188.495  0.00  0.00    +0.023 HD
ATOM     50  H   UNL     1     153.210 160.638 187.238  0.00  0.00    +0.023 HD
ENDBRANCH   1  47
BRANCH  19  51
ATOM     51  C   UNL     1     147.930 167.260 194.794  0.00  0.00    -0.058 C 
ATOM     52  H   UNL     1     147.795 166.772 195.767  0.00  0.00    +0.024 HD
ATOM     53  H   UNL     1     148.293 168.273 194.987  0.00  0.00    +0.024 HD
ATOM     54  H   UNL     1     146.943 167.339 194.327  0.00  0.00    +0.024 HD
ENDBRANCH  19  51
BRANCH  21  55
ATOM     55  C   UNL     1     149.208 169.495 191.569  0.00  0.00    -0.009 C 
ATOM     56  H   UNL     1     148.317 169.037 191.122  0.00  0.00    +0.033 HD
ATOM     57  H   UNL     1     149.937 169.596 190.755  0.00  0.00    +0.033 HD
BRANCH  55  58
ATOM     58  C   UNL     1     148.832 170.871 192.071  0.00  0.00    -0.046 A 
ATOM     59  C   UNL     1     149.781 171.674 192.718  0.00  0.00    -0.059 A 
ATOM     60  C   UNL     1     149.429 172.934 193.202  0.00  0.00    -0.062 A 
ATOM     61  C   UNL     1     148.125 173.402 193.046  0.00  0.00    -0.062 A 
ATOM     62  C   UNL     1     147.174 172.611 192.405  0.00  0.00    -0.062 A 
ATOM     63  C   UNL     1     147.523 171.349 191.921  0.00  0.00    -0.059 A 
ATOM     64  H   UNL     1     150.803 171.321 192.851  0.00  0.00    +0.062 HD
ATOM     65  H   UNL     1     150.172 173.550 193.701  0.00  0.00    +0.062 HD
ATOM     66  H   UNL     1     147.852 174.384 193.422  0.00  0.00    +0.062 HD
ATOM     67  H   UNL     1     146.157 172.978 192.283  0.00  0.00    +0.062 HD
ATOM     68  H   UNL     1     146.768 170.746 191.423  0.00  0.00    +0.062 HD
ENDBRANCH  55  58
ENDBRANCH  21  55
BRANCH  16  69
ATOM     69  O   UNL     1     150.583 163.592 194.305  0.00  0.00    -0.387 OA
ATOM     70  H   UNL     1     150.612 162.950 193.577  0.00  0.00    +0.210 HD
ENDBRANCH  16  69
BRANCH   5  71
ATOM     71  O   UNL     1     149.510 166.512 185.459  0.00  0.00    -0.388 OA
ATOM     72  H   UNL     1     148.659 166.053 185.563  0.00  0.00    +0.210 HD
ENDBRANCH   5  71
TORSDOF 6
ENDMDL
MODEL 4
REMARK VINA RESULT:      -7.2      3.051      6.906
REMARK  Name = Cytochalasin B_conf2
REMARK  6 active torsions:
REMARK  status: ('A' for Active; 'I' for Inactive)
REMARK    1  A    between atoms: C_1  and  C_2
REMARK    2  A    between atoms: C_6  and  O_35
REMARK    3  A    between atoms: C_17  and  O_34
REMARK    4  A    between atoms: C_20  and  C_33
REMARK    5  A    between atoms: C_22  and  C_26
REMARK    6  A    between atoms: C_26  and  C_27
REMARK                            x       y       z     vdW  Elec       q    Type
REMARK                         _______ _______ _______ _____ _____    ______ ____
ROOT
ATOM      1  C   UNL     1     151.307 162.128 189.738  0.00  0.00    -0.040 C 
ATOM      2  C   UNL     1     151.988 163.510 189.700  0.00  0.00    -0.050 C 
ATOM      3  C   UNL     1     153.471 163.529 189.324  0.00  0.00    -0.050 C 
ATOM      4  C   UNL     1     153.973 164.879 188.778  0.00  0.00    -0.023 C 
ATOM      5  C   UNL     1     153.780 166.120 189.672  0.00  0.00    +0.074 C 
ATOM      6  C   UNL     1     152.352 166.534 189.871  0.00  0.00    -0.049 C 
ATOM      7  C   UNL     1     151.522 166.889 188.874  0.00  0.00    +0.021 C 
ATOM      8  C   UNL     1     150.061 167.028 189.022  0.00  0.00    +0.333 C 
ATOM      9  O   UNL     1     149.315 167.088 188.056  0.00  0.00    -0.246 OA
ATOM     10  O   UNL     1     149.684 167.031 190.319  0.00  0.00    -0.444 OA
ATOM     11  C   UNL     1     148.277 166.890 190.629  0.00  0.00    +0.202 C 
ATOM     12  C   UNL     1     147.701 165.505 190.205  0.00  0.00    +0.056 C 
ATOM     13  C   UNL     1     148.545 164.314 190.653  0.00  0.00    -0.078 C 
ATOM     14  C   UNL     1     149.045 163.362 189.846  0.00  0.00    -0.087 C 
ATOM     15  C   UNL     1     149.888 162.218 190.356  0.00  0.00    -0.032 C 
ATOM     16  C   UNL     1     146.236 165.357 190.707  0.00  0.00    +0.087 C 
ATOM     17  C   UNL     1     145.440 166.651 190.636  0.00  0.00    -0.045 C 
ATOM     18  C   UNL     1     144.345 166.817 191.399  0.00  0.00    -0.097 C 
ATOM     19  C   UNL     1     146.007 167.690 189.687  0.00  0.00    -0.012 C 
ATOM     20  C   UNL     1     147.437 168.115 190.122  0.00  0.00    +0.033 C 
ATOM     21  C   UNL     1     147.509 169.136 191.280  0.00  0.00    +0.035 C 
ATOM     22  N   UNL     1     147.746 168.329 192.442  0.00  0.00    -0.308 N 
ATOM     23  C   UNL     1     148.219 167.073 192.157  0.00  0.00    +0.258 C 
ATOM     24  O   UNL     1     148.556 166.279 193.021  0.00  0.00    -0.271 OA
ATOM     25  H   UNL     1     151.206 161.776 188.703  0.00  0.00    +0.030 HD
ATOM     26  H   UNL     1     151.443 164.108 188.963  0.00  0.00    +0.027 HD
ATOM     27  H   UNL     1     151.872 163.985 190.681  0.00  0.00    +0.027 HD
ATOM     28  H   UNL     1     153.661 162.773 188.553  0.00  0.00    +0.027 HD
ATOM     29  H   UNL     1     154.071 163.250 190.197  0.00  0.00    +0.027 HD
ATOM     30  H   UNL     1     153.516 165.057 187.795  0.00  0.00    +0.029 HD
ATOM     31  H   UNL     1     155.046 164.773 188.565  0.00  0.00    +0.029 HD
ATOM     32  H   UNL     1     154.243 165.950 190.650  0.00  0.00    +0.064 HD
ATOM     33  H   UNL     1     151.970 166.417 190.883  0.00  0.00    +0.060 HD
ATOM     34  H   UNL     1     151.880 166.969 187.853  0.00  0.00    +0.069 HD
ATOM     35  H   UNL     1     147.686 165.466 189.107  0.00  0.00    +0.042 HD
ATOM     36  H   UNL     1     148.739 164.238 191.723  0.00  0.00    +0.057 HD
ATOM     37  H   UNL     1     148.851 163.393 188.776  0.00  0.00    +0.057 HD
ATOM     38  H   UNL     1     149.352 161.283 190.150  0.00  0.00    +0.031 HD
ATOM     39  H   UNL     1     149.976 162.284 191.448  0.00  0.00    +0.031 HD
ATOM     40  H   UNL     1     146.231 164.982 191.738  0.00  0.00    +0.065 HD
ATOM     41  H   UNL     1     144.002 166.022 192.057  0.00  0.00    +0.054 HD
ATOM     42  H   UNL     1     143.751 167.724 191.393  0.00  0.00    +0.054 HD
ATOM     43  H   UNL     1     146.117 167.176 188.720  0.00  0.00    +0.035 HD
ATOM     44  H   UNL     1     147.889 168.579 189.240  0.00  0.00    +0.037 HD
ATOM     45  H   UNL     1     146.566 169.662 191.443  0.00  0.00    +0.051 HD
ATOM     46  H   UNL     1     147.662 168.654 193.399  0.00  0.00    +0.149 HD
ENDROOT
BRANCH   1  47
ATOM     47  C   UNL     1     152.126 161.087 190.506  0.00  0.00    -0.062 C 
ATOM     48  H   UNL     1     152.435 161.478 191.481  0.00  0.00    +0.023 HD
ATOM     49  H   UNL     1     151.543 160.179 190.691  0.00  0.00    +0.023 HD
ATOM     50  H   UNL     1     153.027 160.805 189.951  0.00  0.00    +0.023 HD
ENDBRANCH   1  47
BRANCH  19  51
ATOM     51  C   UNL     1     145.101 168.887 189.367  0.00  0.00    -0.058 C 
ATOM     52  H   UNL     1     144.046 168.601 189.453  0.00  0.00    +0.024 HD
ATOM     53  H   UNL     1     145.262 169.739 190.034  0.00  0.00    +0.024 HD
ATOM     54  H   UNL     1     145.265 169.228 188.340  0.00  0.00    +0.024 HD
ENDBRANCH  19  51
BRANCH  21  55
ATOM     55  C   UNL     1     148.640 170.163 191.063  0.00  0.00    -0.009 C 
ATOM     56  H   UNL     1     148.636 170.506 190.020  0.00  0.00    +0.033 HD
ATOM     57  H   UNL     1     149.624 169.705 191.227  0.00  0.00    +0.033 HD
BRANCH  55  58
ATOM     58  C   UNL     1     148.501 171.373 191.960  0.00  0.00    -0.046 A 
ATOM     59  C   UNL     1     149.600 171.845 192.690  0.00  0.00    -0.059 A 
ATOM     60  C   UNL     1     149.466 172.947 193.535  0.00  0.00    -0.062 A 
ATOM     61  C   UNL     1     148.233 173.585 193.660  0.00  0.00    -0.062 A 
ATOM     62  C   UNL     1     147.134 173.121 192.940  0.00  0.00    -0.062 A 
ATOM     63  C   UNL     1     147.264 172.019 192.095  0.00  0.00    -0.059 A 
ATOM     64  H   UNL     1     150.569 171.356 192.605  0.00  0.00    +0.062 HD
ATOM     65  H   UNL     1     150.324 173.307 194.096  0.00  0.00    +0.062 HD
ATOM     66  H   UNL     1     148.131 174.443 194.318  0.00  0.00    +0.062 HD
ATOM     67  H   UNL     1     146.172 173.621 193.038  0.00  0.00    +0.062 HD
ATOM     68  H   UNL     1     146.397 171.672 191.540  0.00  0.00    +0.062 HD
ENDBRANCH  55  58
ENDBRANCH  21  55
BRANCH  16  69
ATOM     69  O   UNL     1     145.550 164.389 189.911  0.00  0.00    -0.387 OA
ATOM     70  H   UNL     1     145.411 164.773 189.030  0.00  0.00    +0.210 HD
ENDBRANCH  16  69
BRANCH   5  71
ATOM     71  O   UNL     1     154.447 167.227 189.068  0.00  0.00    -0.388 OA
ATOM     72  H   UNL     1     154.768 166.930 188.200  0.00  0.00    +0.210 HD
ENDBRANCH   5  71
TORSDOF 6
ENDMDL
MODEL 5
REMARK VINA RESULT:      -6.9     18.897     21.968
REMARK  Name = Cytochalasin B_conf2
REMARK  6 active torsions:
REMARK  status: ('A' for Active; 'I' for Inactive)
REMARK    1  A    between atoms: C_1  and  C_2
REMARK    2  A    between atoms: C_6  and  O_35
REMARK    3  A    between atoms: C_17  and  O_34
REMARK    4  A    between atoms: C_20  and  C_33
REMARK    5  A    between atoms: C_22  and  C_26
REMARK    6  A    between atoms: C_26  and  C_27
REMARK                            x       y       z     vdW  Elec       q    Type
REMARK                         _______ _______ _______ _____ _____    ______ ____
ROOT
ATOM      1  C   UNL     1     135.205 159.261 200.314  0.00  0.00    -0.040 C 
ATOM      2  C   UNL     1     133.806 159.348 199.674  0.00  0.00    -0.050 C 
ATOM      3  C   UNL     1     133.232 158.047 199.110  0.00  0.00    -0.050 C 
ATOM      4  C   UNL     1     131.698 158.029 198.980  0.00  0.00    -0.023 C 
ATOM      5  C   UNL     1     131.046 159.143 198.137  0.00  0.00    +0.074 C 
ATOM      6  C   UNL     1     131.154 160.519 198.723  0.00  0.00    -0.049 C 
ATOM      7  C   UNL     1     130.654 160.873 199.920  0.00  0.00    +0.021 C 
ATOM      8  C   UNL     1     130.989 162.126 200.621  0.00  0.00    +0.333 C 
ATOM      9  O   UNL     1     130.735 162.295 201.805  0.00  0.00    -0.246 OA
ATOM     10  O   UNL     1     131.629 162.999 199.814  0.00  0.00    -0.444 OA
ATOM     11  C   UNL     1     132.260 164.157 200.410  0.00  0.00    +0.202 C 
ATOM     12  C   UNL     1     133.440 163.781 201.357  0.00  0.00    +0.056 C 
ATOM     13  C   UNL     1     134.434 162.791 200.752  0.00  0.00    -0.078 C 
ATOM     14  C   UNL     1     134.788 161.611 201.292  0.00  0.00    -0.087 C 
ATOM     15  C   UNL     1     135.767 160.671 200.630  0.00  0.00    -0.032 C 
ATOM     16  C   UNL     1     134.173 165.067 201.837  0.00  0.00    +0.087 C 
ATOM     17  C   UNL     1     133.235 166.235 202.094  0.00  0.00    -0.045 C 
ATOM     18  C   UNL     1     133.704 167.495 202.092  0.00  0.00    -0.097 C 
ATOM     19  C   UNL     1     131.784 165.846 202.309  0.00  0.00    -0.012 C 
ATOM     20  C   UNL     1     131.212 165.133 201.052  0.00  0.00    +0.033 C 
ATOM     21  C   UNL     1     130.789 166.061 199.891  0.00  0.00    +0.035 C 
ATOM     22  N   UNL     1     131.910 166.032 198.996  0.00  0.00    -0.308 N 
ATOM     23  C   UNL     1     132.754 164.970 199.200  0.00  0.00    +0.258 C 
ATOM     24  O   UNL     1     133.713 164.738 198.480  0.00  0.00    -0.271 OA
ATOM     25  H   UNL     1     135.106 158.715 201.262  0.00  0.00    +0.030 HD
ATOM     26  H   UNL     1     133.126 159.709 200.453  0.00  0.00    +0.027 HD
ATOM     27  H   UNL     1     133.834 160.093 198.871  0.00  0.00    +0.027 HD
ATOM     28  H   UNL     1     133.516 157.211 199.760  0.00  0.00    +0.027 HD
ATOM     29  H   UNL     1     133.677 157.849 198.127  0.00  0.00    +0.027 HD
ATOM     30  H   UNL     1     131.256 158.021 199.986  0.00  0.00    +0.029 HD
ATOM     31  H   UNL     1     131.412 157.060 198.549  0.00  0.00    +0.029 HD
ATOM     32  H   UNL     1     131.477 159.148 197.129  0.00  0.00    +0.064 HD
ATOM     33  H   UNL     1     131.781 161.213 198.167  0.00  0.00    +0.060 HD
ATOM     34  H   UNL     1     130.063 160.175 200.504  0.00  0.00    +0.069 HD
ATOM     35  H   UNL     1     133.021 163.283 202.241  0.00  0.00    +0.042 HD
ATOM     36  H   UNL     1     134.894 163.087 199.810  0.00  0.00    +0.057 HD
ATOM     37  H   UNL     1     134.368 161.295 202.244  0.00  0.00    +0.057 HD
ATOM     38  H   UNL     1     136.638 160.567 201.290  0.00  0.00    +0.031 HD
ATOM     39  H   UNL     1     136.141 161.123 199.702  0.00  0.00    +0.031 HD
ATOM     40  H   UNL     1     134.930 165.362 201.100  0.00  0.00    +0.065 HD
ATOM     41  H   UNL     1     134.761 167.693 201.929  0.00  0.00    +0.054 HD
ATOM     42  H   UNL     1     133.075 168.362 202.259  0.00  0.00    +0.054 HD
ATOM     43  H   UNL     1     131.798 165.094 203.113  0.00  0.00    +0.035 HD
ATOM     44  H   UNL     1     130.319 164.601 201.395  0.00  0.00    +0.037 HD
ATOM     45  H   UNL     1     130.655 167.099 200.202  0.00  0.00    +0.051 HD
ATOM     46  H   UNL     1     132.050 166.674 198.223  0.00  0.00    +0.149 HD
ENDROOT
BRANCH   1  47
ATOM     47  C   UNL     1     136.208 158.502 199.443  0.00  0.00    -0.062 C 
ATOM     48  H   UNL     1     135.929 157.446 199.359  0.00  0.00    +0.023 HD
ATOM     49  H   UNL     1     136.242 158.909 198.427  0.00  0.00    +0.023 HD
ATOM     50  H   UNL     1     137.218 158.555 199.864  0.00  0.00    +0.023 HD
ENDBRANCH   1  47
BRANCH  19  51
ATOM     51  C   UNL     1     130.857 166.944 202.847  0.00  0.00    -0.058 C 
ATOM     52  H   UNL     1     130.684 167.707 202.079  0.00  0.00    +0.024 HD
ATOM     53  H   UNL     1     129.878 166.566 203.156  0.00  0.00    +0.024 HD
ATOM     54  H   UNL     1     131.313 167.442 203.709  0.00  0.00    +0.024 HD
ENDBRANCH  19  51
BRANCH  21  55
ATOM     55  C   UNL     1     129.502 165.560 199.202  0.00  0.00    -0.009 C 
ATOM     56  H   UNL     1     129.703 164.617 198.678  0.00  0.00    +0.033 HD
ATOM     57  H   UNL     1     129.166 166.268 198.434  0.00  0.00    +0.033 HD
BRANCH  55  58
ATOM     58  C   UNL     1     128.376 165.324 200.185  0.00  0.00    -0.046 A 
ATOM     59  C   UNL     1     127.880 164.031 200.399  0.00  0.00    -0.059 A 
ATOM     60  C   UNL     1     126.827 163.817 201.288  0.00  0.00    -0.062 A 
ATOM     61  C   UNL     1     126.258 164.893 201.969  0.00  0.00    -0.062 A 
ATOM     62  C   UNL     1     126.743 166.183 201.761  0.00  0.00    -0.062 A 
ATOM     63  C   UNL     1     127.796 166.400 200.872  0.00  0.00    -0.059 A 
ATOM     64  H   UNL     1     128.312 163.182 199.873  0.00  0.00    +0.062 HD
ATOM     65  H   UNL     1     126.450 162.811 201.450  0.00  0.00    +0.062 HD
ATOM     66  H   UNL     1     125.438 164.724 202.662  0.00  0.00    +0.062 HD
ATOM     67  H   UNL     1     126.300 167.021 202.294  0.00  0.00    +0.062 HD
ATOM     68  H   UNL     1     128.162 167.412 200.723  0.00  0.00    +0.062 HD
ENDBRANCH  55  58
ENDBRANCH  21  55
BRANCH  16  69
ATOM     69  O   UNL     1     134.867 164.797 203.057  0.00  0.00    -0.387 OA
ATOM     70  H   UNL     1     134.291 165.068 203.791  0.00  0.00    +0.210 HD
ENDBRANCH  16  69
BRANCH   5  71
ATOM     71  O   UNL     1     129.653 158.862 198.006  0.00  0.00    -0.388 OA
ATOM     72  H   UNL     1     129.545 157.900 198.103  0.00  0.00    +0.210 HD
ENDBRANCH   5  71
TORSDOF 6
ENDMDL
MODEL 6
REMARK VINA RESULT:      -6.8      2.721      5.994
REMARK  Name = Cytochalasin B_conf2
REMARK  6 active torsions:
REMARK  status: ('A' for Active; 'I' for Inactive)
REMARK    1  A    between atoms: C_1  and  C_2
REMARK    2  A    between atoms: C_6  and  O_35
REMARK    3  A    between atoms: C_17  and  O_34
REMARK    4  A    between atoms: C_20  and  C_33
REMARK    5  A    between atoms: C_22  and  C_26
REMARK    6  A    between atoms: C_26  and  C_27
REMARK                            x       y       z     vdW  Elec       q    Type
REMARK                         _______ _______ _______ _____ _____    ______ ____
ROOT
ATOM      1  C   UNL     1     153.736 164.974 184.586  0.00  0.00    -0.040 C 
ATOM      2  C   UNL     1     154.404 165.001 185.974  0.00  0.00    -0.050 C 
ATOM      3  C   UNL     1     155.929 164.886 185.999  0.00  0.00    -0.050 C 
ATOM      4  C   UNL     1     156.591 165.440 187.275  0.00  0.00    -0.023 C 
ATOM      5  C   UNL     1     156.131 164.850 188.624  0.00  0.00    +0.074 C 
ATOM      6  C   UNL     1     154.718 165.178 189.004  0.00  0.00    -0.049 C 
ATOM      7  C   UNL     1     154.253 166.429 189.177  0.00  0.00    +0.021 C 
ATOM      8  C   UNL     1     152.823 166.775 189.276  0.00  0.00    +0.333 C 
ATOM      9  O   UNL     1     152.426 167.925 189.166  0.00  0.00    -0.246 OA
ATOM     10  O   UNL     1     152.051 165.681 189.451  0.00  0.00    -0.444 OA
ATOM     11  C   UNL     1     150.618 165.815 189.300  0.00  0.00    +0.202 C 
ATOM     12  C   UNL     1     150.196 166.189 187.846  0.00  0.00    +0.056 C 
ATOM     13  C   UNL     1     150.844 165.322 186.767  0.00  0.00    -0.078 C 
ATOM     14  C   UNL     1     151.568 165.777 185.730  0.00  0.00    -0.087 C 
ATOM     15  C   UNL     1     152.194 164.861 184.706  0.00  0.00    -0.032 C 
ATOM     16  C   UNL     1     148.647 166.161 187.713  0.00  0.00    +0.087 C 
ATOM     17  C   UNL     1     147.926 166.674 188.950  0.00  0.00    -0.045 C 
ATOM     18  C   UNL     1     146.646 166.332 189.179  0.00  0.00    -0.097 C 
ATOM     19  C   UNL     1     148.774 167.538 189.863  0.00  0.00    -0.012 C 
ATOM     20  C   UNL     1     149.993 166.741 190.404  0.00  0.00    +0.033 C 
ATOM     21  C   UNL     1     149.699 165.786 191.583  0.00  0.00    +0.035 C 
ATOM     22  N   UNL     1     149.546 164.502 190.963  0.00  0.00    -0.308 N 
ATOM     23  C   UNL     1     150.075 164.431 189.699  0.00  0.00    +0.258 C 
ATOM     24  O   UNL     1     150.111 163.396 189.053  0.00  0.00    -0.271 OA
ATOM     25  H   UNL     1     153.968 165.924 184.084  0.00  0.00    +0.030 HD
ATOM     26  H   UNL     1     154.128 165.954 186.437  0.00  0.00    +0.027 HD
ATOM     27  H   UNL     1     153.984 164.191 186.581  0.00  0.00    +0.027 HD
ATOM     28  H   UNL     1     156.350 165.434 185.148  0.00  0.00    +0.027 HD
ATOM     29  H   UNL     1     156.217 163.836 185.874  0.00  0.00    +0.027 HD
ATOM     30  H   UNL     1     156.473 166.532 187.291  0.00  0.00    +0.029 HD
ATOM     31  H   UNL     1     157.674 165.283 187.183  0.00  0.00    +0.029 HD
ATOM     32  H   UNL     1     156.255 163.761 188.616  0.00  0.00    +0.064 HD
ATOM     33  H   UNL     1     154.032 164.334 189.019  0.00  0.00    +0.060 HD
ATOM     34  H   UNL     1     154.920 167.283 189.123  0.00  0.00    +0.069 HD
ATOM     35  H   UNL     1     150.533 167.215 187.648  0.00  0.00    +0.042 HD
ATOM     36  H   UNL     1     150.684 164.248 186.854  0.00  0.00    +0.057 HD
ATOM     37  H   UNL     1     151.726 166.845 185.598  0.00  0.00    +0.057 HD
ATOM     38  H   UNL     1     151.745 165.083 183.730  0.00  0.00    +0.031 HD
ATOM     39  H   UNL     1     151.929 163.819 184.933  0.00  0.00    +0.031 HD
ATOM     40  H   UNL     1     148.310 165.141 187.490  0.00  0.00    +0.065 HD
ATOM     41  H   UNL     1     146.104 165.705 188.475  0.00  0.00    +0.054 HD
ATOM     42  H   UNL     1     146.092 166.662 190.051  0.00  0.00    +0.054 HD
ATOM     43  H   UNL     1     149.184 168.332 189.219  0.00  0.00    +0.035 HD
ATOM     44  H   UNL     1     150.708 167.492 190.754  0.00  0.00    +0.037 HD
ATOM     45  H   UNL     1     148.758 166.012 192.089  0.00  0.00    +0.051 HD
ATOM     46  H   UNL     1     149.163 163.681 191.419  0.00  0.00    +0.149 HD
ENDROOT
BRANCH   1  47
ATOM     47  C   UNL     1     154.258 163.840 183.701  0.00  0.00    -0.062 C 
ATOM     48  H   UNL     1     155.121 164.172 183.113  0.00  0.00    +0.023 HD
ATOM     49  H   UNL     1     154.584 162.984 184.300  0.00  0.00    +0.023 HD
ATOM     50  H   UNL     1     153.485 163.494 183.005  0.00  0.00    +0.023 HD
ENDBRANCH   1  47
BRANCH  19  51
ATOM     51  C   UNL     1     148.028 168.305 190.963  0.00  0.00    -0.058 C 
ATOM     52  H   UNL     1     147.249 167.673 191.408  0.00  0.00    +0.024 HD
ATOM     53  H   UNL     1     148.681 168.636 191.775  0.00  0.00    +0.024 HD
ATOM     54  H   UNL     1     147.535 169.189 190.546  0.00  0.00    +0.024 HD
ENDBRANCH  19  51
BRANCH  21  55
ATOM     55  C   UNL     1     150.849 165.785 192.613  0.00  0.00    -0.009 C 
ATOM     56  H   UNL     1     151.557 166.591 192.382  0.00  0.00    +0.033 HD
ATOM     57  H   UNL     1     151.424 164.852 192.559  0.00  0.00    +0.033 HD
BRANCH  55  58
ATOM     58  C   UNL     1     150.354 165.980 194.029  0.00  0.00    -0.046 A 
ATOM     59  C   UNL     1     151.245 165.905 195.109  0.00  0.00    -0.059 A 
ATOM     60  C   UNL     1     150.785 166.062 196.416  0.00  0.00    -0.062 A 
ATOM     61  C   UNL     1     149.432 166.293 196.657  0.00  0.00    -0.062 A 
ATOM     62  C   UNL     1     148.538 166.367 195.591  0.00  0.00    -0.062 A 
ATOM     63  C   UNL     1     148.995 166.209 194.282  0.00  0.00    -0.059 A 
ATOM     64  H   UNL     1     152.305 165.723 194.937  0.00  0.00    +0.062 HD
ATOM     65  H   UNL     1     151.483 166.005 197.247  0.00  0.00    +0.062 HD
ATOM     66  H   UNL     1     149.076 166.416 197.677  0.00  0.00    +0.062 HD
ATOM     67  H   UNL     1     147.482 166.548 195.781  0.00  0.00    +0.062 HD
ATOM     68  H   UNL     1     148.283 166.271 193.463  0.00  0.00    +0.062 HD
ENDBRANCH  55  58
ENDBRANCH  21  55
BRANCH  16  69
ATOM     69  O   UNL     1     148.244 166.979 186.612  0.00  0.00    -0.387 OA
ATOM     70  H   UNL     1     148.815 166.763 185.857  0.00  0.00    +0.210 HD
ENDBRANCH  16  69
BRANCH   5  71
ATOM     71  O   UNL     1     156.965 165.369 189.658  0.00  0.00    -0.388 OA
ATOM     72  H   UNL     1     157.791 164.856 189.645  0.00  0.00    +0.210 HD
ENDBRANCH   5  71
TORSDOF 6
ENDMDL
MODEL 7
REMARK VINA RESULT:      -6.7      3.989      7.909
REMARK  Name = Cytochalasin B_conf2
REMARK  6 active torsions:
REMARK  status: ('A' for Active; 'I' for Inactive)
REMARK    1  A    between atoms: C_1  and  C_2
REMARK    2  A    between atoms: C_6  and  O_35
REMARK    3  A    between atoms: C_17  and  O_34
REMARK    4  A    between atoms: C_20  and  C_33
REMARK    5  A    between atoms: C_22  and  C_26
REMARK    6  A    between atoms: C_26  and  C_27
REMARK                            x       y       z     vdW  Elec       q    Type
REMARK                         _______ _______ _______ _____ _____    ______ ____
ROOT
ATOM      1  C   UNL     1     151.001 167.034 191.630  0.00  0.00    -0.040 C 
ATOM      2  C   UNL     1     150.369 168.425 191.833  0.00  0.00    -0.050 C 
ATOM      3  C   UNL     1     151.325 169.559 192.208  0.00  0.00    -0.050 C 
ATOM      4  C   UNL     1     150.799 170.970 191.884  0.00  0.00    -0.023 C 
ATOM      5  C   UNL     1     149.445 171.379 192.497  0.00  0.00    +0.074 C 
ATOM      6  C   UNL     1     148.262 170.626 191.966  0.00  0.00    -0.049 C 
ATOM      7  C   UNL     1     147.888 170.619 190.674  0.00  0.00    +0.021 C 
ATOM      8  C   UNL     1     146.909 169.677 190.099  0.00  0.00    +0.333 C 
ATOM      9  O   UNL     1     146.792 169.521 188.892  0.00  0.00    -0.246 OA
ATOM     10  O   UNL     1     146.229 169.011 191.056  0.00  0.00    -0.444 OA
ATOM     11  C   UNL     1     145.431 167.868 190.668  0.00  0.00    +0.202 C 
ATOM     12  C   UNL     1     146.289 166.694 190.108  0.00  0.00    +0.056 C 
ATOM     13  C   UNL     1     147.490 166.329 190.979  0.00  0.00    -0.078 C 
ATOM     14  C   UNL     1     148.770 166.291 190.569  0.00  0.00    -0.087 C 
ATOM     15  C   UNL     1     149.913 165.937 191.490  0.00  0.00    -0.032 C 
ATOM     16  C   UNL     1     145.394 165.445 189.861  0.00  0.00    +0.087 C 
ATOM     17  C   UNL     1     144.009 165.791 189.338  0.00  0.00    -0.045 C 
ATOM     18  C   UNL     1     142.995 164.918 189.475  0.00  0.00    -0.097 C 
ATOM     19  C   UNL     1     143.895 167.167 188.710  0.00  0.00    -0.012 C 
ATOM     20  C   UNL     1     144.228 168.276 189.746  0.00  0.00    +0.033 C 
ATOM     21  C   UNL     1     143.093 168.634 190.731  0.00  0.00    +0.035 C 
ATOM     22  N   UNL     1     143.409 167.888 191.914  0.00  0.00    -0.308 N 
ATOM     23  C   UNL     1     144.713 167.463 191.968  0.00  0.00    +0.258 C 
ATOM     24  O   UNL     1     145.183 166.887 192.937  0.00  0.00    -0.271 OA
ATOM     25  H   UNL     1     151.578 167.061 190.696  0.00  0.00    +0.030 HD
ATOM     26  H   UNL     1     149.882 168.689 190.889  0.00  0.00    +0.027 HD
ATOM     27  H   UNL     1     149.598 168.348 192.608  0.00  0.00    +0.027 HD
ATOM     28  H   UNL     1     152.271 169.431 191.670  0.00  0.00    +0.027 HD
ATOM     29  H   UNL     1     151.557 169.501 193.278  0.00  0.00    +0.027 HD
ATOM     30  H   UNL     1     150.762 171.093 190.793  0.00  0.00    +0.029 HD
ATOM     31  H   UNL     1     151.558 171.691 192.214  0.00  0.00    +0.029 HD
ATOM     32  H   UNL     1     149.481 171.266 193.587  0.00  0.00    +0.064 HD
ATOM     33  H   UNL     1     147.770 169.967 192.679  0.00  0.00    +0.060 HD
ATOM     34  H   UNL     1     148.397 171.240 189.944  0.00  0.00    +0.069 HD
ATOM     35  H   UNL     1     146.705 167.007 189.141  0.00  0.00    +0.042 HD
ATOM     36  H   UNL     1     147.272 166.068 192.014  0.00  0.00    +0.057 HD
ATOM     37  H   UNL     1     149.022 166.522 189.536  0.00  0.00    +0.057 HD
ATOM     38  H   UNL     1     150.381 165.019 191.113  0.00  0.00    +0.031 HD
ATOM     39  H   UNL     1     149.521 165.693 192.486  0.00  0.00    +0.031 HD
ATOM     40  H   UNL     1     145.301 164.864 190.786  0.00  0.00    +0.065 HD
ATOM     41  H   UNL     1     143.157 163.948 189.939  0.00  0.00    +0.054 HD
ATOM     42  H   UNL     1     141.987 165.121 189.129  0.00  0.00    +0.054 HD
ATOM     43  H   UNL     1     144.687 167.208 187.947  0.00  0.00    +0.035 HD
ATOM     44  H   UNL     1     144.454 169.172 189.158  0.00  0.00    +0.037 HD
ATOM     45  H   UNL     1     142.112 168.295 190.392  0.00  0.00    +0.051 HD
ATOM     46  H   UNL     1     142.777 167.742 192.693  0.00  0.00    +0.149 HD
ENDROOT
BRANCH   1  47
ATOM     47  C   UNL     1     151.961 166.650 192.758  0.00  0.00    -0.062 C 
ATOM     48  H   UNL     1     152.988 166.577 192.386  0.00  0.00    +0.023 HD
ATOM     49  H   UNL     1     151.958 167.398 193.557  0.00  0.00    +0.023 HD
ATOM     50  H   UNL     1     151.689 165.683 193.198  0.00  0.00    +0.023 HD
ENDBRANCH   1  47
BRANCH  19  51
ATOM     51  C   UNL     1     142.609 167.452 187.922  0.00  0.00    -0.058 C 
ATOM     52  H   UNL     1     141.740 167.428 188.589  0.00  0.00    +0.024 HD
ATOM     53  H   UNL     1     142.615 168.428 187.430  0.00  0.00    +0.024 HD
ATOM     54  H   UNL     1     142.454 166.688 187.153  0.00  0.00    +0.024 HD
ENDBRANCH  19  51
BRANCH  21  55
ATOM     55  C   UNL     1     143.043 170.151 191.014  0.00  0.00    -0.009 C 
ATOM     56  H   UNL     1     143.629 170.690 190.259  0.00  0.00    +0.033 HD
ATOM     57  H   UNL     1     143.506 170.386 191.981  0.00  0.00    +0.033 HD
BRANCH  55  58
ATOM     58  C   UNL     1     141.632 170.695 190.996  0.00  0.00    -0.046 A 
ATOM     59  C   UNL     1     141.348 171.951 191.548  0.00  0.00    -0.059 A 
ATOM     60  C   UNL     1     140.043 172.443 191.552  0.00  0.00    -0.062 A 
ATOM     61  C   UNL     1     139.009 171.684 191.006  0.00  0.00    -0.062 A 
ATOM     62  C   UNL     1     139.281 170.433 190.456  0.00  0.00    -0.062 A 
ATOM     63  C   UNL     1     140.585 169.938 190.451  0.00  0.00    -0.059 A 
ATOM     64  H   UNL     1     142.145 172.555 191.981  0.00  0.00    +0.062 HD
ATOM     65  H   UNL     1     139.833 173.419 191.981  0.00  0.00    +0.062 HD
ATOM     66  H   UNL     1     137.993 172.069 191.009  0.00  0.00    +0.062 HD
ATOM     67  H   UNL     1     138.473 169.842 190.029  0.00  0.00    +0.062 HD
ATOM     68  H   UNL     1     140.778 168.961 190.017  0.00  0.00    +0.062 HD
ENDBRANCH  55  58
ENDBRANCH  21  55
BRANCH  16  69
ATOM     69  O   UNL     1     146.015 164.592 188.897  0.00  0.00    -0.387 OA
ATOM     70  H   UNL     1     146.533 165.151 188.295  0.00  0.00    +0.210 HD
ENDBRANCH  16  69
BRANCH   5  71
ATOM     71  O   UNL     1     149.213 172.758 192.216  0.00  0.00    -0.388 OA
ATOM     72  H   UNL     1     149.809 173.006 191.488  0.00  0.00    +0.210 HD
ENDBRANCH   5  71
TORSDOF 6
ENDMDL
MODEL 8
REMARK VINA RESULT:      -6.5     10.318     14.501
REMARK  Name = Cytochalasin B_conf2
REMARK  6 active torsions:
REMARK  status: ('A' for Active; 'I' for Inactive)
REMARK    1  A    between atoms: C_1  and  C_2
REMARK    2  A    between atoms: C_6  and  O_35
REMARK    3  A    between atoms: C_17  and  O_34
REMARK    4  A    between atoms: C_20  and  C_33
REMARK    5  A    between atoms: C_22  and  C_26
REMARK    6  A    between atoms: C_26  and  C_27
REMARK                            x       y       z     vdW  Elec       q    Type
REMARK                         _______ _______ _______ _____ _____    ______ ____
ROOT
ATOM      1  C   UNL     1     161.145 172.009 183.452  0.00  0.00    -0.040 C 
ATOM      2  C   UNL     1     159.836 171.238 183.714  0.00  0.00    -0.050 C 
ATOM      3  C   UNL     1     159.885 170.163 184.801  0.00  0.00    -0.050 C 
ATOM      4  C   UNL     1     158.515 169.803 185.405  0.00  0.00    -0.023 C 
ATOM      5  C   UNL     1     157.416 169.328 184.433  0.00  0.00    +0.074 C 
ATOM      6  C   UNL     1     156.918 170.380 183.486  0.00  0.00    -0.049 C 
ATOM      7  C   UNL     1     156.343 171.533 183.871  0.00  0.00    +0.021 C 
ATOM      8  C   UNL     1     156.105 172.680 182.975  0.00  0.00    +0.333 C 
ATOM      9  O   UNL     1     155.832 173.791 183.404  0.00  0.00    -0.246 OA
ATOM     10  O   UNL     1     156.272 172.348 181.677  0.00  0.00    -0.444 OA
ATOM     11  C   UNL     1     156.339 173.411 180.696  0.00  0.00    +0.202 C 
ATOM     12  C   UNL     1     157.586 174.326 180.882  0.00  0.00    +0.056 C 
ATOM     13  C   UNL     1     158.901 173.565 181.045  0.00  0.00    -0.078 C 
ATOM     14  C   UNL     1     159.754 173.691 182.076  0.00  0.00    -0.087 C 
ATOM     15  C   UNL     1     161.032 172.893 182.182  0.00  0.00    -0.032 C 
ATOM     16  C   UNL     1     157.686 175.343 179.708  0.00  0.00    +0.087 C 
ATOM     17  C   UNL     1     156.333 175.857 179.240  0.00  0.00    -0.045 C 
ATOM     18  C   UNL     1     156.196 176.380 178.009  0.00  0.00    -0.097 C 
ATOM     19  C   UNL     1     155.211 175.693 180.247  0.00  0.00    -0.012 C 
ATOM     20  C   UNL     1     154.983 174.193 180.582  0.00  0.00    +0.033 C 
ATOM     21  C   UNL     1     154.165 173.393 179.543  0.00  0.00    +0.035 C 
ATOM     22  N   UNL     1     155.159 172.730 178.751  0.00  0.00    -0.308 N 
ATOM     23  C   UNL     1     156.392 172.664 179.351  0.00  0.00    +0.258 C 
ATOM     24  O   UNL     1     157.336 172.064 178.861  0.00  0.00    -0.271 OA
ATOM     25  H   UNL     1     161.322 172.670 184.311  0.00  0.00    +0.030 HD
ATOM     26  H   UNL     1     159.087 171.981 184.004  0.00  0.00    +0.027 HD
ATOM     27  H   UNL     1     159.512 170.771 182.777  0.00  0.00    +0.027 HD
ATOM     28  H   UNL     1     160.525 170.504 185.623  0.00  0.00    +0.027 HD
ATOM     29  H   UNL     1     160.346 169.255 184.395  0.00  0.00    +0.027 HD
ATOM     30  H   UNL     1     158.147 170.659 185.987  0.00  0.00    +0.029 HD
ATOM     31  H   UNL     1     158.677 169.014 186.151  0.00  0.00    +0.029 HD
ATOM     32  H   UNL     1     157.775 168.468 183.856  0.00  0.00    +0.064 HD
ATOM     33  H   UNL     1     157.158 170.213 182.438  0.00  0.00    +0.060 HD
ATOM     34  H   UNL     1     156.136 171.729 184.918  0.00  0.00    +0.069 HD
ATOM     35  H   UNL     1     157.454 174.897 181.811  0.00  0.00    +0.042 HD
ATOM     36  H   UNL     1     159.158 172.874 180.243  0.00  0.00    +0.057 HD
ATOM     37  H   UNL     1     159.541 174.390 182.882  0.00  0.00    +0.057 HD
ATOM     38  H   UNL     1     161.874 173.595 182.163  0.00  0.00    +0.031 HD
ATOM     39  H   UNL     1     161.144 172.258 181.293  0.00  0.00    +0.031 HD
ATOM     40  H   UNL     1     158.215 174.885 178.863  0.00  0.00    +0.065 HD
ATOM     41  H   UNL     1     157.052 176.462 177.342  0.00  0.00    +0.054 HD
ATOM     42  H   UNL     1     155.252 176.749 177.624  0.00  0.00    +0.054 HD
ATOM     43  H   UNL     1     155.577 176.164 181.173  0.00  0.00    +0.035 HD
ATOM     44  H   UNL     1     154.427 174.180 181.525  0.00  0.00    +0.037 HD
ATOM     45  H   UNL     1     153.592 174.033 178.868  0.00  0.00    +0.051 HD
ATOM     46  H   UNL     1     154.982 172.271 177.864  0.00  0.00    +0.149 HD
ENDROOT
BRANCH   1  47
ATOM     47  C   UNL     1     162.358 171.087 183.317  0.00  0.00    -0.062 C 
ATOM     48  H   UNL     1     162.548 170.845 182.265  0.00  0.00    +0.023 HD
ATOM     49  H   UNL     1     163.264 171.559 183.709  0.00  0.00    +0.023 HD
ATOM     50  H   UNL     1     162.203 170.147 183.859  0.00  0.00    +0.023 HD
ENDBRANCH   1  47
BRANCH  19  51
ATOM     51  C   UNL     1     153.907 176.442 179.943  0.00  0.00    -0.058 C 
ATOM     52  H   UNL     1     153.761 176.530 178.860  0.00  0.00    +0.024 HD
ATOM     53  H   UNL     1     153.022 175.946 180.351  0.00  0.00    +0.024 HD
ATOM     54  H   UNL     1     153.943 177.457 180.352  0.00  0.00    +0.024 HD
ENDBRANCH  19  51
BRANCH  21  55
ATOM     55  C   UNL     1     153.216 172.383 180.223  0.00  0.00    -0.009 C 
ATOM     56  H   UNL     1     153.651 172.044 181.171  0.00  0.00    +0.033 HD
ATOM     57  H   UNL     1     153.094 171.483 179.607  0.00  0.00    +0.033 HD
BRANCH  55  58
ATOM     58  C   UNL     1     151.854 172.974 180.510  0.00  0.00    -0.046 A 
ATOM     59  C   UNL     1     151.690 173.913 181.538  0.00  0.00    -0.059 A 
ATOM     60  C   UNL     1     150.430 174.441 181.818  0.00  0.00    -0.062 A 
ATOM     61  C   UNL     1     149.321 174.034 181.076  0.00  0.00    -0.062 A 
ATOM     62  C   UNL     1     149.474 173.100 180.053  0.00  0.00    -0.062 A 
ATOM     63  C   UNL     1     150.733 172.569 179.771  0.00  0.00    -0.059 A 
ATOM     64  H   UNL     1     152.545 174.238 182.128  0.00  0.00    +0.062 HD
ATOM     65  H   UNL     1     150.312 175.170 182.615  0.00  0.00    +0.062 HD
ATOM     66  H   UNL     1     148.341 174.447 181.295  0.00  0.00    +0.062 HD
ATOM     67  H   UNL     1     148.609 172.784 179.474  0.00  0.00    +0.062 HD
ATOM     68  H   UNL     1     150.833 171.842 178.970  0.00  0.00    +0.062 HD
ENDBRANCH  55  58
ENDBRANCH  21  55
BRANCH  16  69
ATOM     69  O   UNL     1     158.457 176.475 180.116  0.00  0.00    -0.387 OA
ATOM     70  H   UNL     1     158.139 176.750 180.991  0.00  0.00    +0.210 HD
ENDBRANCH  16  69
BRANCH   5  71
ATOM     71  O   UNL     1     156.289 168.895 185.193  0.00  0.00    -0.388 OA
ATOM     72  H   UNL     1     155.570 168.716 184.564  0.00  0.00    +0.210 HD
ENDBRANCH   5  71
TORSDOF 6
ENDMDL
MODEL 9
REMARK VINA RESULT:      -6.5     18.530     21.486
REMARK  Name = Cytochalasin B_conf2
REMARK  6 active torsions:
REMARK  status: ('A' for Active; 'I' for Inactive)
REMARK    1  A    between atoms: C_1  and  C_2
REMARK    2  A    between atoms: C_6  and  O_35
REMARK    3  A    between atoms: C_17  and  O_34
REMARK    4  A    between atoms: C_20  and  C_33
REMARK    5  A    between atoms: C_22  and  C_26
REMARK    6  A    between atoms: C_26  and  C_27
REMARK                            x       y       z     vdW  Elec       q    Type
REMARK                         _______ _______ _______ _____ _____    ______ ____
ROOT
ATOM      1  C   UNL     1     135.214 159.381 200.479  0.00  0.00    -0.040 C 
ATOM      2  C   UNL     1     133.842 159.485 199.786  0.00  0.00    -0.050 C 
ATOM      3  C   UNL     1     133.267 158.188 199.215  0.00  0.00    -0.050 C 
ATOM      4  C   UNL     1     131.738 158.194 199.028  0.00  0.00    -0.023 C 
ATOM      5  C   UNL     1     131.137 159.310 198.150  0.00  0.00    +0.074 C 
ATOM      6  C   UNL     1     131.248 160.690 198.725  0.00  0.00    -0.049 C 
ATOM      7  C   UNL     1     130.710 161.065 199.899  0.00  0.00    +0.021 C 
ATOM      8  C   UNL     1     131.041 162.321 200.600  0.00  0.00    +0.333 C 
ATOM      9  O   UNL     1     130.746 162.507 201.771  0.00  0.00    -0.246 OA
ATOM     10  O   UNL     1     131.725 163.174 199.807  0.00  0.00    -0.444 OA
ATOM     11  C   UNL     1     132.354 164.327 200.415  0.00  0.00    +0.202 C 
ATOM     12  C   UNL     1     133.491 163.942 201.409  0.00  0.00    +0.056 C 
ATOM     13  C   UNL     1     134.489 162.928 200.852  0.00  0.00    -0.078 C 
ATOM     14  C   UNL     1     134.803 161.749 201.416  0.00  0.00    -0.087 C 
ATOM     15  C   UNL     1     135.789 160.785 200.801  0.00  0.00    -0.032 C 
ATOM     16  C   UNL     1     134.228 165.220 201.902  0.00  0.00    +0.087 C 
ATOM     17  C   UNL     1     133.302 166.407 202.113  0.00  0.00    -0.045 C 
ATOM     18  C   UNL     1     133.793 167.659 202.115  0.00  0.00    -0.097 C 
ATOM     19  C   UNL     1     131.838 166.045 202.277  0.00  0.00    -0.012 C 
ATOM     20  C   UNL     1     131.300 165.328 201.008  0.00  0.00    +0.033 C 
ATOM     21  C   UNL     1     130.937 166.250 199.822  0.00  0.00    +0.035 C 
ATOM     22  N   UNL     1     132.089 166.193 198.970  0.00  0.00    -0.308 N 
ATOM     23  C   UNL     1     132.907 165.118 199.215  0.00  0.00    +0.258 C 
ATOM     24  O   UNL     1     133.887 164.862 198.534  0.00  0.00    -0.271 OA
ATOM     25  H   UNL     1     135.071 158.847 201.428  0.00  0.00    +0.030 HD
ATOM     26  H   UNL     1     133.140 159.866 200.535  0.00  0.00    +0.027 HD
ATOM     27  H   UNL     1     133.913 160.220 198.977  0.00  0.00    +0.027 HD
ATOM     28  H   UNL     1     133.512 157.354 199.884  0.00  0.00    +0.027 HD
ATOM     29  H   UNL     1     133.744 157.972 198.252  0.00  0.00    +0.027 HD
ATOM     30  H   UNL     1     131.260 158.205 200.017  0.00  0.00    +0.029 HD
ATOM     31  H   UNL     1     131.452 157.226 198.597  0.00  0.00    +0.029 HD
ATOM     32  H   UNL     1     131.605 159.296 197.159  0.00  0.00    +0.064 HD
ATOM     33  H   UNL     1     131.907 161.368 198.186  0.00  0.00    +0.060 HD
ATOM     34  H   UNL     1     130.085 160.385 200.468  0.00  0.00    +0.069 HD
ATOM     35  H   UNL     1     133.031 163.460 202.282  0.00  0.00    +0.042 HD
ATOM     36  H   UNL     1     134.989 163.206 199.924  0.00  0.00    +0.057 HD
ATOM     37  H   UNL     1     134.342 161.450 202.355  0.00  0.00    +0.057 HD
ATOM     38  H   UNL     1     136.633 160.673 201.494  0.00  0.00    +0.031 HD
ATOM     39  H   UNL     1     136.205 161.220 199.882  0.00  0.00    +0.031 HD
ATOM     40  H   UNL     1     135.017 165.494 201.191  0.00  0.00    +0.065 HD
ATOM     41  H   UNL     1     134.859 167.837 201.989  0.00  0.00    +0.054 HD
ATOM     42  H   UNL     1     133.173 168.538 202.249  0.00  0.00    +0.054 HD
ATOM     43  H   UNL     1     131.809 165.301 203.088  0.00  0.00    +0.035 HD
ATOM     44  H   UNL     1     130.386 164.815 201.322  0.00  0.00    +0.037 HD
ATOM     45  H   UNL     1     130.809 167.294 200.117  0.00  0.00    +0.051 HD
ATOM     46  H   UNL     1     132.269 166.823 198.196  0.00  0.00    +0.149 HD
ENDROOT
BRANCH   1  47
ATOM     47  C   UNL     1     136.235 158.596 199.653  0.00  0.00    -0.062 C 
ATOM     48  H   UNL     1     137.065 158.255 200.282  0.00  0.00    +0.023 HD
ATOM     49  H   UNL     1     135.785 157.706 199.203  0.00  0.00    +0.023 HD
ATOM     50  H   UNL     1     136.650 159.211 198.847  0.00  0.00    +0.023 HD
ENDBRANCH   1  47
BRANCH  19  51
ATOM     51  C   UNL     1     130.910 167.164 202.768  0.00  0.00    -0.058 C 
ATOM     52  H   UNL     1     130.170 166.765 203.471  0.00  0.00    +0.024 HD
ATOM     53  H   UNL     1     131.443 167.970 203.280  0.00  0.00    +0.024 HD
ATOM     54  H   UNL     1     130.362 167.604 201.929  0.00  0.00    +0.024 HD
ENDBRANCH  19  51
BRANCH  21  55
ATOM     55  C   UNL     1     129.667 165.763 199.091  0.00  0.00    -0.009 C 
ATOM     56  H   UNL     1     128.795 165.871 199.748  0.00  0.00    +0.033 HD
ATOM     57  H   UNL     1     129.736 164.694 198.853  0.00  0.00    +0.033 HD
BRANCH  55  58
ATOM     58  C   UNL     1     129.401 166.538 197.819  0.00  0.00    -0.046 A 
ATOM     59  C   UNL     1     129.435 165.893 196.576  0.00  0.00    -0.059 A 
ATOM     60  C   UNL     1     129.212 166.612 195.401  0.00  0.00    -0.062 A 
ATOM     61  C   UNL     1     128.955 167.981 195.458  0.00  0.00    -0.062 A 
ATOM     62  C   UNL     1     128.922 168.631 196.690  0.00  0.00    -0.062 A 
ATOM     63  C   UNL     1     129.145 167.915 197.867  0.00  0.00    -0.059 A 
ATOM     64  H   UNL     1     129.636 164.825 196.514  0.00  0.00    +0.062 HD
ATOM     65  H   UNL     1     129.238 166.103 194.441  0.00  0.00    +0.062 HD
ATOM     66  H   UNL     1     128.781 168.539 194.542  0.00  0.00    +0.062 HD
ATOM     67  H   UNL     1     128.720 169.699 196.733  0.00  0.00    +0.062 HD
ATOM     68  H   UNL     1     129.114 168.439 198.818  0.00  0.00    +0.062 HD
ENDBRANCH  55  58
ENDBRANCH  21  55
BRANCH  16  69
ATOM     69  O   UNL     1     134.872 164.952 203.150  0.00  0.00    -0.387 OA
ATOM     70  H   UNL     1     134.249 164.454 203.704  0.00  0.00    +0.210 HD
ENDBRANCH  16  69
BRANCH   5  71
ATOM     71  O   UNL     1     129.746 159.051 197.971  0.00  0.00    -0.388 OA
ATOM     72  H   UNL     1     129.275 159.884 198.144  0.00  0.00    +0.210 HD
ENDBRANCH   5  71
TORSDOF 6
ENDMDL
MODEL 10
REMARK VINA RESULT:      -6.5     10.578     13.017
REMARK  Name = Cytochalasin B_conf2
REMARK  6 active torsions:
REMARK  status: ('A' for Active; 'I' for Inactive)
REMARK    1  A    between atoms: C_1  and  C_2
REMARK    2  A    between atoms: C_6  and  O_35
REMARK    3  A    between atoms: C_17  and  O_34
REMARK    4  A    between atoms: C_20  and  C_33
REMARK    5  A    between atoms: C_22  and  C_26
REMARK    6  A    between atoms: C_26  and  C_27
REMARK                            x       y       z     vdW  Elec       q    Type
REMARK                         _______ _______ _______ _____ _____    ______ ____
ROOT
ATOM      1  C   UNL     1     156.045 177.219 179.345  0.00  0.00    -0.040 C 
ATOM      2  C   UNL     1     154.964 176.287 179.925  0.00  0.00    -0.050 C 
ATOM      3  C   UNL     1     153.512 176.652 179.615  0.00  0.00    -0.050 C 
ATOM      4  C   UNL     1     152.521 175.477 179.723  0.00  0.00    -0.023 C 
ATOM      5  C   UNL     1     152.458 174.726 181.068  0.00  0.00    +0.074 C 
ATOM      6  C   UNL     1     153.692 173.944 181.409  0.00  0.00    -0.049 C 
ATOM      7  C   UNL     1     154.185 172.944 180.657  0.00  0.00    +0.021 C 
ATOM      8  C   UNL     1     155.529 172.361 180.830  0.00  0.00    +0.333 C 
ATOM      9  O   UNL     1     156.042 171.651 179.978  0.00  0.00    -0.246 OA
ATOM     10  O   UNL     1     156.099 172.747 181.992  0.00  0.00    -0.444 OA
ATOM     11  C   UNL     1     157.509 172.485 182.190  0.00  0.00    +0.202 C 
ATOM     12  C   UNL     1     158.415 173.270 181.194  0.00  0.00    +0.056 C 
ATOM     13  C   UNL     1     158.082 174.757 181.087  0.00  0.00    -0.078 C 
ATOM     14  C   UNL     1     157.782 175.411 179.951  0.00  0.00    -0.087 C 
ATOM     15  C   UNL     1     157.446 176.882 179.919  0.00  0.00    -0.032 C 
ATOM     16  C   UNL     1     159.914 173.070 181.561  0.00  0.00    +0.087 C 
ATOM     17  C   UNL     1     160.232 171.667 182.053  0.00  0.00    -0.045 C 
ATOM     18  C   UNL     1     161.330 171.442 182.796  0.00  0.00    -0.097 C 
ATOM     19  C   UNL     1     159.213 170.614 181.664  0.00  0.00    -0.012 C 
ATOM     20  C   UNL     1     157.817 170.948 182.260  0.00  0.00    +0.033 C 
ATOM     21  C   UNL     1     157.621 170.584 183.749  0.00  0.00    +0.035 C 
ATOM     22  N   UNL     1     157.853 171.817 184.443  0.00  0.00    -0.308 N 
ATOM     23  C   UNL     1     157.763 172.928 183.643  0.00  0.00    +0.258 C 
ATOM     24  O   UNL     1     157.848 174.066 184.077  0.00  0.00    -0.271 OA
ATOM     25  H   UNL     1     156.077 177.060 178.258  0.00  0.00    +0.030 HD
ATOM     26  H   UNL     1     155.158 175.289 179.517  0.00  0.00    +0.027 HD
ATOM     27  H   UNL     1     155.088 176.242 181.013  0.00  0.00    +0.027 HD
ATOM     28  H   UNL     1     153.444 177.044 178.594  0.00  0.00    +0.027 HD
ATOM     29  H   UNL     1     153.188 177.456 180.286  0.00  0.00    +0.027 HD
ATOM     30  H   UNL     1     152.725 174.765 178.912  0.00  0.00    +0.029 HD
ATOM     31  H   UNL     1     151.519 175.866 179.500  0.00  0.00    +0.029 HD
ATOM     32  H   UNL     1     152.246 175.431 181.879  0.00  0.00    +0.064 HD
ATOM     33  H   UNL     1     154.257 174.315 182.262  0.00  0.00    +0.060 HD
ATOM     34  H   UNL     1     153.653 172.593 179.779  0.00  0.00    +0.069 HD
ATOM     35  H   UNL     1     158.256 172.854 180.190  0.00  0.00    +0.042 HD
ATOM     36  H   UNL     1     158.106 175.323 182.017  0.00  0.00    +0.057 HD
ATOM     37  H   UNL     1     157.772 174.882 179.000  0.00  0.00    +0.057 HD
ATOM     38  H   UNL     1     158.208 177.393 179.318  0.00  0.00    +0.031 HD
ATOM     39  H   UNL     1     157.527 177.300 180.932  0.00  0.00    +0.031 HD
ATOM     40  H   UNL     1     160.212 173.801 182.323  0.00  0.00    +0.065 HD
ATOM     41  H   UNL     1     162.014 172.254 183.035  0.00  0.00    +0.054 HD
ATOM     42  H   UNL     1     161.595 170.463 183.180  0.00  0.00    +0.054 HD
ATOM     43  H   UNL     1     159.110 170.695 180.570  0.00  0.00    +0.035 HD
ATOM     44  H   UNL     1     157.098 170.363 181.677  0.00  0.00    +0.037 HD
ATOM     45  H   UNL     1     158.361 169.868 184.113  0.00  0.00    +0.051 HD
ATOM     46  H   UNL     1     157.990 171.901 185.444  0.00  0.00    +0.149 HD
ENDROOT
BRANCH   1  47
ATOM     47  C   UNL     1     155.743 178.699 179.589  0.00  0.00    -0.062 C 
ATOM     48  H   UNL     1     156.020 179.301 178.717  0.00  0.00    +0.023 HD
ATOM     49  H   UNL     1     154.676 178.864 179.771  0.00  0.00    +0.023 HD
ATOM     50  H   UNL     1     156.297 179.079 180.455  0.00  0.00    +0.023 HD
ENDBRANCH   1  47
BRANCH  19  51
ATOM     51  C   UNL     1     159.624 169.152 181.888  0.00  0.00    -0.058 C 
ATOM     52  H   UNL     1     158.902 168.649 182.541  0.00  0.00    +0.024 HD
ATOM     53  H   UNL     1     159.681 168.575 180.961  0.00  0.00    +0.024 HD
ATOM     54  H   UNL     1     160.602 169.100 182.377  0.00  0.00    +0.024 HD
ENDBRANCH  19  51
BRANCH  21  55
ATOM     55  C   UNL     1     156.203 170.039 184.019  0.00  0.00    -0.009 C 
ATOM     56  H   UNL     1     155.465 170.842 183.894  0.00  0.00    +0.033 HD
ATOM     57  H   UNL     1     156.104 169.697 185.057  0.00  0.00    +0.033 HD
BRANCH  55  58
ATOM     58  C   UNL     1     155.832 168.907 183.087  0.00  0.00    -0.046 A 
ATOM     59  C   UNL     1     154.836 169.083 182.117  0.00  0.00    -0.059 A 
ATOM     60  C   UNL     1     154.478 168.031 181.273  0.00  0.00    -0.062 A 
ATOM     61  C   UNL     1     155.110 166.794 181.392  0.00  0.00    -0.062 A 
ATOM     62  C   UNL     1     156.101 166.609 182.355  0.00  0.00    -0.062 A 
ATOM     63  C   UNL     1     156.460 167.658 183.201  0.00  0.00    -0.059 A 
ATOM     64  H   UNL     1     154.331 170.042 182.014  0.00  0.00    +0.062 HD
ATOM     65  H   UNL     1     153.706 168.177 180.523  0.00  0.00    +0.062 HD
ATOM     66  H   UNL     1     154.831 165.977 180.733  0.00  0.00    +0.062 HD
ATOM     67  H   UNL     1     156.594 165.644 182.445  0.00  0.00    +0.062 HD
ATOM     68  H   UNL     1     157.235 167.496 183.945  0.00  0.00    +0.062 HD
ENDBRANCH  55  58
ENDBRANCH  21  55
BRANCH  16  69
ATOM     69  O   UNL     1     160.727 173.316 180.411  0.00  0.00    -0.387 OA
ATOM     70  H   UNL     1     160.917 174.268 180.380  0.00  0.00    +0.210 HD
ENDBRANCH  16  69
BRANCH   5  71
ATOM     71  O   UNL     1     151.382 173.791 181.019  0.00  0.00    -0.388 OA
ATOM     72  H   UNL     1     150.936 173.911 180.164  0.00  0.00    +0.210 HD
ENDBRANCH   5  71
TORSDOF 6
ENDMDL
