MODEL 1
REMARK VINA RESULT:      -7.7      0.000      0.000
REMARK  Name = Jasplakinolide_conf2
REMARK  10 active torsions:
REMARK  status: ('A' for Active; 'I' for Inactive)
REMARK    1  A    between atoms: C_1  and  C_2
REMARK    2  A    between atoms: C_4  and  C_47
REMARK    3  A    between atoms: C_9  and  C_40
REMARK    4  A    between atoms: C_13  and  C_29
REMARK    5  A    between atoms: N_14  and  C_28
REMARK    6  A    between atoms: C_17  and  C_27
REMARK    7  A    between atoms: C_21  and  C_26
REMARK    8  A    between atoms: C_23  and  C_25
REMARK    9  A    between atoms: C_29  and  C_30
REMARK   10  A    between atoms: C_43  and  O_46
REMARK                            x       y       z     vdW  Elec       q    Type
REMARK                         _______ _______ _______ _____ _____    ______ ____
ROOT
ATOM      1  C   UNL     1     148.165 158.615 188.861  0.00  0.00    -0.022 C 
ATOM      2  C   UNL     1     148.609 159.467 190.063  0.00  0.00    -0.010 C 
ATOM      3  C   UNL     1     149.141 160.866 189.700  0.00  0.00    +0.101 C 
ATOM      4  O   UNL     1     149.239 161.595 190.945  0.00  0.00    -0.462 OA
ATOM      5  C   UNL     1     149.221 162.954 190.844  0.00  0.00    +0.309 C 
ATOM      6  O   UNL     1     149.207 163.578 189.793  0.00  0.00    -0.251 OA
ATOM      7  C   UNL     1     149.133 163.555 192.227  0.00  0.00    +0.067 C 
ATOM      8  C   UNL     1     149.560 165.027 192.246  0.00  0.00    +0.058 C 
ATOM      9  N   UNL     1     148.656 165.868 191.484  0.00  0.00    -0.306 N 
ATOM     10  C   UNL     1     149.089 166.989 190.800  0.00  0.00    +0.234 C 
ATOM     11  O   UNL     1     150.228 167.438 190.879  0.00  0.00    -0.274 OA
ATOM     12  C   UNL     1     148.030 167.536 189.829  0.00  0.00    +0.106 C 
ATOM     13  N   UNL     1     147.946 166.593 188.681  0.00  0.00    -0.291 N 
ATOM     14  C   UNL     1     146.942 165.625 188.713  0.00  0.00    +0.236 C 
ATOM     15  O   UNL     1     146.191 165.509 189.694  0.00  0.00    -0.274 OA
ATOM     16  C   UNL     1     146.753 164.705 187.483  0.00  0.00    +0.097 C 
ATOM     17  N   UNL     1     145.808 163.647 187.846  0.00  0.00    -0.304 N 
ATOM     18  C   UNL     1     145.718 162.462 187.154  0.00  0.00    +0.217 C 
ATOM     19  O   UNL     1     146.454 162.188 186.209  0.00  0.00    -0.275 OA
ATOM     20  C   UNL     1     144.559 161.577 187.601  0.00  0.00    +0.036 C 
ATOM     21  C   UNL     1     144.834 160.089 187.319  0.00  0.00    -0.021 C 
ATOM     22  C   UNL     1     145.756 159.444 188.346  0.00  0.00    -0.076 C 
ATOM     23  C   UNL     1     147.059 159.254 188.050  0.00  0.00    -0.082 C 
ATOM     24  H   UNL     1     149.022 158.529 188.181  0.00  0.00    +0.034 HD
ATOM     25  H   UNL     1     149.387 158.930 190.629  0.00  0.00    +0.031 HD
ATOM     26  H   UNL     1     147.781 159.583 190.773  0.00  0.00    +0.031 HD
ATOM     27  H   UNL     1     148.430 161.374 189.040  0.00  0.00    +0.073 HD
ATOM     28  H   UNL     1     149.790 162.979 192.891  0.00  0.00    +0.040 HD
ATOM     29  H   UNL     1     148.100 163.430 192.571  0.00  0.00    +0.040 HD
ATOM     30  H   UNL     1     150.546 165.091 191.766  0.00  0.00    +0.055 HD
ATOM     31  H   UNL     1     147.701 165.558 191.314  0.00  0.00    +0.149 HD
ATOM     32  H   UNL     1     147.077 167.514 190.370  0.00  0.00    +0.060 HD
ATOM     33  H   UNL     1     147.700 164.225 187.223  0.00  0.00    +0.059 HD
ATOM     34  H   UNL     1     145.260 163.805 188.684  0.00  0.00    +0.149 HD
ATOM     35  H   UNL     1     144.383 161.734 188.671  0.00  0.00    +0.039 HD
ATOM     36  H   UNL     1     143.890 159.527 187.316  0.00  0.00    +0.032 HD
ATOM     37  H   UNL     1     145.245 159.959 186.307  0.00  0.00    +0.032 HD
ATOM     38  H   UNL     1     147.403 159.612 187.076  0.00  0.00    +0.057 HD
ENDROOT
BRANCH   8  39
ATOM     39  C   UNL     1     149.677 165.560 193.666  0.00  0.00    -0.026 A 
ATOM     40  C   UNL     1     150.918 165.674 194.316  0.00  0.00    -0.053 A 
ATOM     41  C   UNL     1     150.995 166.168 195.619  0.00  0.00    -0.020 A 
ATOM     42  C   UNL     1     149.836 166.535 196.288  0.00  0.00    +0.117 A 
ATOM     43  C   UNL     1     148.593 166.413 195.676  0.00  0.00    -0.020 A 
ATOM     44  C   UNL     1     148.516 165.923 194.371  0.00  0.00    -0.053 A 
ATOM     45  H   UNL     1     151.836 165.371 193.820  0.00  0.00    +0.062 HD
ATOM     46  H   UNL     1     151.958 166.257 196.114  0.00  0.00    +0.065 HD
ATOM     47  H   UNL     1     147.680 166.682 196.196  0.00  0.00    +0.065 HD
ATOM     48  H   UNL     1     147.538 165.807 193.906  0.00  0.00    +0.062 HD
BRANCH  42  49
ATOM     49  O   UNL     1     149.959 167.007 197.561  0.00  0.00    -0.507 OA
ATOM     50  H   UNL     1     149.235 166.639 198.095  0.00  0.00    +0.292 HD
ENDBRANCH  42  49
ENDBRANCH   8  39
BRANCH   1  51
ATOM     51  C   UNL     1     147.846 157.176 189.279  0.00  0.00    -0.059 C 
ATOM     52  H   UNL     1     147.408 156.590 188.468  0.00  0.00    +0.024 HD
ATOM     53  H   UNL     1     147.124 157.172 190.102  0.00  0.00    +0.024 HD
ATOM     54  H   UNL     1     148.747 156.659 189.627  0.00  0.00    +0.024 HD
ENDBRANCH   1  51
BRANCH  22  55
ATOM     55  C   UNL     1     145.075 159.039 189.625  0.00  0.00    -0.044 C 
ATOM     56  H   UNL     1     145.654 159.371 190.494  0.00  0.00    +0.027 HD
ATOM     57  H   UNL     1     144.085 159.502 189.683  0.00  0.00    +0.027 HD
ATOM     58  H   UNL     1     144.955 157.962 189.732  0.00  0.00    +0.027 HD
ENDBRANCH  22  55
BRANCH  20  59
ATOM     59  C   UNL     1     143.310 162.038 186.845  0.00  0.00    -0.054 C 
ATOM     60  H   UNL     1     143.220 161.514 185.889  0.00  0.00    +0.024 HD
ATOM     61  H   UNL     1     143.340 163.116 186.646  0.00  0.00    +0.024 HD
ATOM     62  H   UNL     1     142.401 161.839 187.422  0.00  0.00    +0.024 HD
ENDBRANCH  20  59
BRANCH  16  63
ATOM     63  C   UNL     1     146.196 165.511 186.311  0.00  0.00    -0.038 C 
ATOM     64  H   UNL     1     146.299 166.590 186.465  0.00  0.00    +0.025 HD
ATOM     65  H   UNL     1     145.128 165.306 186.170  0.00  0.00    +0.025 HD
ATOM     66  H   UNL     1     146.708 165.254 185.378  0.00  0.00    +0.025 HD
ENDBRANCH  16  63
BRANCH  13  67
ATOM     67  C   UNL     1     149.130 166.446 187.836  0.00  0.00    +0.004 C 
ATOM     68  H   UNL     1     148.890 166.491 186.774  0.00  0.00    +0.043 HD
ATOM     69  H   UNL     1     149.583 165.471 188.035  0.00  0.00    +0.043 HD
ATOM     70  H   UNL     1     149.858 167.226 188.046  0.00  0.00    +0.043 HD
ENDBRANCH  13  67
BRANCH   3  71
ATOM     71  C   UNL     1     150.521 160.803 189.045  0.00  0.00    -0.028 C 
ATOM     72  H   UNL     1     150.508 161.215 188.032  0.00  0.00    +0.027 HD
ATOM     73  H   UNL     1     150.885 159.770 189.001  0.00  0.00    +0.027 HD
ATOM     74  H   UNL     1     151.258 161.365 189.626  0.00  0.00    +0.027 HD
ENDBRANCH   3  71
BRANCH  12  75
ATOM     75  C   UNL     1     148.302 169.003 189.449  0.00  0.00    +0.003 C 
ATOM     76  H   UNL     1     148.011 169.216 188.413  0.00  0.00    +0.034 HD
ATOM     77  H   UNL     1     149.383 169.190 189.477  0.00  0.00    +0.034 HD
BRANCH  75  78
ATOM     78  C   UNL     1     147.626 169.971 190.385  0.00  0.00    -0.006 A 
ATOM     79  C   UNL     1     146.272 170.216 190.498  0.00  0.00    +0.087 A 
ATOM     80  N   UNL     1     146.068 171.191 191.428  0.00  0.00    -0.349 N 
ATOM     81  C   UNL     1     147.269 171.598 191.956  0.00  0.00    +0.048 A 
ATOM     82  C   UNL     1     147.543 172.571 192.927  0.00  0.00    -0.038 A 
ATOM     83  C   UNL     1     148.876 172.768 193.289  0.00  0.00    -0.060 A 
ATOM     84  C   UNL     1     149.894 172.021 192.705  0.00  0.00    -0.061 A 
ATOM     85  C   UNL     1     149.603 171.054 191.734  0.00  0.00    -0.052 A 
ATOM     86  C   UNL     1     148.266 170.839 191.337  0.00  0.00    +0.004 A 
ATOM     87 BR   UNL     1     144.862 169.379 189.532  0.00  0.00    -0.031 Br
ATOM     88  H   UNL     1     145.164 171.557 191.687  0.00  0.00    +0.166 HD
ATOM     89  H   UNL     1     146.751 173.152 193.389  0.00  0.00    +0.064 HD
ATOM     90  H   UNL     1     149.121 173.513 194.043  0.00  0.00    +0.062 HD
ATOM     91  H   UNL     1     150.926 172.185 193.005  0.00  0.00    +0.062 HD
ATOM     92  H   UNL     1     150.409 170.473 191.301  0.00  0.00    +0.062 HD
ENDBRANCH  75  78
ENDBRANCH  12  75
TORSDOF 10
ENDMDL
MODEL 2
REMARK VINA RESULT:      -7.4      3.606      7.816
REMARK  Name = Jasplakinolide_conf2
REMARK  10 active torsions:
REMARK  status: ('A' for Active; 'I' for Inactive)
REMARK    1  A    between atoms: C_1  and  C_2
REMARK    2  A    between atoms: C_4  and  C_47
REMARK    3  A    between atoms: C_9  and  C_40
REMARK    4  A    between atoms: C_13  and  C_29
REMARK    5  A    between atoms: N_14  and  C_28
REMARK    6  A    between atoms: C_17  and  C_27
REMARK    7  A    between atoms: C_21  and  C_26
REMARK    8  A    between atoms: C_23  and  C_25
REMARK    9  A    between atoms: C_29  and  C_30
REMARK   10  A    between atoms: C_43  and  O_46
REMARK                            x       y       z     vdW  Elec       q    Type
REMARK                         _______ _______ _______ _____ _____    ______ ____
ROOT
ATOM      1  C   UNL     1     143.553 170.986 183.944  0.00  0.00    -0.022 C 
ATOM      2  C   UNL     1     144.176 171.515 185.248  0.00  0.00    -0.010 C 
ATOM      3  C   UNL     1     144.124 170.531 186.432  0.00  0.00    +0.101 C 
ATOM      4  O   UNL     1     144.984 171.085 187.454  0.00  0.00    -0.462 OA
ATOM      5  C   UNL     1     145.472 170.201 188.369  0.00  0.00    +0.309 C 
ATOM      6  O   UNL     1     145.174 169.017 188.425  0.00  0.00    -0.251 OA
ATOM      7  C   UNL     1     146.496 170.895 189.236  0.00  0.00    +0.067 C 
ATOM      8  C   UNL     1     146.753 170.140 190.545  0.00  0.00    +0.058 C 
ATOM      9  N   UNL     1     147.365 168.844 190.316  0.00  0.00    -0.306 N 
ATOM     10  C   UNL     1     147.113 167.754 191.129  0.00  0.00    +0.234 C 
ATOM     11  O   UNL     1     146.464 167.814 192.169  0.00  0.00    -0.274 OA
ATOM     12  C   UNL     1     147.620 166.434 190.524  0.00  0.00    +0.106 C 
ATOM     13  N   UNL     1     146.717 166.085 189.394  0.00  0.00    -0.291 N 
ATOM     14  C   UNL     1     147.121 166.448 188.109  0.00  0.00    +0.236 C 
ATOM     15  O   UNL     1     148.159 167.101 187.921  0.00  0.00    -0.274 OA
ATOM     16  C   UNL     1     146.263 165.997 186.903  0.00  0.00    +0.097 C 
ATOM     17  N   UNL     1     146.760 166.683 185.708  0.00  0.00    -0.304 N 
ATOM     18  C   UNL     1     146.006 166.826 184.567  0.00  0.00    +0.217 C 
ATOM     19  O   UNL     1     144.848 166.429 184.482  0.00  0.00    -0.275 OA
ATOM     20  C   UNL     1     146.777 167.426 183.395  0.00  0.00    +0.036 C 
ATOM     21  C   UNL     1     145.844 168.150 182.407  0.00  0.00    -0.021 C 
ATOM     22  C   UNL     1     145.432 169.539 182.880  0.00  0.00    -0.076 C 
ATOM     23  C   UNL     1     144.215 169.725 183.433  0.00  0.00    -0.082 C 
ATOM     24  H   UNL     1     142.514 170.709 184.161  0.00  0.00    +0.034 HD
ATOM     25  H   UNL     1     143.674 172.449 185.543  0.00  0.00    +0.031 HD
ATOM     26  H   UNL     1     145.221 171.803 185.080  0.00  0.00    +0.031 HD
ATOM     27  H   UNL     1     144.515 169.556 186.123  0.00  0.00    +0.073 HD
ATOM     28  H   UNL     1     146.122 171.901 189.466  0.00  0.00    +0.040 HD
ATOM     29  H   UNL     1     147.412 170.994 188.641  0.00  0.00    +0.040 HD
ATOM     30  H   UNL     1     145.778 169.959 191.018  0.00  0.00    +0.055 HD
ATOM     31  H   UNL     1     147.880 168.675 189.455  0.00  0.00    +0.149 HD
ATOM     32  H   UNL     1     148.618 166.645 190.121  0.00  0.00    +0.060 HD
ATOM     33  H   UNL     1     145.222 166.299 187.046  0.00  0.00    +0.059 HD
ATOM     34  H   UNL     1     147.676 167.110 185.786  0.00  0.00    +0.149 HD
ATOM     35  H   UNL     1     147.532 168.119 183.782  0.00  0.00    +0.039 HD
ATOM     36  H   UNL     1     146.341 168.261 181.434  0.00  0.00    +0.032 HD
ATOM     37  H   UNL     1     144.951 167.540 182.203  0.00  0.00    +0.032 HD
ATOM     38  H   UNL     1     143.582 168.840 183.547  0.00  0.00    +0.057 HD
ENDROOT
BRANCH   8  39
ATOM     39  C   UNL     1     147.614 170.949 191.502  0.00  0.00    -0.026 A 
ATOM     40  C   UNL     1     148.966 170.638 191.727  0.00  0.00    -0.053 A 
ATOM     41  C   UNL     1     149.733 171.399 192.611  0.00  0.00    -0.020 A 
ATOM     42  C   UNL     1     149.153 172.464 193.287  0.00  0.00    +0.117 A 
ATOM     43  C   UNL     1     147.813 172.780 193.098  0.00  0.00    -0.020 A 
ATOM     44  C   UNL     1     147.046 172.022 192.211  0.00  0.00    -0.053 A 
ATOM     45  H   UNL     1     149.435 169.795 191.227  0.00  0.00    +0.062 HD
ATOM     46  H   UNL     1     150.778 171.156 192.778  0.00  0.00    +0.065 HD
ATOM     47  H   UNL     1     147.346 173.601 193.634  0.00  0.00    +0.065 HD
ATOM     48  H   UNL     1     145.991 172.260 192.087  0.00  0.00    +0.062 HD
BRANCH  42  49
ATOM     49  O   UNL     1     149.939 173.176 194.144  0.00  0.00    -0.507 OA
ATOM     50  H   UNL     1     150.255 173.970 193.681  0.00  0.00    +0.292 HD
ENDBRANCH  42  49
ENDBRANCH   8  39
BRANCH   1  51
ATOM     51  C   UNL     1     143.457 172.084 182.880  0.00  0.00    -0.059 C 
ATOM     52  H   UNL     1     143.660 173.078 183.283  0.00  0.00    +0.024 HD
ATOM     53  H   UNL     1     142.448 172.111 182.455  0.00  0.00    +0.024 HD
ATOM     54  H   UNL     1     144.157 171.897 182.058  0.00  0.00    +0.024 HD
ENDBRANCH   1  51
BRANCH  22  55
ATOM     55  C   UNL     1     146.462 170.609 182.636  0.00  0.00    -0.044 C 
ATOM     56  H   UNL     1     147.434 170.311 183.046  0.00  0.00    +0.027 HD
ATOM     57  H   UNL     1     146.585 170.770 181.561  0.00  0.00    +0.027 HD
ATOM     58  H   UNL     1     146.215 171.563 183.099  0.00  0.00    +0.027 HD
ENDBRANCH  22  55
BRANCH  20  59
ATOM     59  C   UNL     1     147.507 166.279 182.690  0.00  0.00    -0.054 C 
ATOM     60  H   UNL     1     146.825 165.729 182.035  0.00  0.00    +0.024 HD
ATOM     61  H   UNL     1     147.934 165.575 183.413  0.00  0.00    +0.024 HD
ATOM     62  H   UNL     1     148.332 166.653 182.074  0.00  0.00    +0.024 HD
ENDBRANCH  20  59
BRANCH  16  63
ATOM     63  C   UNL     1     146.385 164.486 186.715  0.00  0.00    -0.038 C 
ATOM     64  H   UNL     1     145.478 164.048 186.286  0.00  0.00    +0.025 HD
ATOM     65  H   UNL     1     146.561 163.986 187.675  0.00  0.00    +0.025 HD
ATOM     66  H   UNL     1     147.223 164.237 186.055  0.00  0.00    +0.025 HD
ENDBRANCH  16  63
BRANCH  13  67
ATOM     67  C   UNL     1     145.319 165.793 189.708  0.00  0.00    +0.004 C 
ATOM     68  H   UNL     1     144.837 166.607 190.250  0.00  0.00    +0.043 HD
ATOM     69  H   UNL     1     145.281 164.902 190.341  0.00  0.00    +0.043 HD
ATOM     70  H   UNL     1     144.746 165.613 188.802  0.00  0.00    +0.043 HD
ENDBRANCH  13  67
BRANCH   3  71
ATOM     71  C   UNL     1     142.710 170.382 186.993  0.00  0.00    -0.028 C 
ATOM     72  H   UNL     1     142.577 169.427 187.509  0.00  0.00    +0.027 HD
ATOM     73  H   UNL     1     141.964 170.458 186.195  0.00  0.00    +0.027 HD
ATOM     74  H   UNL     1     142.483 171.182 187.705  0.00  0.00    +0.027 HD
ENDBRANCH   3  71
BRANCH  12  75
ATOM     75  C   UNL     1     147.783 165.338 191.592  0.00  0.00    +0.003 C 
ATOM     76  H   UNL     1     147.719 164.334 191.157  0.00  0.00    +0.034 HD
ATOM     77  H   UNL     1     146.943 165.390 192.296  0.00  0.00    +0.034 HD
BRANCH  75  78
ATOM     78  C   UNL     1     149.065 165.483 192.369  0.00  0.00    -0.006 A 
ATOM     79  C   UNL     1     150.353 165.349 191.888  0.00  0.00    +0.087 A 
ATOM     80  N   UNL     1     151.235 165.513 192.914  0.00  0.00    -0.349 N 
ATOM     81  C   UNL     1     150.558 165.771 194.081  0.00  0.00    +0.048 A 
ATOM     82  C   UNL     1     151.047 165.999 195.375  0.00  0.00    -0.038 A 
ATOM     83  C   UNL     1     150.118 166.255 196.383  0.00  0.00    -0.060 A 
ATOM     84  C   UNL     1     148.754 166.284 196.109  0.00  0.00    -0.061 A 
ATOM     85  C   UNL     1     148.282 166.052 194.811  0.00  0.00    -0.052 A 
ATOM     86  C   UNL     1     149.196 165.779 193.771  0.00  0.00    +0.004 A 
ATOM     87 BR   UNL     1     150.885 164.978 190.100  0.00  0.00    -0.031 Br
ATOM     88  H   UNL     1     152.239 165.453 192.824  0.00  0.00    +0.166 HD
ATOM     89  H   UNL     1     152.111 165.982 195.592  0.00  0.00    +0.064 HD
ATOM     90  H   UNL     1     150.465 166.440 197.398  0.00  0.00    +0.062 HD
ATOM     91  H   UNL     1     148.046 166.492 196.908  0.00  0.00    +0.062 HD
ATOM     92  H   UNL     1     147.216 166.093 194.615  0.00  0.00    +0.062 HD
ENDBRANCH  75  78
ENDBRANCH  12  75
TORSDOF 10
ENDMDL
MODEL 3
REMARK VINA RESULT:      -7.2      3.613      5.124
REMARK  Name = Jasplakinolide_conf2
REMARK  10 active torsions:
REMARK  status: ('A' for Active; 'I' for Inactive)
REMARK    1  A    between atoms: C_1  and  C_2
REMARK    2  A    between atoms: C_4  and  C_47
REMARK    3  A    between atoms: C_9  and  C_40
REMARK    4  A    between atoms: C_13  and  C_29
REMARK    5  A    between atoms: N_14  and  C_28
REMARK    6  A    between atoms: C_17  and  C_27
REMARK    7  A    between atoms: C_21  and  C_26
REMARK    8  A    between atoms: C_23  and  C_25
REMARK    9  A    between atoms: C_29  and  C_30
REMARK   10  A    between atoms: C_43  and  O_46
REMARK                            x       y       z     vdW  Elec       q    Type
REMARK                         _______ _______ _______ _____ _____    ______ ____
ROOT
ATOM      1  C   UNL     1     142.174 162.849 185.881  0.00  0.00    -0.022 C 
ATOM      2  C   UNL     1     143.081 163.011 187.114  0.00  0.00    -0.010 C 
ATOM      3  C   UNL     1     144.063 164.196 187.040  0.00  0.00    +0.101 C 
ATOM      4  O   UNL     1     144.613 164.347 188.369  0.00  0.00    -0.462 OA
ATOM      5  C   UNL     1     145.115 165.577 188.672  0.00  0.00    +0.309 C 
ATOM      6  O   UNL     1     145.200 166.511 187.887  0.00  0.00    -0.251 OA
ATOM      7  C   UNL     1     145.465 165.625 190.140  0.00  0.00    +0.067 C 
ATOM      8  C   UNL     1     146.434 166.767 190.468  0.00  0.00    +0.058 C 
ATOM      9  N   UNL     1     145.834 168.070 190.249  0.00  0.00    -0.306 N 
ATOM     10  C   UNL     1     146.572 169.161 189.826  0.00  0.00    +0.234 C 
ATOM     11  O   UNL     1     147.795 169.160 189.725  0.00  0.00    -0.274 OA
ATOM     12  C   UNL     1     145.687 170.334 189.372  0.00  0.00    +0.106 C 
ATOM     13  N   UNL     1     145.080 169.956 188.068  0.00  0.00    -0.291 N 
ATOM     14  C   UNL     1     143.792 169.421 188.086  0.00  0.00    +0.236 C 
ATOM     15  O   UNL     1     143.201 169.201 189.155  0.00  0.00    -0.274 OA
ATOM     16  C   UNL     1     143.087 169.127 186.740  0.00  0.00    +0.097 C 
ATOM     17  N   UNL     1     141.863 168.373 187.022  0.00  0.00    -0.304 N 
ATOM     18  C   UNL     1     141.220 167.620 186.068  0.00  0.00    +0.217 C 
ATOM     19  O   UNL     1     141.648 167.490 184.924  0.00  0.00    -0.275 OA
ATOM     20  C   UNL     1     139.882 167.054 186.534  0.00  0.00    +0.036 C 
ATOM     21  C   UNL     1     139.508 165.770 185.773  0.00  0.00    -0.021 C 
ATOM     22  C   UNL     1     140.237 164.534 186.287  0.00  0.00    -0.076 C 
ATOM     23  C   UNL     1     141.306 164.059 185.613  0.00  0.00    -0.082 C 
ATOM     24  H   UNL     1     142.824 162.748 185.003  0.00  0.00    +0.034 HD
ATOM     25  H   UNL     1     143.657 162.086 187.273  0.00  0.00    +0.031 HD
ATOM     26  H   UNL     1     142.474 163.119 188.021  0.00  0.00    +0.031 HD
ATOM     27  H   UNL     1     143.523 165.110 186.768  0.00  0.00    +0.073 HD
ATOM     28  H   UNL     1     145.930 164.667 190.411  0.00  0.00    +0.040 HD
ATOM     29  H   UNL     1     144.525 165.721 190.696  0.00  0.00    +0.040 HD
ATOM     30  H   UNL     1     147.287 166.682 189.781  0.00  0.00    +0.055 HD
ATOM     31  H   UNL     1     144.821 168.167 190.258  0.00  0.00    +0.149 HD
ATOM     32  H   UNL     1     144.888 170.422 190.118  0.00  0.00    +0.060 HD
ATOM     33  H   UNL     1     143.723 168.499 186.110  0.00  0.00    +0.059 HD
ATOM     34  H   UNL     1     141.545 168.381 187.983  0.00  0.00    +0.149 HD
ATOM     35  H   UNL     1     139.934 166.857 187.610  0.00  0.00    +0.039 HD
ATOM     36  H   UNL     1     138.430 165.582 185.860  0.00  0.00    +0.032 HD
ATOM     37  H   UNL     1     139.689 165.894 184.695  0.00  0.00    +0.032 HD
ATOM     38  H   UNL     1     141.622 164.618 184.728  0.00  0.00    +0.057 HD
ENDROOT
BRANCH   8  39
ATOM     39  C   UNL     1     146.949 166.676 191.896  0.00  0.00    -0.026 A 
ATOM     40  C   UNL     1     148.265 167.034 192.234  0.00  0.00    -0.053 A 
ATOM     41  C   UNL     1     148.710 166.941 193.554  0.00  0.00    -0.020 A 
ATOM     42  C   UNL     1     147.852 166.475 194.540  0.00  0.00    +0.117 A 
ATOM     43  C   UNL     1     146.552 166.094 194.230  0.00  0.00    -0.020 A 
ATOM     44  C   UNL     1     146.105 166.191 192.910  0.00  0.00    -0.053 A 
ATOM     45  H   UNL     1     148.961 167.379 191.474  0.00  0.00    +0.062 HD
ATOM     46  H   UNL     1     149.727 167.223 193.810  0.00  0.00    +0.065 HD
ATOM     47  H   UNL     1     145.878 165.714 194.991  0.00  0.00    +0.065 HD
ATOM     48  H   UNL     1     145.093 165.868 192.669  0.00  0.00    +0.062 HD
BRANCH  42  49
ATOM     49  O   UNL     1     148.332 166.397 195.814  0.00  0.00    -0.507 OA
ATOM     50  H   UNL     1     149.225 166.014 195.782  0.00  0.00    +0.292 HD
ENDBRANCH  42  49
ENDBRANCH   8  39
BRANCH   1  51
ATOM     51  C   UNL     1     141.378 161.542 185.937  0.00  0.00    -0.059 C 
ATOM     52  H   UNL     1     141.501 161.015 186.885  0.00  0.00    +0.024 HD
ATOM     53  H   UNL     1     141.713 160.861 185.147  0.00  0.00    +0.024 HD
ATOM     54  H   UNL     1     140.309 161.726 185.783  0.00  0.00    +0.024 HD
ENDBRANCH   1  51
BRANCH  22  55
ATOM     55  C   UNL     1     139.639 163.931 187.529  0.00  0.00    -0.044 C 
ATOM     56  H   UNL     1     140.022 162.916 187.689  0.00  0.00    +0.027 HD
ATOM     57  H   UNL     1     139.907 164.533 188.402  0.00  0.00    +0.027 HD
ATOM     58  H   UNL     1     138.554 163.846 187.492  0.00  0.00    +0.027 HD
ENDBRANCH  22  55
BRANCH  20  59
ATOM     59  C   UNL     1     138.821 168.134 186.303  0.00  0.00    -0.054 C 
ATOM     60  H   UNL     1     138.274 167.948 185.374  0.00  0.00    +0.024 HD
ATOM     61  H   UNL     1     139.274 169.131 186.242  0.00  0.00    +0.024 HD
ATOM     62  H   UNL     1     138.093 168.157 187.121  0.00  0.00    +0.024 HD
ENDBRANCH  20  59
BRANCH  16  63
ATOM     63  C   UNL     1     142.732 170.439 186.042  0.00  0.00    -0.038 C 
ATOM     64  H   UNL     1     143.621 171.012 185.761  0.00  0.00    +0.025 HD
ATOM     65  H   UNL     1     142.130 171.079 186.699  0.00  0.00    +0.025 HD
ATOM     66  H   UNL     1     142.148 170.256 185.134  0.00  0.00    +0.025 HD
ENDBRANCH  16  63
BRANCH  13  67
ATOM     67  C   UNL     1     145.980 169.757 186.932  0.00  0.00    +0.004 C 
ATOM     68  H   UNL     1     146.241 168.708 186.789  0.00  0.00    +0.043 HD
ATOM     69  H   UNL     1     146.905 170.309 187.118  0.00  0.00    +0.043 HD
ATOM     70  H   UNL     1     145.529 170.116 186.010  0.00  0.00    +0.043 HD
ENDBRANCH  13  67
BRANCH   3  71
ATOM     71  C   UNL     1     145.200 163.938 186.052  0.00  0.00    -0.028 C 
ATOM     72  H   UNL     1     144.853 163.975 185.015  0.00  0.00    +0.027 HD
ATOM     73  H   UNL     1     145.662 162.962 186.235  0.00  0.00    +0.027 HD
ATOM     74  H   UNL     1     145.995 164.682 186.165  0.00  0.00    +0.027 HD
ENDBRANCH   3  71
BRANCH  12  75
ATOM     75  C   UNL     1     146.457 171.667 189.372  0.00  0.00    +0.003 C 
ATOM     76  H   UNL     1     146.071 172.359 188.614  0.00  0.00    +0.034 HD
ATOM     77  H   UNL     1     147.498 171.484 189.077  0.00  0.00    +0.034 HD
BRANCH  75  78
ATOM     78  C   UNL     1     146.454 172.329 190.725  0.00  0.00    -0.006 A 
ATOM     79  C   UNL     1     145.405 172.999 191.324  0.00  0.00    +0.087 A 
ATOM     80  N   UNL     1     145.815 173.491 192.528  0.00  0.00    -0.349 N 
ATOM     81  C   UNL     1     147.126 173.148 192.755  0.00  0.00    +0.048 A 
ATOM     82  C   UNL     1     147.957 173.438 193.846  0.00  0.00    -0.038 A 
ATOM     83  C   UNL     1     149.260 172.941 193.818  0.00  0.00    -0.060 A 
ATOM     84  C   UNL     1     149.714 172.183 192.743  0.00  0.00    -0.061 A 
ATOM     85  C   UNL     1     148.872 171.905 191.660  0.00  0.00    -0.052 A 
ATOM     86  C   UNL     1     147.551 172.402 191.652  0.00  0.00    +0.004 A 
ATOM     87 BR   UNL     1     143.650 173.250 190.634  0.00  0.00    -0.031 Br
ATOM     88  H   UNL     1     145.236 174.028 193.156  0.00  0.00    +0.166 HD
ATOM     89  H   UNL     1     147.605 174.025 194.689  0.00  0.00    +0.064 HD
ATOM     90  H   UNL     1     149.929 173.146 194.651  0.00  0.00    +0.062 HD
ATOM     91  H   UNL     1     150.732 171.800 192.743  0.00  0.00    +0.062 HD
ATOM     92  H   UNL     1     149.240 171.300 190.838  0.00  0.00    +0.062 HD
ENDBRANCH  75  78
ENDBRANCH  12  75
TORSDOF 10
ENDMDL
MODEL 4
REMARK VINA RESULT:      -7.1      6.942     11.420
REMARK  Name = Jasplakinolide_conf2
REMARK  10 active torsions:
REMARK  status: ('A' for Active; 'I' for Inactive)
REMARK    1  A    between atoms: C_1  and  C_2
REMARK    2  A    between atoms: C_4  and  C_47
REMARK    3  A    between atoms: C_9  and  C_40
REMARK    4  A    between atoms: C_13  and  C_29
REMARK    5  A    between atoms: N_14  and  C_28
REMARK    6  A    between atoms: C_17  and  C_27
REMARK    7  A    between atoms: C_21  and  C_26
REMARK    8  A    between atoms: C_23  and  C_25
REMARK    9  A    between atoms: C_29  and  C_30
REMARK   10  A    between atoms: C_43  and  O_46
REMARK                            x       y       z     vdW  Elec       q    Type
REMARK                         _______ _______ _______ _____ _____    ______ ____
ROOT
ATOM      1  C   UNL     1     140.836 175.671 183.486  0.00  0.00    -0.022 C 
ATOM      2  C   UNL     1     140.679 175.749 185.015  0.00  0.00    -0.010 C 
ATOM      3  C   UNL     1     141.015 174.446 185.765  0.00  0.00    +0.101 C 
ATOM      4  O   UNL     1     141.078 174.793 187.167  0.00  0.00    -0.462 OA
ATOM      5  C   UNL     1     141.806 173.956 187.958  0.00  0.00    +0.309 C 
ATOM      6  O   UNL     1     142.329 172.917 187.581  0.00  0.00    -0.251 OA
ATOM      7  C   UNL     1     141.935 174.558 189.337  0.00  0.00    +0.067 C 
ATOM      8  C   UNL     1     142.326 173.515 190.390  0.00  0.00    +0.058 C 
ATOM      9  N   UNL     1     143.654 172.979 190.160  0.00  0.00    -0.306 N 
ATOM     10  C   UNL     1     143.989 171.675 190.474  0.00  0.00    +0.234 C 
ATOM     11  O   UNL     1     143.248 170.907 191.081  0.00  0.00    -0.274 OA
ATOM     12  C   UNL     1     145.336 171.246 189.868  0.00  0.00    +0.106 C 
ATOM     13  N   UNL     1     145.134 171.079 188.403  0.00  0.00    -0.291 N 
ATOM     14  C   UNL     1     145.476 172.150 187.578  0.00  0.00    +0.236 C 
ATOM     15  O   UNL     1     145.867 173.228 188.051  0.00  0.00    -0.274 OA
ATOM     16  C   UNL     1     145.388 171.967 186.044  0.00  0.00    +0.097 C 
ATOM     17  N   UNL     1     145.575 173.277 185.417  0.00  0.00    -0.304 N 
ATOM     18  C   UNL     1     145.171 173.549 184.131  0.00  0.00    +0.217 C 
ATOM     19  O   UNL     1     144.585 172.727 183.431  0.00  0.00    -0.275 OA
ATOM     20  C   UNL     1     145.609 174.921 183.627  0.00  0.00    +0.036 C 
ATOM     21  C   UNL     1     144.669 175.455 182.532  0.00  0.00    -0.021 C 
ATOM     22  C   UNL     1     143.377 176.044 183.085  0.00  0.00    -0.076 C 
ATOM     23  C   UNL     1     142.240 175.318 183.046  0.00  0.00    -0.082 C 
ATOM     24  H   UNL     1     140.197 174.854 183.129  0.00  0.00    +0.034 HD
ATOM     25  H   UNL     1     139.648 176.045 185.266  0.00  0.00    +0.031 HD
ATOM     26  H   UNL     1     141.304 176.555 185.420  0.00  0.00    +0.031 HD
ATOM     27  H   UNL     1     141.992 174.073 185.442  0.00  0.00    +0.073 HD
ATOM     28  H   UNL     1     140.967 175.000 189.607  0.00  0.00    +0.040 HD
ATOM     29  H   UNL     1     142.676 175.363 189.272  0.00  0.00    +0.040 HD
ATOM     30  H   UNL     1     141.618 172.679 190.304  0.00  0.00    +0.055 HD
ATOM     31  H   UNL     1     144.328 173.516 189.618  0.00  0.00    +0.149 HD
ATOM     32  H   UNL     1     146.026 172.083 190.032  0.00  0.00    +0.060 HD
ATOM     33  H   UNL     1     144.395 171.606 185.763  0.00  0.00    +0.059 HD
ATOM     34  H   UNL     1     145.963 174.004 186.007  0.00  0.00    +0.149 HD
ATOM     35  H   UNL     1     145.642 175.617 184.473  0.00  0.00    +0.039 HD
ATOM     36  H   UNL     1     145.174 176.241 181.955  0.00  0.00    +0.032 HD
ATOM     37  H   UNL     1     144.442 174.666 181.800  0.00  0.00    +0.032 HD
ATOM     38  H   UNL     1     142.312 174.306 182.638  0.00  0.00    +0.057 HD
ENDROOT
BRANCH   8  39
ATOM     39  C   UNL     1     142.241 174.080 191.800  0.00  0.00    -0.026 A 
ATOM     40  C   UNL     1     143.177 175.009 192.284  0.00  0.00    -0.053 A 
ATOM     41  C   UNL     1     143.074 175.510 193.583  0.00  0.00    -0.020 A 
ATOM     42  C   UNL     1     142.048 175.077 194.410  0.00  0.00    +0.117 A 
ATOM     43  C   UNL     1     141.120 174.143 193.963  0.00  0.00    -0.020 A 
ATOM     44  C   UNL     1     141.221 173.644 192.663  0.00  0.00    -0.053 A 
ATOM     45  H   UNL     1     144.003 175.344 191.662  0.00  0.00    +0.062 HD
ATOM     46  H   UNL     1     143.799 176.231 193.950  0.00  0.00    +0.065 HD
ATOM     47  H   UNL     1     140.323 173.787 194.608  0.00  0.00    +0.065 HD
ATOM     48  H   UNL     1     140.505 172.895 192.327  0.00  0.00    +0.062 HD
BRANCH  42  49
ATOM     49  O   UNL     1     141.989 175.591 195.672  0.00  0.00    -0.507 OA
ATOM     50  H   UNL     1     141.931 176.559 195.606  0.00  0.00    +0.292 HD
ENDBRANCH  42  49
ENDBRANCH   8  39
BRANCH   1  51
ATOM     51  C   UNL     1     140.292 176.928 182.800  0.00  0.00    -0.059 C 
ATOM     52  H   UNL     1     139.263 176.807 182.458  0.00  0.00    +0.024 HD
ATOM     53  H   UNL     1     140.896 177.170 181.920  0.00  0.00    +0.024 HD
ATOM     54  H   UNL     1     140.329 177.791 183.474  0.00  0.00    +0.024 HD
ENDBRANCH   1  51
BRANCH  22  55
ATOM     55  C   UNL     1     143.508 177.449 183.609  0.00  0.00    -0.044 C 
ATOM     56  H   UNL     1     143.593 177.448 184.702  0.00  0.00    +0.027 HD
ATOM     57  H   UNL     1     144.410 177.916 183.202  0.00  0.00    +0.027 HD
ATOM     58  H   UNL     1     142.656 178.083 183.369  0.00  0.00    +0.027 HD
ENDBRANCH  22  55
BRANCH  20  59
ATOM     59  C   UNL     1     147.032 174.776 183.080  0.00  0.00    -0.054 C 
ATOM     60  H   UNL     1     147.528 173.904 183.515  0.00  0.00    +0.024 HD
ATOM     61  H   UNL     1     147.636 175.663 183.303  0.00  0.00    +0.024 HD
ATOM     62  H   UNL     1     147.028 174.650 181.992  0.00  0.00    +0.024 HD
ENDBRANCH  20  59
BRANCH  16  63
ATOM     63  C   UNL     1     146.483 171.011 185.571  0.00  0.00    -0.038 C 
ATOM     64  H   UNL     1     146.104 169.999 185.402  0.00  0.00    +0.025 HD
ATOM     65  H   UNL     1     147.283 170.936 186.317  0.00  0.00    +0.025 HD
ATOM     66  H   UNL     1     146.934 171.362 184.637  0.00  0.00    +0.025 HD
ENDBRANCH  16  63
BRANCH  13  67
ATOM     67  C   UNL     1     144.218 170.028 187.960  0.00  0.00    +0.004 C 
ATOM     68  H   UNL     1     143.223 170.136 188.391  0.00  0.00    +0.043 HD
ATOM     69  H   UNL     1     144.617 169.060 188.277  0.00  0.00    +0.043 HD
ATOM     70  H   UNL     1     144.114 170.033 186.878  0.00  0.00    +0.043 HD
ENDBRANCH  13  67
BRANCH   3  71
ATOM     71  C   UNL     1     139.943 173.375 185.561  0.00  0.00    -0.028 C 
ATOM     72  H   UNL     1     139.545 173.013 186.513  0.00  0.00    +0.027 HD
ATOM     73  H   UNL     1     140.345 172.523 185.001  0.00  0.00    +0.027 HD
ATOM     74  H   UNL     1     139.106 173.763 184.973  0.00  0.00    +0.027 HD
ENDBRANCH   3  71
BRANCH  12  75
ATOM     75  C   UNL     1     145.927 170.021 190.589  0.00  0.00    +0.003 C 
ATOM     76  H   UNL     1     145.963 169.142 189.934  0.00  0.00    +0.034 HD
ATOM     77  H   UNL     1     145.261 169.728 191.410  0.00  0.00    +0.034 HD
BRANCH  75  78
ATOM     78  C   UNL     1     147.294 170.297 191.158  0.00  0.00    -0.006 A 
ATOM     79  C   UNL     1     148.436 169.538 190.993  0.00  0.00    +0.087 A 
ATOM     80  N   UNL     1     149.456 170.101 191.701  0.00  0.00    -0.349 N 
ATOM     81  C   UNL     1     149.019 171.240 192.332  0.00  0.00    +0.048 A 
ATOM     82  C   UNL     1     149.711 172.131 193.164  0.00  0.00    -0.038 A 
ATOM     83  C   UNL     1     149.011 173.231 193.660  0.00  0.00    -0.060 A 
ATOM     84  C   UNL     1     147.673 173.433 193.336  0.00  0.00    -0.061 A 
ATOM     85  C   UNL     1     146.996 172.532 192.506  0.00  0.00    -0.052 A 
ATOM     86  C   UNL     1     147.672 171.403 191.996  0.00  0.00    +0.004 A 
ATOM     87 BR   UNL     1     148.626 167.944 189.971  0.00  0.00    -0.031 Br
ATOM     88  H   UNL     1     150.393 169.730 191.752  0.00  0.00    +0.166 HD
ATOM     89  H   UNL     1     150.756 171.979 193.415  0.00  0.00    +0.064 HD
ATOM     90  H   UNL     1     149.521 173.943 194.306  0.00  0.00    +0.062 HD
ATOM     91  H   UNL     1     147.147 174.300 193.729  0.00  0.00    +0.062 HD
ATOM     92  H   UNL     1     145.957 172.715 192.253  0.00  0.00    +0.062 HD
ENDBRANCH  75  78
ENDBRANCH  12  75
TORSDOF 10
ENDMDL
MODEL 5
REMARK VINA RESULT:      -7.0      7.026     12.296
REMARK  Name = Jasplakinolide_conf2
REMARK  10 active torsions:
REMARK  status: ('A' for Active; 'I' for Inactive)
REMARK    1  A    between atoms: C_1  and  C_2
REMARK    2  A    between atoms: C_4  and  C_47
REMARK    3  A    between atoms: C_9  and  C_40
REMARK    4  A    between atoms: C_13  and  C_29
REMARK    5  A    between atoms: N_14  and  C_28
REMARK    6  A    between atoms: C_17  and  C_27
REMARK    7  A    between atoms: C_21  and  C_26
REMARK    8  A    between atoms: C_23  and  C_25
REMARK    9  A    between atoms: C_29  and  C_30
REMARK   10  A    between atoms: C_43  and  O_46
REMARK                            x       y       z     vdW  Elec       q    Type
REMARK                         _______ _______ _______ _____ _____    ______ ____
ROOT
ATOM      1  C   UNL     1     135.667 174.305 192.573  0.00  0.00    -0.022 C 
ATOM      2  C   UNL     1     136.288 172.990 192.069  0.00  0.00    -0.010 C 
ATOM      3  C   UNL     1     137.462 173.167 191.087  0.00  0.00    +0.101 C 
ATOM      4  O   UNL     1     138.074 171.864 190.952  0.00  0.00    -0.462 OA
ATOM      5  C   UNL     1     139.372 171.854 190.538  0.00  0.00    +0.309 C 
ATOM      6  O   UNL     1     140.009 172.844 190.207  0.00  0.00    -0.251 OA
ATOM      7  C   UNL     1     139.916 170.448 190.638  0.00  0.00    +0.067 C 
ATOM      8  C   UNL     1     141.177 170.254 189.788  0.00  0.00    +0.058 C 
ATOM      9  N   UNL     1     142.288 171.052 190.270  0.00  0.00    -0.306 N 
ATOM     10  C   UNL     1     143.241 171.581 189.420  0.00  0.00    +0.234 C 
ATOM     11  O   UNL     1     143.306 171.323 188.222  0.00  0.00    -0.274 OA
ATOM     12  C   UNL     1     144.133 172.630 190.107  0.00  0.00    +0.106 C 
ATOM     13  N   UNL     1     143.309 173.852 190.309  0.00  0.00    -0.291 N 
ATOM     14  C   UNL     1     142.706 174.027 191.554  0.00  0.00    +0.236 C 
ATOM     15  O   UNL     1     142.794 173.162 192.439  0.00  0.00    -0.274 OA
ATOM     16  C   UNL     1     141.941 175.342 191.835  0.00  0.00    +0.097 C 
ATOM     17  N   UNL     1     141.221 175.190 193.101  0.00  0.00    -0.304 N 
ATOM     18  C   UNL     1     140.153 175.984 193.448  0.00  0.00    +0.217 C 
ATOM     19  O   UNL     1     139.698 176.847 192.703  0.00  0.00    -0.275 OA
ATOM     20  C   UNL     1     139.661 175.760 194.874  0.00  0.00    +0.036 C 
ATOM     21  C   UNL     1     138.175 176.127 195.031  0.00  0.00    -0.021 C 
ATOM     22  C   UNL     1     137.232 175.049 194.511  0.00  0.00    -0.076 C 
ATOM     23  C   UNL     1     136.653 175.193 193.300  0.00  0.00    -0.082 C 
ATOM     24  H   UNL     1     135.342 174.876 191.694  0.00  0.00    +0.034 HD
ATOM     25  H   UNL     1     135.512 172.378 191.584  0.00  0.00    +0.031 HD
ATOM     26  H   UNL     1     136.631 172.383 192.916  0.00  0.00    +0.031 HD
ATOM     27  H   UNL     1     138.194 173.867 191.504  0.00  0.00    +0.073 HD
ATOM     28  H   UNL     1     139.136 169.756 190.292  0.00  0.00    +0.040 HD
ATOM     29  H   UNL     1     140.110 170.249 191.698  0.00  0.00    +0.040 HD
ATOM     30  H   UNL     1     140.945 170.600 188.771  0.00  0.00    +0.055 HD
ATOM     31  H   UNL     1     142.301 171.365 191.238  0.00  0.00    +0.149 HD
ATOM     32  H   UNL     1     144.390 172.216 191.090  0.00  0.00    +0.060 HD
ATOM     33  H   UNL     1     141.198 175.520 191.053  0.00  0.00    +0.059 HD
ATOM     34  H   UNL     1     141.511 174.418 193.690  0.00  0.00    +0.149 HD
ATOM     35  H   UNL     1     139.824 174.711 195.147  0.00  0.00    +0.039 HD
ATOM     36  H   UNL     1     137.939 176.295 196.090  0.00  0.00    +0.032 HD
ATOM     37  H   UNL     1     137.961 177.087 194.537  0.00  0.00    +0.032 HD
ATOM     38  H   UNL     1     136.922 176.084 192.725  0.00  0.00    +0.057 HD
ENDROOT
BRANCH   8  39
ATOM     39  C   UNL     1     141.590 168.792 189.721  0.00  0.00    -0.026 A 
ATOM     40  C   UNL     1     142.281 168.167 190.773  0.00  0.00    -0.053 A 
ATOM     41  C   UNL     1     142.648 166.823 190.684  0.00  0.00    -0.020 A 
ATOM     42  C   UNL     1     142.342 166.099 189.540  0.00  0.00    +0.117 A 
ATOM     43  C   UNL     1     141.678 166.698 188.476  0.00  0.00    -0.020 A 
ATOM     44  C   UNL     1     141.308 168.041 188.566  0.00  0.00    -0.053 A 
ATOM     45  H   UNL     1     142.551 168.721 191.668  0.00  0.00    +0.062 HD
ATOM     46  H   UNL     1     143.178 166.345 191.503  0.00  0.00    +0.065 HD
ATOM     47  H   UNL     1     141.448 166.144 187.571  0.00  0.00    +0.065 HD
ATOM     48  H   UNL     1     140.809 168.510 187.719  0.00  0.00    +0.062 HD
BRANCH  42  49
ATOM     49  O   UNL     1     142.724 164.790 189.496  0.00  0.00    -0.507 OA
ATOM     50  H   UNL     1     142.785 164.521 188.564  0.00  0.00    +0.292 HD
ENDBRANCH  42  49
ENDBRANCH   8  39
BRANCH   1  51
ATOM     51  C   UNL     1     134.387 174.051 193.375  0.00  0.00    -0.059 C 
ATOM     52  H   UNL     1     133.857 174.972 193.624  0.00  0.00    +0.024 HD
ATOM     53  H   UNL     1     134.625 173.552 194.321  0.00  0.00    +0.024 HD
ATOM     54  H   UNL     1     133.700 173.400 192.822  0.00  0.00    +0.024 HD
ENDBRANCH   1  51
BRANCH  22  55
ATOM     55  C   UNL     1     137.012 173.903 195.461  0.00  0.00    -0.044 C 
ATOM     56  H   UNL     1     135.966 173.579 195.441  0.00  0.00    +0.027 HD
ATOM     57  H   UNL     1     137.635 173.052 195.168  0.00  0.00    +0.027 HD
ATOM     58  H   UNL     1     137.237 174.149 196.498  0.00  0.00    +0.027 HD
ENDBRANCH  22  55
BRANCH  20  59
ATOM     59  C   UNL     1     140.521 176.627 195.798  0.00  0.00    -0.054 C 
ATOM     60  H   UNL     1     140.429 176.297 196.837  0.00  0.00    +0.024 HD
ATOM     61  H   UNL     1     140.226 177.681 195.744  0.00  0.00    +0.024 HD
ATOM     62  H   UNL     1     141.580 176.571 195.523  0.00  0.00    +0.024 HD
ENDBRANCH  20  59
BRANCH  16  63
ATOM     63  C   UNL     1     142.927 176.504 191.941  0.00  0.00    -0.038 C 
ATOM     64  H   UNL     1     143.949 176.164 192.135  0.00  0.00    +0.025 HD
ATOM     65  H   UNL     1     142.650 177.176 192.763  0.00  0.00    +0.025 HD
ATOM     66  H   UNL     1     142.938 177.097 191.020  0.00  0.00    +0.025 HD
ENDBRANCH  16  63
BRANCH  13  67
ATOM     67  C   UNL     1     142.829 174.551 189.117  0.00  0.00    +0.004 C 
ATOM     68  H   UNL     1     142.115 173.957 188.547  0.00  0.00    +0.043 HD
ATOM     69  H   UNL     1     143.683 174.761 188.466  0.00  0.00    +0.043 HD
ATOM     70  H   UNL     1     142.345 175.487 189.383  0.00  0.00    +0.043 HD
ENDBRANCH  13  67
BRANCH   3  71
ATOM     71  C   UNL     1     136.993 173.646 189.713  0.00  0.00    -0.028 C 
ATOM     72  H   UNL     1     136.175 174.368 189.793  0.00  0.00    +0.027 HD
ATOM     73  H   UNL     1     136.659 172.803 189.099  0.00  0.00    +0.027 HD
ATOM     74  H   UNL     1     137.809 174.124 189.164  0.00  0.00    +0.027 HD
ENDBRANCH   3  71
BRANCH  12  75
ATOM     75  C   UNL     1     145.452 172.850 189.346  0.00  0.00    +0.003 C 
ATOM     76  H   UNL     1     145.717 173.912 189.291  0.00  0.00    +0.034 HD
ATOM     77  H   UNL     1     145.324 172.541 188.301  0.00  0.00    +0.034 HD
BRANCH  75  78
ATOM     78  C   UNL     1     146.592 172.063 189.939  0.00  0.00    -0.006 A 
ATOM     79  C   UNL     1     147.021 170.805 189.566  0.00  0.00    +0.087 A 
ATOM     80  N   UNL     1     148.052 170.424 190.373  0.00  0.00    -0.349 N 
ATOM     81  C   UNL     1     148.334 171.418 191.278  0.00  0.00    +0.048 A 
ATOM     82  C   UNL     1     149.299 171.464 192.294  0.00  0.00    -0.038 A 
ATOM     83  C   UNL     1     149.373 172.625 193.065  0.00  0.00    -0.060 A 
ATOM     84  C   UNL     1     148.518 173.696 192.829  0.00  0.00    -0.061 A 
ATOM     85  C   UNL     1     147.557 173.632 191.812  0.00  0.00    -0.052 A 
ATOM     86  C   UNL     1     147.449 172.469 191.021  0.00  0.00    +0.004 A 
ATOM     87 BR   UNL     1     146.324 169.712 188.173  0.00  0.00    -0.031 Br
ATOM     88  H   UNL     1     148.535 169.540 190.310  0.00  0.00    +0.166 HD
ATOM     89  H   UNL     1     149.971 170.632 192.478  0.00  0.00    +0.064 HD
ATOM     90  H   UNL     1     150.114 172.693 193.859  0.00  0.00    +0.062 HD
ATOM     91  H   UNL     1     148.596 174.595 193.437  0.00  0.00    +0.062 HD
ATOM     92  H   UNL     1     146.910 174.484 191.634  0.00  0.00    +0.062 HD
ENDBRANCH  75  78
ENDBRANCH  12  75
TORSDOF 10
ENDMDL
MODEL 6
REMARK VINA RESULT:      -7.0      4.813      9.364
REMARK  Name = Jasplakinolide_conf2
REMARK  10 active torsions:
REMARK  status: ('A' for Active; 'I' for Inactive)
REMARK    1  A    between atoms: C_1  and  C_2
REMARK    2  A    between atoms: C_4  and  C_47
REMARK    3  A    between atoms: C_9  and  C_40
REMARK    4  A    between atoms: C_13  and  C_29
REMARK    5  A    between atoms: N_14  and  C_28
REMARK    6  A    between atoms: C_17  and  C_27
REMARK    7  A    between atoms: C_21  and  C_26
REMARK    8  A    between atoms: C_23  and  C_25
REMARK    9  A    between atoms: C_29  and  C_30
REMARK   10  A    between atoms: C_43  and  O_46
REMARK                            x       y       z     vdW  Elec       q    Type
REMARK                         _______ _______ _______ _____ _____    ______ ____
ROOT
ATOM      1  C   UNL     1     142.616 174.475 184.765  0.00  0.00    -0.022 C 
ATOM      2  C   UNL     1     143.344 174.553 186.119  0.00  0.00    -0.010 C 
ATOM      3  C   UNL     1     143.404 173.224 186.896  0.00  0.00    +0.101 C 
ATOM      4  O   UNL     1     144.343 173.431 187.975  0.00  0.00    -0.462 OA
ATOM      5  C   UNL     1     144.916 172.308 188.492  0.00  0.00    +0.309 C 
ATOM      6  O   UNL     1     144.635 171.164 188.164  0.00  0.00    -0.251 OA
ATOM      7  C   UNL     1     146.005 172.704 189.461  0.00  0.00    +0.067 C 
ATOM      8  C   UNL     1     146.380 171.559 190.409  0.00  0.00    +0.058 C 
ATOM      9  N   UNL     1     146.982 170.443 189.705  0.00  0.00    -0.306 N 
ATOM     10  C   UNL     1     146.811 169.133 190.113  0.00  0.00    +0.234 C 
ATOM     11  O   UNL     1     146.254 168.811 191.159  0.00  0.00    -0.274 OA
ATOM     12  C   UNL     1     147.276 168.117 189.056  0.00  0.00    +0.106 C 
ATOM     13  N   UNL     1     146.282 168.138 187.949  0.00  0.00    -0.291 N 
ATOM     14  C   UNL     1     146.570 168.931 186.838  0.00  0.00    +0.236 C 
ATOM     15  O   UNL     1     147.582 169.648 186.804  0.00  0.00    -0.274 OA
ATOM     16  C   UNL     1     145.616 168.884 185.621  0.00  0.00    +0.097 C 
ATOM     17  N   UNL     1     146.002 169.954 184.698  0.00  0.00    -0.304 N 
ATOM     18  C   UNL     1     145.152 170.447 183.736  0.00  0.00    +0.217 C 
ATOM     19  O   UNL     1     143.993 170.059 183.612  0.00  0.00    -0.275 OA
ATOM     20  C   UNL     1     145.813 171.439 182.784  0.00  0.00    +0.036 C 
ATOM     21  C   UNL     1     144.792 172.419 182.179  0.00  0.00    -0.021 C 
ATOM     22  C   UNL     1     144.410 173.548 183.128  0.00  0.00    -0.076 C 
ATOM     23  C   UNL     1     143.243 173.489 183.804  0.00  0.00    -0.082 C 
ATOM     24  H   UNL     1     141.602 174.102 184.956  0.00  0.00    +0.034 HD
ATOM     25  H   UNL     1     142.861 175.312 186.754  0.00  0.00    +0.031 HD
ATOM     26  H   UNL     1     144.368 174.920 185.978  0.00  0.00    +0.031 HD
ATOM     27  H   UNL     1     143.775 172.428 186.242  0.00  0.00    +0.073 HD
ATOM     28  H   UNL     1     145.642 173.557 190.050  0.00  0.00    +0.040 HD
ATOM     29  H   UNL     1     146.865 173.034 188.867  0.00  0.00    +0.040 HD
ATOM     30  H   UNL     1     145.451 171.192 190.867  0.00  0.00    +0.055 HD
ATOM     31  H   UNL     1     147.423 170.596 188.801  0.00  0.00    +0.149 HD
ATOM     32  H   UNL     1     148.233 168.490 188.674  0.00  0.00    +0.060 HD
ATOM     33  H   UNL     1     144.588 169.080 185.939  0.00  0.00    +0.059 HD
ATOM     34  H   UNL     1     146.917 170.363 184.845  0.00  0.00    +0.149 HD
ATOM     35  H   UNL     1     146.592 171.987 183.324  0.00  0.00    +0.039 HD
ATOM     36  H   UNL     1     145.202 172.873 181.267  0.00  0.00    +0.032 HD
ATOM     37  H   UNL     1     143.890 171.881 181.849  0.00  0.00    +0.032 HD
ATOM     38  H   UNL     1     142.630 172.594 183.658  0.00  0.00    +0.057 HD
ENDROOT
BRANCH   8  39
ATOM     39  C   UNL     1     147.313 172.028 191.515  0.00  0.00    -0.026 A 
ATOM     40  C   UNL     1     148.647 171.591 191.595  0.00  0.00    -0.053 A 
ATOM     41  C   UNL     1     149.481 172.038 192.621  0.00  0.00    -0.020 A 
ATOM     42  C   UNL     1     148.987 172.910 193.582  0.00  0.00    +0.117 A 
ATOM     43  C   UNL     1     147.665 173.340 193.539  0.00  0.00    -0.020 A 
ATOM     44  C   UNL     1     146.832 172.896 192.510  0.00  0.00    -0.053 A 
ATOM     45  H   UNL     1     149.049 170.892 190.867  0.00  0.00    +0.062 HD
ATOM     46  H   UNL     1     150.512 171.701 192.675  0.00  0.00    +0.065 HD
ATOM     47  H   UNL     1     147.265 174.009 194.294  0.00  0.00    +0.065 HD
ATOM     48  H   UNL     1     145.792 173.218 192.496  0.00  0.00    +0.062 HD
BRANCH  42  49
ATOM     49  O   UNL     1     149.836 173.316 194.568  0.00  0.00    -0.507 OA
ATOM     50  H   UNL     1     150.730 173.387 194.192  0.00  0.00    +0.292 HD
ENDBRANCH  42  49
ENDBRANCH   8  39
BRANCH   1  51
ATOM     51  C   UNL     1     142.418 175.864 184.152  0.00  0.00    -0.059 C 
ATOM     52  H   UNL     1     141.413 176.008 183.753  0.00  0.00    +0.024 HD
ATOM     53  H   UNL     1     143.117 176.016 183.322  0.00  0.00    +0.024 HD
ATOM     54  H   UNL     1     142.609 176.651 184.891  0.00  0.00    +0.024 HD
ENDBRANCH   1  51
BRANCH  22  55
ATOM     55  C   UNL     1     145.405 174.676 183.185  0.00  0.00    -0.044 C 
ATOM     56  H   UNL     1     145.929 174.778 182.228  0.00  0.00    +0.027 HD
ATOM     57  H   UNL     1     144.888 175.618 183.389  0.00  0.00    +0.027 HD
ATOM     58  H   UNL     1     146.175 174.537 183.943  0.00  0.00    +0.027 HD
ENDBRANCH  22  55
BRANCH  20  59
ATOM     59  C   UNL     1     146.490 170.628 181.675  0.00  0.00    -0.054 C 
ATOM     60  H   UNL     1     146.789 171.277 180.847  0.00  0.00    +0.024 HD
ATOM     61  H   UNL     1     145.820 169.854 181.281  0.00  0.00    +0.024 HD
ATOM     62  H   UNL     1     147.389 170.123 182.045  0.00  0.00    +0.024 HD
ENDBRANCH  20  59
BRANCH  16  63
ATOM     63  C   UNL     1     145.734 167.533 184.919  0.00  0.00    -0.038 C 
ATOM     64  H   UNL     1     146.574 167.503 184.218  0.00  0.00    +0.025 HD
ATOM     65  H   UNL     1     144.827 167.311 184.345  0.00  0.00    +0.025 HD
ATOM     66  H   UNL     1     145.872 166.723 185.644  0.00  0.00    +0.025 HD
ENDBRANCH  16  63
BRANCH  13  67
ATOM     67  C   UNL     1     144.919 167.704 188.253  0.00  0.00    +0.004 C 
ATOM     68  H   UNL     1     144.789 166.629 188.130  0.00  0.00    +0.043 HD
ATOM     69  H   UNL     1     144.231 168.205 187.566  0.00  0.00    +0.043 HD
ATOM     70  H   UNL     1     144.649 167.957 189.275  0.00  0.00    +0.043 HD
ENDBRANCH  13  67
BRANCH   3  71
ATOM     71  C   UNL     1     142.044 172.840 187.481  0.00  0.00    -0.028 C 
ATOM     72  H   UNL     1     142.033 171.805 187.833  0.00  0.00    +0.027 HD
ATOM     73  H   UNL     1     141.249 172.969 186.738  0.00  0.00    +0.027 HD
ATOM     74  H   UNL     1     141.784 173.484 188.326  0.00  0.00    +0.027 HD
ENDBRANCH   3  71
BRANCH  12  75
ATOM     75  C   UNL     1     147.540 166.730 189.669  0.00  0.00    +0.003 C 
ATOM     76  H   UNL     1     147.395 165.927 188.937  0.00  0.00    +0.034 HD
ATOM     77  H   UNL     1     146.795 166.531 190.450  0.00  0.00    +0.034 HD
BRANCH  75  78
ATOM     78  C   UNL     1     148.912 166.628 190.283  0.00  0.00    -0.006 A 
ATOM     79  C   UNL     1     150.120 166.543 189.618  0.00  0.00    +0.087 A 
ATOM     80  N   UNL     1     151.126 166.423 190.529  0.00  0.00    -0.349 N 
ATOM     81  C   UNL     1     150.614 166.441 191.804  0.00  0.00    +0.048 A 
ATOM     82  C   UNL     1     151.267 166.341 193.040  0.00  0.00    -0.038 A 
ATOM     83  C   UNL     1     150.486 166.406 194.193  0.00  0.00    -0.060 A 
ATOM     84  C   UNL     1     149.106 166.566 194.115  0.00  0.00    -0.061 A 
ATOM     85  C   UNL     1     148.468 166.661 192.872  0.00  0.00    -0.052 A 
ATOM     86  C   UNL     1     149.229 166.588 191.686  0.00  0.00    +0.004 A 
ATOM     87 BR   UNL     1     150.408 166.566 187.738  0.00  0.00    -0.031 Br
ATOM     88  H   UNL     1     152.105 166.334 190.297  0.00  0.00    +0.166 HD
ATOM     89  H   UNL     1     152.344 166.221 193.105  0.00  0.00    +0.064 HD
ATOM     90  H   UNL     1     150.964 166.335 195.168  0.00  0.00    +0.062 HD
ATOM     91  H   UNL     1     148.515 166.620 195.026  0.00  0.00    +0.062 HD
ATOM     92  H   UNL     1     147.393 166.800 192.832  0.00  0.00    +0.062 HD
ENDBRANCH  75  78
ENDBRANCH  12  75
TORSDOF 10
ENDMDL
MODEL 7
REMARK VINA RESULT:      -7.0      4.051      6.198
REMARK  Name = Jasplakinolide_conf2
REMARK  10 active torsions:
REMARK  status: ('A' for Active; 'I' for Inactive)
REMARK    1  A    between atoms: C_1  and  C_2
REMARK    2  A    between atoms: C_4  and  C_47
REMARK    3  A    between atoms: C_9  and  C_40
REMARK    4  A    between atoms: C_13  and  C_29
REMARK    5  A    between atoms: N_14  and  C_28
REMARK    6  A    between atoms: C_17  and  C_27
REMARK    7  A    between atoms: C_21  and  C_26
REMARK    8  A    between atoms: C_23  and  C_25
REMARK    9  A    between atoms: C_29  and  C_30
REMARK   10  A    between atoms: C_43  and  O_46
REMARK                            x       y       z     vdW  Elec       q    Type
REMARK                         _______ _______ _______ _____ _____    ______ ____
ROOT
ATOM      1  C   UNL     1     147.558 164.410 186.457  0.00  0.00    -0.022 C 
ATOM      2  C   UNL     1     148.132 165.505 187.374  0.00  0.00    -0.010 C 
ATOM      3  C   UNL     1     147.482 166.891 187.208  0.00  0.00    +0.101 C 
ATOM      4  O   UNL     1     147.947 167.690 188.319  0.00  0.00    -0.462 OA
ATOM      5  C   UNL     1     147.168 168.755 188.658  0.00  0.00    +0.309 C 
ATOM      6  O   UNL     1     146.171 169.114 188.048  0.00  0.00    -0.251 OA
ATOM      7  C   UNL     1     147.681 169.360 189.943  0.00  0.00    +0.067 C 
ATOM      8  C   UNL     1     147.175 170.792 190.152  0.00  0.00    +0.058 C 
ATOM      9  N   UNL     1     145.736 170.840 190.338  0.00  0.00    -0.306 N 
ATOM     10  C   UNL     1     144.970 171.905 189.901  0.00  0.00    +0.234 C 
ATOM     11  O   UNL     1     145.441 172.942 189.443  0.00  0.00    -0.274 OA
ATOM     12  C   UNL     1     143.463 171.602 189.929  0.00  0.00    +0.106 C 
ATOM     13  N   UNL     1     143.178 170.652 188.820  0.00  0.00    -0.291 N 
ATOM     14  C   UNL     1     143.123 169.294 189.131  0.00  0.00    +0.236 C 
ATOM     15  O   UNL     1     143.374 168.885 190.275  0.00  0.00    -0.274 OA
ATOM     16  C   UNL     1     142.714 168.291 188.026  0.00  0.00    +0.097 C 
ATOM     17  N   UNL     1     142.950 166.936 188.530  0.00  0.00    -0.304 N 
ATOM     18  C   UNL     1     143.075 165.847 187.699  0.00  0.00    +0.217 C 
ATOM     19  O   UNL     1     143.042 165.938 186.475  0.00  0.00    -0.275 OA
ATOM     20  C   UNL     1     143.152 164.516 188.441  0.00  0.00    +0.036 C 
ATOM     21  C   UNL     1     143.903 163.449 187.625  0.00  0.00    -0.021 C 
ATOM     22  C   UNL     1     145.418 163.601 187.690  0.00  0.00    -0.076 C 
ATOM     23  C   UNL     1     146.078 164.173 186.661  0.00  0.00    -0.082 C 
ATOM     24  H   UNL     1     147.664 164.757 185.421  0.00  0.00    +0.034 HD
ATOM     25  H   UNL     1     149.215 165.600 187.200  0.00  0.00    +0.031 HD
ATOM     26  H   UNL     1     148.046 165.203 188.425  0.00  0.00    +0.031 HD
ATOM     27  H   UNL     1     146.391 166.799 187.263  0.00  0.00    +0.073 HD
ATOM     28  H   UNL     1     148.778 169.367 189.902  0.00  0.00    +0.040 HD
ATOM     29  H   UNL     1     147.370 168.699 190.761  0.00  0.00    +0.040 HD
ATOM     30  H   UNL     1     147.403 171.359 189.239  0.00  0.00    +0.055 HD
ATOM     31  H   UNL     1     145.242 170.012 190.663  0.00  0.00    +0.149 HD
ATOM     32  H   UNL     1     143.270 171.095 190.882  0.00  0.00    +0.060 HD
ATOM     33  H   UNL     1     143.343 168.427 187.141  0.00  0.00    +0.059 HD
ATOM     34  H   UNL     1     143.083 166.848 189.530  0.00  0.00    +0.149 HD
ATOM     35  H   UNL     1     143.647 164.674 189.406  0.00  0.00    +0.039 HD
ATOM     36  H   UNL     1     143.652 162.447 187.997  0.00  0.00    +0.032 HD
ATOM     37  H   UNL     1     143.567 163.457 186.578  0.00  0.00    +0.032 HD
ATOM     38  H   UNL     1     145.473 164.538 185.826  0.00  0.00    +0.057 HD
ENDROOT
BRANCH   8  39
ATOM     39  C   UNL     1     147.864 171.467 191.328  0.00  0.00    -0.026 A 
ATOM     40  C   UNL     1     149.226 171.261 191.607  0.00  0.00    -0.053 A 
ATOM     41  C   UNL     1     149.832 171.894 192.693  0.00  0.00    -0.020 A 
ATOM     42  C   UNL     1     149.081 172.722 193.516  0.00  0.00    +0.117 A 
ATOM     43  C   UNL     1     147.727 172.926 193.275  0.00  0.00    -0.020 A 
ATOM     44  C   UNL     1     147.122 172.296 192.186  0.00  0.00    -0.053 A 
ATOM     45  H   UNL     1     149.827 170.599 190.990  0.00  0.00    +0.062 HD
ATOM     46  H   UNL     1     150.886 171.735 192.901  0.00  0.00    +0.065 HD
ATOM     47  H   UNL     1     147.128 173.559 193.922  0.00  0.00    +0.065 HD
ATOM     48  H   UNL     1     146.055 172.441 192.018  0.00  0.00    +0.062 HD
BRANCH  42  49
ATOM     49  O   UNL     1     149.715 173.316 194.568  0.00  0.00    -0.507 OA
ATOM     50  H   UNL     1     150.579 172.887 194.686  0.00  0.00    +0.292 HD
ENDBRANCH  42  49
ENDBRANCH   8  39
BRANCH   1  51
ATOM     51  C   UNL     1     148.386 163.124 186.530  0.00  0.00    -0.059 C 
ATOM     52  H   UNL     1     149.434 163.283 186.271  0.00  0.00    +0.024 HD
ATOM     53  H   UNL     1     147.992 162.380 185.829  0.00  0.00    +0.024 HD
ATOM     54  H   UNL     1     148.344 162.686 187.534  0.00  0.00    +0.024 HD
ENDBRANCH   1  51
BRANCH  22  55
ATOM     55  C   UNL     1     146.047 163.039 188.936  0.00  0.00    -0.044 C 
ATOM     56  H   UNL     1     146.485 162.054 188.739  0.00  0.00    +0.027 HD
ATOM     57  H   UNL     1     146.848 163.701 189.280  0.00  0.00    +0.027 HD
ATOM     58  H   UNL     1     145.343 162.903 189.755  0.00  0.00    +0.027 HD
ENDBRANCH  22  55
BRANCH  20  59
ATOM     59  C   UNL     1     141.717 164.059 188.716  0.00  0.00    -0.054 C 
ATOM     60  H   UNL     1     141.653 163.536 189.675  0.00  0.00    +0.024 HD
ATOM     61  H   UNL     1     141.356 163.385 187.931  0.00  0.00    +0.024 HD
ATOM     62  H   UNL     1     141.029 164.912 188.755  0.00  0.00    +0.024 HD
ENDBRANCH  20  59
BRANCH  16  63
ATOM     63  C   UNL     1     141.234 168.463 187.690  0.00  0.00    -0.038 C 
ATOM     64  H   UNL     1     140.820 167.585 187.185  0.00  0.00    +0.025 HD
ATOM     65  H   UNL     1     141.083 169.321 187.023  0.00  0.00    +0.025 HD
ATOM     66  H   UNL     1     140.643 168.641 188.595  0.00  0.00    +0.025 HD
ENDBRANCH  16  63
BRANCH  13  67
ATOM     67  C   UNL     1     143.400 171.120 187.452  0.00  0.00    +0.004 C 
ATOM     68  H   UNL     1     142.541 170.936 186.806  0.00  0.00    +0.043 HD
ATOM     69  H   UNL     1     144.254 170.583 187.032  0.00  0.00    +0.043 HD
ATOM     70  H   UNL     1     143.605 172.188 187.434  0.00  0.00    +0.043 HD
ENDBRANCH  13  67
BRANCH   3  71
ATOM     71  C   UNL     1     147.892 167.565 185.899  0.00  0.00    -0.028 C 
ATOM     72  H   UNL     1     147.449 167.068 185.031  0.00  0.00    +0.027 HD
ATOM     73  H   UNL     1     148.982 167.566 185.785  0.00  0.00    +0.027 HD
ATOM     74  H   UNL     1     147.579 168.613 185.881  0.00  0.00    +0.027 HD
ENDBRANCH   3  71
BRANCH  12  75
ATOM     75  C   UNL     1     142.618 172.889 189.920  0.00  0.00    +0.003 C 
ATOM     76  H   UNL     1     141.930 172.917 189.066  0.00  0.00    +0.034 HD
ATOM     77  H   UNL     1     143.276 173.754 189.774  0.00  0.00    +0.034 HD
BRANCH  75  78
ATOM     78  C   UNL     1     141.855 173.081 191.204  0.00  0.00    -0.006 A 
ATOM     79  C   UNL     1     140.674 172.468 191.575  0.00  0.00    +0.087 A 
ATOM     80  N   UNL     1     140.285 172.941 192.792  0.00  0.00    -0.349 N 
ATOM     81  C   UNL     1     141.198 173.857 193.256  0.00  0.00    +0.048 A 
ATOM     82  C   UNL     1     141.207 174.596 194.447  0.00  0.00    -0.038 A 
ATOM     83  C   UNL     1     142.285 175.454 194.669  0.00  0.00    -0.060 A 
ATOM     84  C   UNL     1     143.313 175.566 193.739  0.00  0.00    -0.061 A 
ATOM     85  C   UNL     1     143.288 174.822 192.553  0.00  0.00    -0.052 A 
ATOM     86  C   UNL     1     142.206 173.954 192.293  0.00  0.00    +0.004 A 
ATOM     87 BR   UNL     1     139.685 171.177 190.588  0.00  0.00    -0.031 Br
ATOM     88  H   UNL     1     139.447 172.657 193.278  0.00  0.00    +0.166 HD
ATOM     89  H   UNL     1     140.409 174.508 195.177  0.00  0.00    +0.064 HD
ATOM     90  H   UNL     1     142.323 176.039 195.585  0.00  0.00    +0.062 HD
ATOM     91  H   UNL     1     144.148 176.236 193.934  0.00  0.00    +0.062 HD
ATOM     92  H   UNL     1     144.106 174.913 191.847  0.00  0.00    +0.062 HD
ENDBRANCH  75  78
ENDBRANCH  12  75
TORSDOF 10
ENDMDL
MODEL 8
REMARK VINA RESULT:      -6.8     16.029     19.431
REMARK  Name = Jasplakinolide_conf2
REMARK  10 active torsions:
REMARK  status: ('A' for Active; 'I' for Inactive)
REMARK    1  A    between atoms: C_1  and  C_2
REMARK    2  A    between atoms: C_4  and  C_47
REMARK    3  A    between atoms: C_9  and  C_40
REMARK    4  A    between atoms: C_13  and  C_29
REMARK    5  A    between atoms: N_14  and  C_28
REMARK    6  A    between atoms: C_17  and  C_27
REMARK    7  A    between atoms: C_21  and  C_26
REMARK    8  A    between atoms: C_23  and  C_25
REMARK    9  A    between atoms: C_29  and  C_30
REMARK   10  A    between atoms: C_43  and  O_46
REMARK                            x       y       z     vdW  Elec       q    Type
REMARK                         _______ _______ _______ _____ _____    ______ ____
ROOT
ATOM      1  C   UNL     1     129.920 167.068 202.310  0.00  0.00    -0.022 C 
ATOM      2  C   UNL     1     130.724 165.757 202.350  0.00  0.00    -0.010 C 
ATOM      3  C   UNL     1     130.270 164.691 201.336  0.00  0.00    +0.101 C 
ATOM      4  O   UNL     1     131.296 163.672 201.335  0.00  0.00    -0.462 OA
ATOM      5  C   UNL     1     131.368 162.897 200.216  0.00  0.00    +0.309 C 
ATOM      6  O   UNL     1     130.591 162.955 199.274  0.00  0.00    -0.251 OA
ATOM      7  C   UNL     1     132.601 162.028 200.290  0.00  0.00    +0.067 C 
ATOM      8  C   UNL     1     132.524 160.832 199.334  0.00  0.00    +0.058 C 
ATOM      9  N   UNL     1     132.518 161.245 197.943  0.00  0.00    -0.306 N 
ATOM     10  C   UNL     1     131.832 160.546 196.968  0.00  0.00    +0.234 C 
ATOM     11  O   UNL     1     131.284 159.465 197.161  0.00  0.00    -0.274 OA
ATOM     12  C   UNL     1     131.716 161.328 195.648  0.00  0.00    +0.106 C 
ATOM     13  N   UNL     1     130.738 162.428 195.866  0.00  0.00    -0.291 N 
ATOM     14  C   UNL     1     131.242 163.687 196.187  0.00  0.00    +0.236 C 
ATOM     15  O   UNL     1     132.458 163.870 196.356  0.00  0.00    -0.274 OA
ATOM     16  C   UNL     1     130.260 164.877 196.304  0.00  0.00    +0.097 C 
ATOM     17  N   UNL     1     130.990 166.017 196.863  0.00  0.00    -0.304 N 
ATOM     18  C   UNL     1     130.357 167.083 197.460  0.00  0.00    +0.217 C 
ATOM     19  O   UNL     1     129.138 167.134 197.607  0.00  0.00    -0.275 OA
ATOM     20  C   UNL     1     131.296 168.228 197.824  0.00  0.00    +0.036 C 
ATOM     21  C   UNL     1     130.753 169.063 198.997  0.00  0.00    -0.021 C 
ATOM     22  C   UNL     1     130.983 168.411 200.355  0.00  0.00    -0.076 C 
ATOM     23  C   UNL     1     129.970 167.761 200.966  0.00  0.00    -0.082 C 
ATOM     24  H   UNL     1     128.865 166.814 202.475  0.00  0.00    +0.034 HD
ATOM     25  H   UNL     1     130.676 165.325 203.362  0.00  0.00    +0.031 HD
ATOM     26  H   UNL     1     131.790 165.961 202.187  0.00  0.00    +0.031 HD
ATOM     27  H   UNL     1     130.200 165.133 200.336  0.00  0.00    +0.073 HD
ATOM     28  H   UNL     1     132.697 161.661 201.321  0.00  0.00    +0.040 HD
ATOM     29  H   UNL     1     133.463 162.667 200.069  0.00  0.00    +0.040 HD
ATOM     30  H   UNL     1     131.571 160.319 199.524  0.00  0.00    +0.055 HD
ATOM     31  H   UNL     1     132.901 162.153 197.685  0.00  0.00    +0.149 HD
ATOM     32  H   UNL     1     132.703 161.770 195.466  0.00  0.00    +0.060 HD
ATOM     33  H   UNL     1     129.451 164.632 196.998  0.00  0.00    +0.059 HD
ATOM     34  H   UNL     1     132.000 165.953 196.847  0.00  0.00    +0.149 HD
ATOM     35  H   UNL     1     132.280 167.816 198.075  0.00  0.00    +0.039 HD
ATOM     36  H   UNL     1     131.238 170.049 199.013  0.00  0.00    +0.032 HD
ATOM     37  H   UNL     1     129.682 169.275 198.856  0.00  0.00    +0.032 HD
ATOM     38  H   UNL     1     129.020 167.706 200.426  0.00  0.00    +0.057 HD
ENDROOT
BRANCH   8  39
ATOM     39  C   UNL     1     133.661 159.850 199.569  0.00  0.00    -0.026 A 
ATOM     40  C   UNL     1     133.450 158.460 199.579  0.00  0.00    -0.053 A 
ATOM     41  C   UNL     1     134.512 157.582 199.797  0.00  0.00    -0.020 A 
ATOM     42  C   UNL     1     135.787 158.083 200.023  0.00  0.00    +0.117 A 
ATOM     43  C   UNL     1     136.019 159.453 200.040  0.00  0.00    -0.020 A 
ATOM     44  C   UNL     1     134.957 160.332 199.818  0.00  0.00    -0.053 A 
ATOM     45  H   UNL     1     132.457 158.046 199.427  0.00  0.00    +0.062 HD
ATOM     46  H   UNL     1     134.344 156.508 199.799  0.00  0.00    +0.065 HD
ATOM     47  H   UNL     1     137.009 159.855 200.232  0.00  0.00    +0.065 HD
ATOM     48  H   UNL     1     135.141 161.405 199.857  0.00  0.00    +0.062 HD
BRANCH  42  49
ATOM     49  O   UNL     1     136.793 157.187 200.236  0.00  0.00    -0.507 OA
ATOM     50  H   UNL     1     137.435 157.271 199.511  0.00  0.00    +0.292 HD
ENDBRANCH  42  49
ENDBRANCH   8  39
BRANCH   1  51
ATOM     51  C   UNL     1     130.291 167.992 203.474  0.00  0.00    -0.059 C 
ATOM     52  H   UNL     1     129.968 167.601 204.440  0.00  0.00    +0.024 HD
ATOM     53  H   UNL     1     129.814 168.970 203.348  0.00  0.00    +0.024 HD
ATOM     54  H   UNL     1     131.374 168.156 203.515  0.00  0.00    +0.024 HD
ENDBRANCH   1  51
BRANCH  22  55
ATOM     55  C   UNL     1     132.369 168.600 200.909  0.00  0.00    -0.044 C 
ATOM     56  H   UNL     1     133.058 168.931 200.123  0.00  0.00    +0.027 HD
ATOM     57  H   UNL     1     132.357 169.366 201.691  0.00  0.00    +0.027 HD
ATOM     58  H   UNL     1     132.798 167.691 201.328  0.00  0.00    +0.027 HD
ENDBRANCH  22  55
BRANCH  20  59
ATOM     59  C   UNL     1     131.455 169.105 196.578  0.00  0.00    -0.054 C 
ATOM     60  H   UNL     1     130.631 168.939 195.879  0.00  0.00    +0.024 HD
ATOM     61  H   UNL     1     132.397 168.891 196.059  0.00  0.00    +0.024 HD
ATOM     62  H   UNL     1     131.462 170.169 196.840  0.00  0.00    +0.024 HD
ENDBRANCH  20  59
BRANCH  16  63
ATOM     63  C   UNL     1     129.719 165.242 194.923  0.00  0.00    -0.038 C 
ATOM     64  H   UNL     1     128.752 164.771 194.720  0.00  0.00    +0.025 HD
ATOM     65  H   UNL     1     130.409 164.915 194.135  0.00  0.00    +0.025 HD
ATOM     66  H   UNL     1     129.593 166.325 194.823  0.00  0.00    +0.025 HD
ENDBRANCH  16  63
BRANCH  13  67
ATOM     67  C   UNL     1     129.353 162.056 196.157  0.00  0.00    +0.004 C 
ATOM     68  H   UNL     1     128.703 162.164 195.288  0.00  0.00    +0.043 HD
ATOM     69  H   UNL     1     128.972 162.713 196.943  0.00  0.00    +0.043 HD
ATOM     70  H   UNL     1     129.290 161.024 196.492  0.00  0.00    +0.043 HD
ENDBRANCH  13  67
BRANCH   3  71
ATOM     71  C   UNL     1     128.935 164.057 201.730  0.00  0.00    -0.028 C 
ATOM     72  H   UNL     1     128.088 164.592 201.291  0.00  0.00    +0.027 HD
ATOM     73  H   UNL     1     128.816 164.042 202.819  0.00  0.00    +0.027 HD
ATOM     74  H   UNL     1     128.881 163.016 201.398  0.00  0.00    +0.027 HD
ENDBRANCH   3  71
BRANCH  12  75
ATOM     75  C   UNL     1     131.405 160.404 194.458  0.00  0.00    +0.003 C 
ATOM     76  H   UNL     1     130.423 160.620 194.021  0.00  0.00    +0.034 HD
ATOM     77  H   UNL     1     131.330 159.368 194.813  0.00  0.00    +0.034 HD
BRANCH  75  78
ATOM     78  C   UNL     1     132.469 160.466 193.392  0.00  0.00    -0.006 A 
ATOM     79  C   UNL     1     132.723 161.512 192.527  0.00  0.00    +0.087 A 
ATOM     80  N   UNL     1     133.738 161.163 191.687  0.00  0.00    -0.349 N 
ATOM     81  C   UNL     1     134.182 159.897 191.984  0.00  0.00    +0.048 A 
ATOM     82  C   UNL     1     135.194 159.133 191.386  0.00  0.00    -0.038 A 
ATOM     83  C   UNL     1     135.446 157.866 191.911  0.00  0.00    -0.060 A 
ATOM     84  C   UNL     1     134.716 157.382 192.993  0.00  0.00    -0.061 A 
ATOM     85  C   UNL     1     133.707 158.157 193.577  0.00  0.00    -0.052 A 
ATOM     86  C   UNL     1     133.420 159.439 193.062  0.00  0.00    +0.004 A 
ATOM     87 BR   UNL     1     131.832 163.191 192.450  0.00  0.00    -0.031 Br
ATOM     88  H   UNL     1     134.106 161.751 190.954  0.00  0.00    +0.166 HD
ATOM     89  H   UNL     1     135.768 159.509 190.545  0.00  0.00    +0.064 HD
ATOM     90  H   UNL     1     136.227 157.249 191.472  0.00  0.00    +0.062 HD
ATOM     91  H   UNL     1     134.932 156.393 193.392  0.00  0.00    +0.062 HD
ATOM     92  H   UNL     1     133.160 157.767 194.429  0.00  0.00    +0.062 HD
ENDBRANCH  75  78
ENDBRANCH  12  75
TORSDOF 10
ENDMDL
MODEL 9
REMARK VINA RESULT:      -6.7      6.059      9.715
REMARK  Name = Jasplakinolide_conf2
REMARK  10 active torsions:
REMARK  status: ('A' for Active; 'I' for Inactive)
REMARK    1  A    between atoms: C_1  and  C_2
REMARK    2  A    between atoms: C_4  and  C_47
REMARK    3  A    between atoms: C_9  and  C_40
REMARK    4  A    between atoms: C_13  and  C_29
REMARK    5  A    between atoms: N_14  and  C_28
REMARK    6  A    between atoms: C_17  and  C_27
REMARK    7  A    between atoms: C_21  and  C_26
REMARK    8  A    between atoms: C_23  and  C_25
REMARK    9  A    between atoms: C_29  and  C_30
REMARK   10  A    between atoms: C_43  and  O_46
REMARK                            x       y       z     vdW  Elec       q    Type
REMARK                         _______ _______ _______ _____ _____    ______ ____
ROOT
ATOM      1  C   UNL     1     140.961 171.555 182.726  0.00  0.00    -0.022 C 
ATOM      2  C   UNL     1     140.795 172.034 184.179  0.00  0.00    -0.010 C 
ATOM      3  C   UNL     1     141.395 171.093 185.241  0.00  0.00    +0.101 C 
ATOM      4  O   UNL     1     141.389 171.831 186.484  0.00  0.00    -0.462 OA
ATOM      5  C   UNL     1     142.277 171.416 187.430  0.00  0.00    +0.309 C 
ATOM      6  O   UNL     1     143.002 170.437 187.327  0.00  0.00    -0.251 OA
ATOM      7  C   UNL     1     142.283 172.401 188.575  0.00  0.00    +0.067 C 
ATOM      8  C   UNL     1     142.883 171.801 189.851  0.00  0.00    +0.058 C 
ATOM      9  N   UNL     1     144.293 171.494 189.699  0.00  0.00    -0.306 N 
ATOM     10  C   UNL     1     144.891 170.426 190.343  0.00  0.00    +0.234 C 
ATOM     11  O   UNL     1     144.325 169.734 191.185  0.00  0.00    -0.274 OA
ATOM     12  C   UNL     1     146.295 170.116 189.799  0.00  0.00    +0.106 C 
ATOM     13  N   UNL     1     146.127 169.500 188.455  0.00  0.00    -0.291 N 
ATOM     14  C   UNL     1     146.239 170.335 187.344  0.00  0.00    +0.236 C 
ATOM     15  O   UNL     1     146.401 171.559 187.471  0.00  0.00    -0.274 OA
ATOM     16  C   UNL     1     146.186 169.707 185.930  0.00  0.00    +0.097 C 
ATOM     17  N   UNL     1     146.097 170.794 184.952  0.00  0.00    -0.304 N 
ATOM     18  C   UNL     1     145.642 170.601 183.669  0.00  0.00    +0.217 C 
ATOM     19  O   UNL     1     145.236 169.515 183.264  0.00  0.00    -0.275 OA
ATOM     20  C   UNL     1     145.786 171.830 182.776  0.00  0.00    +0.036 C 
ATOM     21  C   UNL     1     144.753 171.833 181.635  0.00  0.00    -0.021 C 
ATOM     22  C   UNL     1     143.369 172.289 182.080  0.00  0.00    -0.076 C 
ATOM     23  C   UNL     1     142.406 171.373 182.316  0.00  0.00    -0.082 C 
ATOM     24  H   UNL     1     140.503 170.560 182.652  0.00  0.00    +0.034 HD
ATOM     25  H   UNL     1     139.727 172.180 184.400  0.00  0.00    +0.031 HD
ATOM     26  H   UNL     1     141.242 173.028 184.303  0.00  0.00    +0.031 HD
ATOM     27  H   UNL     1     142.427 170.842 184.975  0.00  0.00    +0.073 HD
ATOM     28  H   UNL     1     141.245 172.702 188.770  0.00  0.00    +0.040 HD
ATOM     29  H   UNL     1     142.842 173.283 188.242  0.00  0.00    +0.040 HD
ATOM     30  H   UNL     1     142.363 170.853 190.046  0.00  0.00    +0.055 HD
ATOM     31  H   UNL     1     144.840 171.975 188.988  0.00  0.00    +0.149 HD
ATOM     32  H   UNL     1     146.798 171.083 189.680  0.00  0.00    +0.060 HD
ATOM     33  H   UNL     1     145.288 169.093 185.823  0.00  0.00    +0.059 HD
ATOM     34  H   UNL     1     146.328 171.720 185.290  0.00  0.00    +0.149 HD
ATOM     35  H   UNL     1     145.677 172.731 183.390  0.00  0.00    +0.039 HD
ATOM     36  H   UNL     1     145.083 172.504 180.831  0.00  0.00    +0.032 HD
ATOM     37  H   UNL     1     144.691 170.838 181.169  0.00  0.00    +0.032 HD
ATOM     38  H   UNL     1     142.684 170.321 182.204  0.00  0.00    +0.057 HD
ENDROOT
BRANCH   8  39
ATOM     39  C   UNL     1     142.688 172.717 191.049  0.00  0.00    -0.026 A 
ATOM     40  C   UNL     1     141.586 172.586 191.911  0.00  0.00    -0.053 A 
ATOM     41  C   UNL     1     141.432 173.441 193.004  0.00  0.00    -0.020 A 
ATOM     42  C   UNL     1     142.367 174.441 193.234  0.00  0.00    +0.117 A 
ATOM     43  C   UNL     1     143.455 174.606 192.385  0.00  0.00    -0.020 A 
ATOM     44  C   UNL     1     143.611 173.748 191.294  0.00  0.00    -0.053 A 
ATOM     45  H   UNL     1     140.829 171.826 191.737  0.00  0.00    +0.062 HD
ATOM     46  H   UNL     1     140.580 173.332 193.669  0.00  0.00    +0.065 HD
ATOM     47  H   UNL     1     144.183 175.395 192.548  0.00  0.00    +0.065 HD
ATOM     48  H   UNL     1     144.453 173.899 190.620  0.00  0.00    +0.062 HD
BRANCH  42  49
ATOM     49  O   UNL     1     142.174 175.256 194.311  0.00  0.00    -0.507 OA
ATOM     50  H   UNL     1     142.836 175.967 194.279  0.00  0.00    +0.292 HD
ENDBRANCH  42  49
ENDBRANCH   8  39
BRANCH   1  51
ATOM     51  C   UNL     1     140.167 172.429 181.751  0.00  0.00    -0.059 C 
ATOM     52  H   UNL     1     140.694 173.348 181.486  0.00  0.00    +0.024 HD
ATOM     53  H   UNL     1     139.212 172.725 182.198  0.00  0.00    +0.024 HD
ATOM     54  H   UNL     1     139.944 171.884 180.826  0.00  0.00    +0.024 HD
ENDBRANCH   1  51
BRANCH  22  55
ATOM     55  C   UNL     1     143.209 173.782 182.182  0.00  0.00    -0.044 C 
ATOM     56  H   UNL     1     142.439 174.136 181.487  0.00  0.00    +0.027 HD
ATOM     57  H   UNL     1     142.900 174.055 183.196  0.00  0.00    +0.027 HD
ATOM     58  H   UNL     1     144.116 174.334 181.941  0.00  0.00    +0.027 HD
ENDBRANCH  22  55
BRANCH  20  59
ATOM     59  C   UNL     1     147.207 171.817 182.204  0.00  0.00    -0.054 C 
ATOM     60  H   UNL     1     147.801 172.634 182.623  0.00  0.00    +0.024 HD
ATOM     61  H   UNL     1     147.198 171.922 181.113  0.00  0.00    +0.024 HD
ATOM     62  H   UNL     1     147.720 170.878 182.436  0.00  0.00    +0.024 HD
ENDBRANCH  20  59
BRANCH  16  63
ATOM     63  C   UNL     1     147.453 168.892 185.677  0.00  0.00    -0.038 C 
ATOM     64  H   UNL     1     148.226 169.083 186.428  0.00  0.00    +0.025 HD
ATOM     65  H   UNL     1     147.885 169.137 184.699  0.00  0.00    +0.025 HD
ATOM     66  H   UNL     1     147.237 167.818 185.681  0.00  0.00    +0.025 HD
ENDBRANCH  16  63
BRANCH  13  67
ATOM     67  C   UNL     1     145.447 168.207 188.381  0.00  0.00    +0.004 C 
ATOM     68  H   UNL     1     144.372 168.312 188.234  0.00  0.00    +0.043 HD
ATOM     69  H   UNL     1     145.605 167.674 189.322  0.00  0.00    +0.043 HD
ATOM     70  H   UNL     1     145.837 167.609 187.562  0.00  0.00    +0.043 HD
ENDBRANCH  13  67
BRANCH   3  71
ATOM     71  C   UNL     1     140.567 169.819 185.410  0.00  0.00    -0.028 C 
ATOM     72  H   UNL     1     140.580 169.204 184.506  0.00  0.00    +0.027 HD
ATOM     73  H   UNL     1     139.527 170.059 185.658  0.00  0.00    +0.027 HD
ATOM     74  H   UNL     1     140.948 169.209 186.235  0.00  0.00    +0.027 HD
ENDBRANCH   3  71
BRANCH  12  75
ATOM     75  C   UNL     1     147.128 169.290 190.796  0.00  0.00    +0.003 C 
ATOM     76  H   UNL     1     147.578 168.411 190.319  0.00  0.00    +0.034 HD
ATOM     77  H   UNL     1     146.466 168.878 191.568  0.00  0.00    +0.034 HD
BRANCH  75  78
ATOM     78  C   UNL     1     148.193 170.113 191.471  0.00  0.00    -0.006 A 
ATOM     79  C   UNL     1     149.534 169.805 191.595  0.00  0.00    +0.087 A 
ATOM     80  N   UNL     1     150.156 170.785 192.309  0.00  0.00    -0.349 N 
ATOM     81  C   UNL     1     149.254 171.761 192.657  0.00  0.00    +0.048 A 
ATOM     82  C   UNL     1     149.440 172.941 193.389  0.00  0.00    -0.038 A 
ATOM     83  C   UNL     1     148.332 173.767 193.580  0.00  0.00    -0.060 A 
ATOM     84  C   UNL     1     147.088 173.427 193.059  0.00  0.00    -0.061 A 
ATOM     85  C   UNL     1     146.918 172.242 192.331  0.00  0.00    -0.052 A 
ATOM     86  C   UNL     1     148.016 171.380 192.130  0.00  0.00    +0.004 A 
ATOM     87 BR   UNL     1     150.433 168.270 190.920  0.00  0.00    -0.031 Br
ATOM     88  H   UNL     1     151.137 170.789 192.545  0.00  0.00    +0.166 HD
ATOM     89  H   UNL     1     150.410 173.212 193.794  0.00  0.00    +0.064 HD
ATOM     90  H   UNL     1     148.444 174.692 194.142  0.00  0.00    +0.062 HD
ATOM     91  H   UNL     1     146.238 174.088 193.214  0.00  0.00    +0.062 HD
ATOM     92  H   UNL     1     145.943 172.003 191.921  0.00  0.00    +0.062 HD
ENDBRANCH  75  78
ENDBRANCH  12  75
TORSDOF 10
ENDMDL
MODEL 10
REMARK VINA RESULT:      -6.7      3.861      5.864
REMARK  Name = Jasplakinolide_conf2
REMARK  10 active torsions:
REMARK  status: ('A' for Active; 'I' for Inactive)
REMARK    1  A    between atoms: C_1  and  C_2
REMARK    2  A    between atoms: C_4  and  C_47
REMARK    3  A    between atoms: C_9  and  C_40
REMARK    4  A    between atoms: C_13  and  C_29
REMARK    5  A    between atoms: N_14  and  C_28
REMARK    6  A    between atoms: C_17  and  C_27
REMARK    7  A    between atoms: C_21  and  C_26
REMARK    8  A    between atoms: C_23  and  C_25
REMARK    9  A    between atoms: C_29  and  C_30
REMARK   10  A    between atoms: C_43  and  O_46
REMARK                            x       y       z     vdW  Elec       q    Type
REMARK                         _______ _______ _______ _____ _____    ______ ____
ROOT
ATOM      1  C   UNL     1     149.559 158.188 185.371  0.00  0.00    -0.022 C 
ATOM      2  C   UNL     1     150.942 158.720 185.784  0.00  0.00    -0.010 C 
ATOM      3  C   UNL     1     150.988 160.231 186.084  0.00  0.00    +0.101 C 
ATOM      4  O   UNL     1     152.268 160.479 186.710  0.00  0.00    -0.462 OA
ATOM      5  C   UNL     1     152.350 161.600 187.480  0.00  0.00    +0.309 C 
ATOM      6  O   UNL     1     151.459 162.428 187.607  0.00  0.00    -0.251 OA
ATOM      7  C   UNL     1     153.672 161.608 188.210  0.00  0.00    +0.067 C 
ATOM      8  C   UNL     1     154.042 163.005 188.722  0.00  0.00    +0.058 C 
ATOM      9  N   UNL     1     153.122 163.474 189.740  0.00  0.00    -0.306 N 
ATOM     10  C   UNL     1     152.799 164.811 189.885  0.00  0.00    +0.234 C 
ATOM     11  O   UNL     1     153.348 165.716 189.264  0.00  0.00    -0.274 OA
ATOM     12  C   UNL     1     151.590 165.032 190.810  0.00  0.00    +0.106 C 
ATOM     13  N   UNL     1     150.377 164.588 190.073  0.00  0.00    -0.291 N 
ATOM     14  C   UNL     1     149.910 163.296 190.316  0.00  0.00    +0.236 C 
ATOM     15  O   UNL     1     150.524 162.520 191.064  0.00  0.00    -0.274 OA
ATOM     16  C   UNL     1     148.586 162.845 189.655  0.00  0.00    +0.097 C 
ATOM     17  N   UNL     1     148.434 161.405 189.877  0.00  0.00    -0.304 N 
ATOM     18  C   UNL     1     147.605 160.620 189.110  0.00  0.00    +0.217 C 
ATOM     19  O   UNL     1     146.967 161.060 188.157  0.00  0.00    -0.275 OA
ATOM     20  C   UNL     1     147.477 159.186 189.617  0.00  0.00    +0.036 C 
ATOM     21  C   UNL     1     147.118 158.209 188.484  0.00  0.00    -0.021 C 
ATOM     22  C   UNL     1     148.315 157.822 187.624  0.00  0.00    -0.076 C 
ATOM     23  C   UNL     1     148.493 158.410 186.422  0.00  0.00    -0.082 C 
ATOM     24  H   UNL     1     149.234 158.759 184.491  0.00  0.00    +0.034 HD
ATOM     25  H   UNL     1     151.676 158.495 184.995  0.00  0.00    +0.031 HD
ATOM     26  H   UNL     1     151.309 158.180 186.665  0.00  0.00    +0.031 HD
ATOM     27  H   UNL     1     150.188 160.496 186.784  0.00  0.00    +0.073 HD
ATOM     28  H   UNL     1     154.447 161.260 187.514  0.00  0.00    +0.040 HD
ATOM     29  H   UNL     1     153.595 160.885 189.031  0.00  0.00    +0.040 HD
ATOM     30  H   UNL     1     153.968 163.697 187.872  0.00  0.00    +0.055 HD
ATOM     31  H   UNL     1     152.576 162.802 190.275  0.00  0.00    +0.149 HD
ATOM     32  H   UNL     1     151.738 164.370 191.671  0.00  0.00    +0.060 HD
ATOM     33  H   UNL     1     148.628 163.009 188.575  0.00  0.00    +0.059 HD
ATOM     34  H   UNL     1     149.027 160.997 190.590  0.00  0.00    +0.149 HD
ATOM     35  H   UNL     1     148.419 158.890 190.091  0.00  0.00    +0.039 HD
ATOM     36  H   UNL     1     146.697 157.285 188.904  0.00  0.00    +0.032 HD
ATOM     37  H   UNL     1     146.319 158.625 187.853  0.00  0.00    +0.032 HD
ATOM     38  H   UNL     1     147.769 159.177 186.132  0.00  0.00    +0.057 HD
ENDROOT
BRANCH   8  39
ATOM     39  C   UNL     1     155.464 163.048 189.260  0.00  0.00    -0.026 A 
ATOM     40  C   UNL     1     156.367 164.060 188.890  0.00  0.00    -0.053 A 
ATOM     41  C   UNL     1     157.666 164.075 189.401  0.00  0.00    -0.020 A 
ATOM     42  C   UNL     1     158.077 163.074 190.270  0.00  0.00    +0.117 A 
ATOM     43  C   UNL     1     157.211 162.049 190.635  0.00  0.00    -0.020 A 
ATOM     44  C   UNL     1     155.910 162.036 190.128  0.00  0.00    -0.053 A 
ATOM     45  H   UNL     1     156.073 164.841 188.194  0.00  0.00    +0.062 HD
ATOM     46  H   UNL     1     158.357 164.862 189.114  0.00  0.00    +0.065 HD
ATOM     47  H   UNL     1     157.528 161.253 191.302  0.00  0.00    +0.065 HD
ATOM     48  H   UNL     1     155.245 161.218 190.399  0.00  0.00    +0.062 HD
BRANCH  42  49
ATOM     49  O   UNL     1     159.356 163.126 190.739  0.00  0.00    -0.507 OA
ATOM     50  H   UNL     1     159.760 162.249 190.628  0.00  0.00    +0.292 HD
ENDBRANCH  42  49
ENDBRANCH   8  39
BRANCH   1  51
ATOM     51  C   UNL     1     149.635 156.735 184.893  0.00  0.00    -0.059 C 
ATOM     52  H   UNL     1     150.604 156.275 185.100  0.00  0.00    +0.024 HD
ATOM     53  H   UNL     1     149.481 156.683 183.811  0.00  0.00    +0.024 HD
ATOM     54  H   UNL     1     148.858 156.124 185.367  0.00  0.00    +0.024 HD
ENDBRANCH   1  51
BRANCH  22  55
ATOM     55  C   UNL     1     149.191 156.754 188.221  0.00  0.00    -0.044 C 
ATOM     56  H   UNL     1     150.219 156.845 187.850  0.00  0.00    +0.027 HD
ATOM     57  H   UNL     1     149.215 156.858 189.310  0.00  0.00    +0.027 HD
ATOM     58  H   UNL     1     148.868 155.742 187.980  0.00  0.00    +0.027 HD
ENDBRANCH  22  55
BRANCH  20  59
ATOM     59  C   UNL     1     146.385 159.176 190.691  0.00  0.00    -0.054 C 
ATOM     60  H   UNL     1     145.504 159.729 190.354  0.00  0.00    +0.024 HD
ATOM     61  H   UNL     1     146.740 159.628 191.624  0.00  0.00    +0.024 HD
ATOM     62  H   UNL     1     146.068 158.153 190.925  0.00  0.00    +0.024 HD
ENDBRANCH  20  59
BRANCH  16  63
ATOM     63  C   UNL     1     147.410 163.587 190.287  0.00  0.00    -0.038 C 
ATOM     64  H   UNL     1     147.718 164.198 191.142  0.00  0.00    +0.025 HD
ATOM     65  H   UNL     1     146.654 162.882 190.651  0.00  0.00    +0.025 HD
ATOM     66  H   UNL     1     146.924 164.246 189.560  0.00  0.00    +0.025 HD
ENDBRANCH  16  63
BRANCH  13  67
ATOM     67  C   UNL     1     150.011 165.323 188.863  0.00  0.00    +0.004 C 
ATOM     68  H   UNL     1     150.596 166.234 188.738  0.00  0.00    +0.043 HD
ATOM     69  H   UNL     1     148.958 165.609 188.931  0.00  0.00    +0.043 HD
ATOM     70  H   UNL     1     150.157 164.711 187.976  0.00  0.00    +0.043 HD
ENDBRANCH  13  67
BRANCH   3  71
ATOM     71  C   UNL     1     150.880 161.072 184.812  0.00  0.00    -0.028 C 
ATOM     72  H   UNL     1     151.766 161.696 184.663  0.00  0.00    +0.027 HD
ATOM     73  H   UNL     1     149.996 161.717 184.845  0.00  0.00    +0.027 HD
ATOM     74  H   UNL     1     150.766 160.436 183.929  0.00  0.00    +0.027 HD
ENDBRANCH   3  71
BRANCH  12  75
ATOM     75  C   UNL     1     151.535 166.473 191.349  0.00  0.00    +0.003 C 
ATOM     76  H   UNL     1     151.394 167.203 190.543  0.00  0.00    +0.034 HD
ATOM     77  H   UNL     1     152.505 166.732 191.791  0.00  0.00    +0.034 HD
BRANCH  75  78
ATOM     78  C   UNL     1     150.470 166.651 192.399  0.00  0.00    -0.006 A 
ATOM     79  C   UNL     1     149.273 167.327 192.268  0.00  0.00    +0.087 A 
ATOM     80  N   UNL     1     148.607 167.296 193.456  0.00  0.00    -0.349 N 
ATOM     81  C   UNL     1     149.334 166.593 194.386  0.00  0.00    +0.048 A 
ATOM     82  C   UNL     1     149.047 166.311 195.729  0.00  0.00    -0.038 A 
ATOM     83  C   UNL     1     149.973 165.550 196.443  0.00  0.00    -0.060 A 
ATOM     84  C   UNL     1     151.138 165.088 195.839  0.00  0.00    -0.061 A 
ATOM     85  C   UNL     1     151.410 165.380 194.497  0.00  0.00    -0.052 A 
ATOM     86  C   UNL     1     150.500 166.157 193.750  0.00  0.00    +0.004 A 
ATOM     87 BR   UNL     1     148.603 168.200 190.716  0.00  0.00    -0.031 Br
ATOM     88  H   UNL     1     147.710 167.728 193.624  0.00  0.00    +0.166 HD
ATOM     89  H   UNL     1     148.137 166.666 196.203  0.00  0.00    +0.064 HD
ATOM     90  H   UNL     1     149.778 165.311 197.487  0.00  0.00    +0.062 HD
ATOM     91  H   UNL     1     151.844 164.490 196.412  0.00  0.00    +0.062 HD
ATOM     92  H   UNL     1     152.317 164.999 194.041  0.00  0.00    +0.062 HD
ENDBRANCH  75  78
ENDBRANCH  12  75
TORSDOF 10
ENDMDL
