MODEL 1
REMARK VINA RESULT:      -7.0      0.000      0.000
REMARK  Name = Jasplakinolide_conf3
REMARK  10 active torsions:
REMARK  status: ('A' for Active; 'I' for Inactive)
REMARK    1  A    between atoms: C_1  and  C_2
REMARK    2  A    between atoms: C_4  and  C_47
REMARK    3  A    between atoms: C_9  and  C_40
REMARK    4  A    between atoms: C_13  and  C_29
REMARK    5  A    between atoms: N_14  and  C_28
REMARK    6  A    between atoms: C_17  and  C_27
REMARK    7  A    between atoms: C_21  and  C_26
REMARK    8  A    between atoms: C_23  and  C_25
REMARK    9  A    between atoms: C_29  and  C_30
REMARK   10  A    between atoms: C_43  and  O_46
REMARK                            x       y       z     vdW  Elec       q    Type
REMARK                         _______ _______ _______ _____ _____    ______ ____
ROOT
ATOM      1  C   UNL     1     150.631 170.226 191.878  0.00  0.00    -0.022 C 
ATOM      2  C   UNL     1     149.774 171.130 192.795  0.00  0.00    -0.010 C 
ATOM      3  C   UNL     1     148.722 171.938 192.014  0.00  0.00    +0.101 C 
ATOM      4  O   UNL     1     147.550 171.104 191.874  0.00  0.00    -0.462 OA
ATOM      5  C   UNL     1     146.712 171.397 190.840  0.00  0.00    +0.309 C 
ATOM      6  O   UNL     1     146.923 172.234 189.974  0.00  0.00    -0.251 OA
ATOM      7  C   UNL     1     145.417 170.644 190.997  0.00  0.00    +0.067 C 
ATOM      8  C   UNL     1     144.993 169.949 189.699  0.00  0.00    +0.058 C 
ATOM      9  N   UNL     1     145.550 168.607 189.626  0.00  0.00    -0.306 N 
ATOM     10  C   UNL     1     146.517 168.222 188.721  0.00  0.00    +0.234 C 
ATOM     11  O   UNL     1     146.911 168.963 187.824  0.00  0.00    -0.274 OA
ATOM     12  C   UNL     1     146.894 166.721 188.818  0.00  0.00    +0.106 C 
ATOM     13  N   UNL     1     146.746 166.179 190.200  0.00  0.00    -0.291 N 
ATOM     14  C   UNL     1     147.553 166.721 191.196  0.00  0.00    +0.236 C 
ATOM     15  O   UNL     1     148.195 167.756 190.987  0.00  0.00    -0.274 OA
ATOM     16  C   UNL     1     147.579 166.079 192.599  0.00  0.00    +0.097 C 
ATOM     17  N   UNL     1     148.819 166.503 193.249  0.00  0.00    -0.304 N 
ATOM     18  C   UNL     1     149.826 165.640 193.606  0.00  0.00    +0.217 C 
ATOM     19  O   UNL     1     149.754 164.427 193.437  0.00  0.00    -0.275 OA
ATOM     20  C   UNL     1     151.034 166.329 194.244  0.00  0.00    +0.036 C 
ATOM     21  C   UNL     1     152.053 166.789 193.184  0.00  0.00    -0.021 C 
ATOM     22  C   UNL     1     151.547 167.863 192.238  0.00  0.00    -0.076 C 
ATOM     23  C   UNL     1     151.248 169.100 192.686  0.00  0.00    -0.082 C 
ATOM     24  H   UNL     1     149.973 169.805 191.110  0.00  0.00    +0.034 HD
ATOM     25  H   UNL     1     150.441 171.805 193.345  0.00  0.00    +0.031 HD
ATOM     26  H   UNL     1     149.256 170.511 193.541  0.00  0.00    +0.031 HD
ATOM     27  H   UNL     1     149.109 172.233 191.033  0.00  0.00    +0.073 HD
ATOM     28  H   UNL     1     145.505 169.921 191.817  0.00  0.00    +0.040 HD
ATOM     29  H   UNL     1     144.681 171.395 191.312  0.00  0.00    +0.040 HD
ATOM     30  H   UNL     1     145.354 170.529 188.841  0.00  0.00    +0.055 HD
ATOM     31  H   UNL     1     145.225 167.906 190.279  0.00  0.00    +0.149 HD
ATOM     32  H   UNL     1     146.119 166.229 188.212  0.00  0.00    +0.060 HD
ATOM     33  H   UNL     1     147.578 164.990 192.511  0.00  0.00    +0.059 HD
ATOM     34  H   UNL     1     149.032 167.495 193.198  0.00  0.00    +0.149 HD
ATOM     35  H   UNL     1     150.672 167.193 194.818  0.00  0.00    +0.039 HD
ATOM     36  H   UNL     1     152.388 165.919 192.603  0.00  0.00    +0.032 HD
ATOM     37  H   UNL     1     152.953 167.174 193.683  0.00  0.00    +0.032 HD
ATOM     38  H   UNL     1     151.434 169.326 193.736  0.00  0.00    +0.057 HD
ENDROOT
BRANCH   8  39
ATOM     39  C   UNL     1     143.479 169.820 189.588  0.00  0.00    -0.026 A 
ATOM     40  C   UNL     1     142.849 169.422 188.396  0.00  0.00    -0.053 A 
ATOM     41  C   UNL     1     141.457 169.339 188.320  0.00  0.00    -0.020 A 
ATOM     42  C   UNL     1     140.686 169.661 189.429  0.00  0.00    +0.117 A 
ATOM     43  C   UNL     1     141.283 170.071 190.616  0.00  0.00    -0.020 A 
ATOM     44  C   UNL     1     142.676 170.154 190.692  0.00  0.00    -0.053 A 
ATOM     45  H   UNL     1     143.433 169.173 187.513  0.00  0.00    +0.062 HD
ATOM     46  H   UNL     1     140.975 169.025 187.399  0.00  0.00    +0.065 HD
ATOM     47  H   UNL     1     140.690 170.331 191.487  0.00  0.00    +0.065 HD
ATOM     48  H   UNL     1     143.136 170.486 191.622  0.00  0.00    +0.062 HD
BRANCH  42  49
ATOM     49  O   UNL     1     139.332 169.566 189.311  0.00  0.00    -0.507 OA
ATOM     50  H   UNL     1     138.970 170.458 189.179  0.00  0.00    +0.292 HD
ENDBRANCH  42  49
ENDBRANCH   8  39
BRANCH   1  51
ATOM     51  C   UNL     1     151.737 171.037 191.193  0.00  0.00    -0.059 C 
ATOM     52  H   UNL     1     152.608 171.148 191.848  0.00  0.00    +0.024 HD
ATOM     53  H   UNL     1     151.390 172.043 190.928  0.00  0.00    +0.024 HD
ATOM     54  H   UNL     1     152.078 170.548 190.276  0.00  0.00    +0.024 HD
ENDBRANCH   1  51
BRANCH  22  55
ATOM     55  C   UNL     1     151.432 167.427 190.801  0.00  0.00    -0.044 C 
ATOM     56  H   UNL     1     150.541 167.808 190.296  0.00  0.00    +0.027 HD
ATOM     57  H   UNL     1     152.299 167.782 190.235  0.00  0.00    +0.027 HD
ATOM     58  H   UNL     1     151.407 166.338 190.741  0.00  0.00    +0.027 HD
ENDBRANCH  22  55
BRANCH  20  59
ATOM     59  C   UNL     1     151.707 165.373 195.232  0.00  0.00    -0.054 C 
ATOM     60  H   UNL     1     151.404 165.583 196.264  0.00  0.00    +0.024 HD
ATOM     61  H   UNL     1     152.798 165.468 195.181  0.00  0.00    +0.024 HD
ATOM     62  H   UNL     1     151.448 164.334 195.006  0.00  0.00    +0.024 HD
ENDBRANCH  20  59
BRANCH  16  63
ATOM     63  C   UNL     1     146.388 166.566 193.415  0.00  0.00    -0.038 C 
ATOM     64  H   UNL     1     146.265 167.651 193.352  0.00  0.00    +0.025 HD
ATOM     65  H   UNL     1     145.462 166.098 193.065  0.00  0.00    +0.025 HD
ATOM     66  H   UNL     1     146.506 166.314 194.475  0.00  0.00    +0.025 HD
ENDBRANCH  16  63
BRANCH  13  67
ATOM     67  C   UNL     1     145.907 164.996 190.347  0.00  0.00    +0.004 C 
ATOM     68  H   UNL     1     146.314 164.271 191.049  0.00  0.00    +0.043 HD
ATOM     69  H   UNL     1     144.925 165.312 190.711  0.00  0.00    +0.043 HD
ATOM     70  H   UNL     1     145.791 164.513 189.374  0.00  0.00    +0.043 HD
ENDBRANCH  13  67
BRANCH   3  71
ATOM     71  C   UNL     1     148.320 173.183 192.804  0.00  0.00    -0.028 C 
ATOM     72  H   UNL     1     147.290 173.101 193.165  0.00  0.00    +0.027 HD
ATOM     73  H   UNL     1     148.398 174.084 192.189  0.00  0.00    +0.027 HD
ATOM     74  H   UNL     1     148.954 173.305 193.690  0.00  0.00    +0.027 HD
ENDBRANCH   3  71
BRANCH  12  75
ATOM     75  C   UNL     1     148.269 166.433 188.178  0.00  0.00    +0.003 C 
ATOM     76  H   UNL     1     149.081 166.840 188.791  0.00  0.00    +0.034 HD
ATOM     77  H   UNL     1     148.360 166.945 187.214  0.00  0.00    +0.034 HD
BRANCH  75  78
ATOM     78  C   UNL     1     148.512 164.963 187.952  0.00  0.00    -0.006 A 
ATOM     79  C   UNL     1     147.986 164.176 186.949  0.00  0.00    +0.087 A 
ATOM     80  N   UNL     1     148.454 162.904 187.084  0.00  0.00    -0.349 N 
ATOM     81  C   UNL     1     149.268 162.815 188.187  0.00  0.00    +0.048 A 
ATOM     82  C   UNL     1     149.945 161.713 188.723  0.00  0.00    -0.038 A 
ATOM     83  C   UNL     1     150.708 161.917 189.875  0.00  0.00    -0.060 A 
ATOM     84  C   UNL     1     150.793 163.175 190.462  0.00  0.00    -0.061 A 
ATOM     85  C   UNL     1     150.116 164.267 189.908  0.00  0.00    -0.052 A 
ATOM     86  C   UNL     1     149.332 164.093 188.748  0.00  0.00    +0.004 A 
ATOM     87 BR   UNL     1     146.792 164.713 185.569  0.00  0.00    -0.031 Br
ATOM     88  H   UNL     1     148.226 162.136 186.469  0.00  0.00    +0.166 HD
ATOM     89  H   UNL     1     149.882 160.730 188.267  0.00  0.00    +0.064 HD
ATOM     90  H   UNL     1     151.245 161.081 190.320  0.00  0.00    +0.062 HD
ATOM     91  H   UNL     1     151.387 163.320 191.363  0.00  0.00    +0.062 HD
ATOM     92  H   UNL     1     150.197 165.237 190.385  0.00  0.00    +0.062 HD
ENDBRANCH  75  78
ENDBRANCH  12  75
TORSDOF 10
ENDMDL
MODEL 2
REMARK VINA RESULT:      -6.8      2.778      6.775
REMARK  Name = Jasplakinolide_conf3
REMARK  10 active torsions:
REMARK  status: ('A' for Active; 'I' for Inactive)
REMARK    1  A    between atoms: C_1  and  C_2
REMARK    2  A    between atoms: C_4  and  C_47
REMARK    3  A    between atoms: C_9  and  C_40
REMARK    4  A    between atoms: C_13  and  C_29
REMARK    5  A    between atoms: N_14  and  C_28
REMARK    6  A    between atoms: C_17  and  C_27
REMARK    7  A    between atoms: C_21  and  C_26
REMARK    8  A    between atoms: C_23  and  C_25
REMARK    9  A    between atoms: C_29  and  C_30
REMARK   10  A    between atoms: C_43  and  O_46
REMARK                            x       y       z     vdW  Elec       q    Type
REMARK                         _______ _______ _______ _____ _____    ______ ____
ROOT
ATOM      1  C   UNL     1     143.853 164.227 187.338  0.00  0.00    -0.022 C 
ATOM      2  C   UNL     1     143.085 165.252 186.471  0.00  0.00    -0.010 C 
ATOM      3  C   UNL     1     142.156 166.154 187.301  0.00  0.00    +0.101 C 
ATOM      4  O   UNL     1     142.945 167.268 187.776  0.00  0.00    -0.462 OA
ATOM      5  C   UNL     1     142.490 167.907 188.891  0.00  0.00    +0.309 C 
ATOM      6  O   UNL     1     141.537 167.553 189.569  0.00  0.00    -0.251 OA
ATOM      7  C   UNL     1     143.242 169.198 189.089  0.00  0.00    +0.067 C 
ATOM      8  C   UNL     1     143.730 169.367 190.531  0.00  0.00    +0.058 C 
ATOM      9  N   UNL     1     145.054 168.786 190.699  0.00  0.00    -0.306 N 
ATOM     10  C   UNL     1     145.312 167.664 191.459  0.00  0.00    +0.234 C 
ATOM     11  O   UNL     1     144.450 167.123 192.148  0.00  0.00    -0.274 OA
ATOM     12  C   UNL     1     146.815 167.288 191.519  0.00  0.00    +0.106 C 
ATOM     13  N   UNL     1     147.555 167.678 190.283  0.00  0.00    -0.291 N 
ATOM     14  C   UNL     1     147.178 167.076 189.087  0.00  0.00    +0.236 C 
ATOM     15  O   UNL     1     146.132 166.422 189.018  0.00  0.00    -0.274 OA
ATOM     16  C   UNL     1     148.022 167.298 187.814  0.00  0.00    +0.097 C 
ATOM     17  N   UNL     1     147.716 166.204 186.892  0.00  0.00    -0.304 N 
ATOM     18  C   UNL     1     148.635 165.267 186.489  0.00  0.00    +0.217 C 
ATOM     19  O   UNL     1     149.808 165.289 186.847  0.00  0.00    -0.275 OA
ATOM     20  C   UNL     1     148.064 164.207 185.545  0.00  0.00    +0.036 C 
ATOM     21  C   UNL     1     147.465 163.018 186.320  0.00  0.00    -0.021 C 
ATOM     22  C   UNL     1     146.255 163.358 187.172  0.00  0.00    -0.076 C 
ATOM     23  C   UNL     1     145.095 163.753 186.608  0.00  0.00    -0.082 C 
ATOM     24  H   UNL     1     144.147 164.728 188.268  0.00  0.00    +0.034 HD
ATOM     25  H   UNL     1     142.508 164.707 185.713  0.00  0.00    +0.031 HD
ATOM     26  H   UNL     1     143.802 165.887 185.932  0.00  0.00    +0.031 HD
ATOM     27  H   UNL     1     141.723 165.599 188.140  0.00  0.00    +0.073 HD
ATOM     28  H   UNL     1     144.081 169.250 188.382  0.00  0.00    +0.040 HD
ATOM     29  H   UNL     1     142.537 169.990 188.805  0.00  0.00    +0.040 HD
ATOM     30  H   UNL     1     143.034 168.863 191.211  0.00  0.00    +0.055 HD
ATOM     31  H   UNL     1     145.840 169.214 190.229  0.00  0.00    +0.149 HD
ATOM     32  H   UNL     1     147.202 167.931 192.323  0.00  0.00    +0.060 HD
ATOM     33  H   UNL     1     149.085 167.267 188.062  0.00  0.00    +0.059 HD
ATOM     34  H   UNL     1     146.730 166.000 186.755  0.00  0.00    +0.149 HD
ATOM     35  H   UNL     1     147.291 164.680 184.926  0.00  0.00    +0.039 HD
ATOM     36  H   UNL     1     148.243 162.569 186.953  0.00  0.00    +0.032 HD
ATOM     37  H   UNL     1     147.170 162.230 185.613  0.00  0.00    +0.032 HD
ATOM     38  H   UNL     1     145.030 163.765 185.520  0.00  0.00    +0.057 HD
ENDROOT
BRANCH   8  39
ATOM     39  C   UNL     1     143.822 170.833 190.935  0.00  0.00    -0.026 A 
ATOM     40  C   UNL     1     142.679 171.605 191.206  0.00  0.00    -0.053 A 
ATOM     41  C   UNL     1     142.797 172.954 191.548  0.00  0.00    -0.020 A 
ATOM     42  C   UNL     1     144.054 173.541 191.613  0.00  0.00    +0.117 A 
ATOM     43  C   UNL     1     145.199 172.803 191.337  0.00  0.00    -0.020 A 
ATOM     44  C   UNL     1     145.081 171.454 190.995  0.00  0.00    -0.053 A 
ATOM     45  H   UNL     1     141.685 171.167 191.152  0.00  0.00    +0.062 HD
ATOM     46  H   UNL     1     141.911 173.545 191.763  0.00  0.00    +0.065 HD
ATOM     47  H   UNL     1     146.186 173.254 191.380  0.00  0.00    +0.065 HD
ATOM     48  H   UNL     1     145.983 170.884 190.768  0.00  0.00    +0.062 HD
BRANCH  42  49
ATOM     49  O   UNL     1     144.122 174.859 191.952  0.00  0.00    -0.507 OA
ATOM     50  H   UNL     1     145.026 175.056 192.246  0.00  0.00    +0.292 HD
ENDBRANCH  42  49
ENDBRANCH   8  39
BRANCH   1  51
ATOM     51  C   UNL     1     142.963 163.027 187.681  0.00  0.00    -0.059 C 
ATOM     52  H   UNL     1     142.350 162.733 186.821  0.00  0.00    +0.024 HD
ATOM     53  H   UNL     1     142.284 163.256 188.510  0.00  0.00    +0.024 HD
ATOM     54  H   UNL     1     143.562 162.158 187.967  0.00  0.00    +0.024 HD
ENDBRANCH   1  51
BRANCH  22  55
ATOM     55  C   UNL     1     146.470 163.201 188.655  0.00  0.00    -0.044 C 
ATOM     56  H   UNL     1     147.297 163.800 189.045  0.00  0.00    +0.027 HD
ATOM     57  H   UNL     1     145.568 163.507 189.195  0.00  0.00    +0.027 HD
ATOM     58  H   UNL     1     146.675 162.156 188.895  0.00  0.00    +0.027 HD
ENDBRANCH  22  55
BRANCH  20  59
ATOM     59  C   UNL     1     149.165 163.712 184.604  0.00  0.00    -0.054 C 
ATOM     60  H   UNL     1     149.791 162.951 185.083  0.00  0.00    +0.024 HD
ATOM     61  H   UNL     1     149.818 164.538 184.302  0.00  0.00    +0.024 HD
ATOM     62  H   UNL     1     148.733 163.275 183.697  0.00  0.00    +0.024 HD
ENDBRANCH  20  59
BRANCH  16  63
ATOM     63  C   UNL     1     147.647 168.625 187.167  0.00  0.00    -0.038 C 
ATOM     64  H   UNL     1     147.430 169.396 187.913  0.00  0.00    +0.025 HD
ATOM     65  H   UNL     1     148.459 168.988 186.529  0.00  0.00    +0.025 HD
ATOM     66  H   UNL     1     146.754 168.521 186.540  0.00  0.00    +0.025 HD
ENDBRANCH  16  63
BRANCH  13  67
ATOM     67  C   UNL     1     148.736 168.513 190.470  0.00  0.00    +0.004 C 
ATOM     68  H   UNL     1     148.523 169.438 191.001  0.00  0.00    +0.043 HD
ATOM     69  H   UNL     1     149.471 167.946 191.049  0.00  0.00    +0.043 HD
ATOM     70  H   UNL     1     149.161 168.761 189.495  0.00  0.00    +0.043 HD
ENDBRANCH  13  67
BRANCH   3  71
ATOM     71  C   UNL     1     141.038 166.713 186.422  0.00  0.00    -0.028 C 
ATOM     72  H   UNL     1     141.441 167.379 185.653  0.00  0.00    +0.027 HD
ATOM     73  H   UNL     1     140.311 167.274 187.016  0.00  0.00    +0.027 HD
ATOM     74  H   UNL     1     140.516 165.906 185.896  0.00  0.00    +0.027 HD
ENDBRANCH   3  71
BRANCH  12  75
ATOM     75  C   UNL     1     147.022 165.815 191.931  0.00  0.00    +0.003 C 
ATOM     76  H   UNL     1     146.945 165.149 191.064  0.00  0.00    +0.034 HD
ATOM     77  H   UNL     1     146.224 165.489 192.608  0.00  0.00    +0.034 HD
BRANCH  75  78
ATOM     78  C   UNL     1     148.343 165.580 192.617  0.00  0.00    -0.006 A 
ATOM     79  C   UNL     1     149.494 165.066 192.057  0.00  0.00    +0.087 A 
ATOM     80  N   UNL     1     150.472 165.020 193.004  0.00  0.00    -0.349 N 
ATOM     81  C   UNL     1     149.986 165.470 194.207  0.00  0.00    +0.048 A 
ATOM     82  C   UNL     1     150.617 165.579 195.452  0.00  0.00    -0.038 A 
ATOM     83  C   UNL     1     149.864 166.073 196.521  0.00  0.00    -0.060 A 
ATOM     84  C   UNL     1     148.536 166.447 196.347  0.00  0.00    -0.061 A 
ATOM     85  C   UNL     1     147.925 166.339 195.094  0.00  0.00    -0.052 A 
ATOM     86  C   UNL     1     148.655 165.839 193.995  0.00  0.00    +0.004 A 
ATOM     87 BR   UNL     1     149.745 164.490 190.262  0.00  0.00    -0.031 Br
ATOM     88  H   UNL     1     151.414 164.692 192.846  0.00  0.00    +0.166 HD
ATOM     89  H   UNL     1     151.654 165.289 195.592  0.00  0.00    +0.064 HD
ATOM     90  H   UNL     1     150.323 166.168 197.504  0.00  0.00    +0.062 HD
ATOM     91  H   UNL     1     147.959 166.826 197.189  0.00  0.00    +0.062 HD
ATOM     92  H   UNL     1     146.887 166.636 194.984  0.00  0.00    +0.062 HD
ENDBRANCH  75  78
ENDBRANCH  12  75
TORSDOF 10
ENDMDL
MODEL 3
REMARK VINA RESULT:      -6.6      2.618      6.989
REMARK  Name = Jasplakinolide_conf3
REMARK  10 active torsions:
REMARK  status: ('A' for Active; 'I' for Inactive)
REMARK    1  A    between atoms: C_1  and  C_2
REMARK    2  A    between atoms: C_4  and  C_47
REMARK    3  A    between atoms: C_9  and  C_40
REMARK    4  A    between atoms: C_13  and  C_29
REMARK    5  A    between atoms: N_14  and  C_28
REMARK    6  A    between atoms: C_17  and  C_27
REMARK    7  A    between atoms: C_21  and  C_26
REMARK    8  A    between atoms: C_23  and  C_25
REMARK    9  A    between atoms: C_29  and  C_30
REMARK   10  A    between atoms: C_43  and  O_46
REMARK                            x       y       z     vdW  Elec       q    Type
REMARK                         _______ _______ _______ _____ _____    ______ ____
ROOT
ATOM      1  C   UNL     1     143.558 164.959 188.242  0.00  0.00    -0.022 C 
ATOM      2  C   UNL     1     142.920 166.213 187.599  0.00  0.00    -0.010 C 
ATOM      3  C   UNL     1     142.657 167.333 188.619  0.00  0.00    +0.101 C 
ATOM      4  O   UNL     1     143.871 168.109 188.735  0.00  0.00    -0.462 OA
ATOM      5  C   UNL     1     144.037 168.815 189.889  0.00  0.00    +0.309 C 
ATOM      6  O   UNL     1     143.299 168.763 190.861  0.00  0.00    -0.251 OA
ATOM      7  C   UNL     1     145.184 169.781 189.742  0.00  0.00    +0.067 C 
ATOM      8  C   UNL     1     146.145 169.721 190.934  0.00  0.00    +0.058 C 
ATOM      9  N   UNL     1     147.190 168.734 190.706  0.00  0.00    -0.306 N 
ATOM     10  C   UNL     1     147.308 167.559 191.419  0.00  0.00    +0.234 C 
ATOM     11  O   UNL     1     146.595 167.301 192.385  0.00  0.00    -0.274 OA
ATOM     12  C   UNL     1     148.543 166.712 191.017  0.00  0.00    +0.106 C 
ATOM     13  N   UNL     1     148.920 166.891 189.584  0.00  0.00    -0.291 N 
ATOM     14  C   UNL     1     148.000 166.494 188.619  0.00  0.00    +0.236 C 
ATOM     15  O   UNL     1     146.838 166.220 188.938  0.00  0.00    -0.274 OA
ATOM     16  C   UNL     1     148.404 166.481 187.130  0.00  0.00    +0.097 C 
ATOM     17  N   UNL     1     147.479 165.585 186.435  0.00  0.00    -0.304 N 
ATOM     18  C   UNL     1     147.863 164.417 185.824  0.00  0.00    +0.217 C 
ATOM     19  O   UNL     1     149.030 164.041 185.782  0.00  0.00    -0.275 OA
ATOM     20  C   UNL     1     146.706 163.641 185.191  0.00  0.00    +0.036 C 
ATOM     21  C   UNL     1     146.046 162.681 186.200  0.00  0.00    -0.021 C 
ATOM     22  C   UNL     1     145.359 163.362 187.370  0.00  0.00    -0.076 C 
ATOM     23  C   UNL     1     144.270 164.136 187.185  0.00  0.00    -0.082 C 
ATOM     24  H   UNL     1     144.285 165.297 188.989  0.00  0.00    +0.034 HD
ATOM     25  H   UNL     1     141.984 165.917 187.108  0.00  0.00    +0.031 HD
ATOM     26  H   UNL     1     143.585 166.602 186.815  0.00  0.00    +0.031 HD
ATOM     27  H   UNL     1     142.369 166.915 189.590  0.00  0.00    +0.073 HD
ATOM     28  H   UNL     1     145.715 169.586 188.801  0.00  0.00    +0.040 HD
ATOM     29  H   UNL     1     144.719 170.771 189.646  0.00  0.00    +0.040 HD
ATOM     30  H   UNL     1     145.588 169.445 191.837  0.00  0.00    +0.055 HD
ATOM     31  H   UNL     1     147.871 168.902 189.979  0.00  0.00    +0.149 HD
ATOM     32  H   UNL     1     149.356 167.161 191.606  0.00  0.00    +0.060 HD
ATOM     33  H   UNL     1     149.420 166.094 187.022  0.00  0.00    +0.059 HD
ATOM     34  H   UNL     1     146.492 165.720 186.638  0.00  0.00    +0.149 HD
ATOM     35  H   UNL     1     145.968 164.366 184.823  0.00  0.00    +0.039 HD
ATOM     36  H   UNL     1     146.800 161.978 186.577  0.00  0.00    +0.032 HD
ATOM     37  H   UNL     1     145.299 162.063 185.683  0.00  0.00    +0.032 HD
ATOM     38  H   UNL     1     143.860 164.214 186.178  0.00  0.00    +0.057 HD
ENDROOT
BRANCH   8  39
ATOM     39  C   UNL     1     146.830 171.060 191.183  0.00  0.00    -0.026 A 
ATOM     40  C   UNL     1     148.228 171.198 191.159  0.00  0.00    -0.053 A 
ATOM     41  C   UNL     1     148.825 172.433 191.418  0.00  0.00    -0.020 A 
ATOM     42  C   UNL     1     148.031 173.534 191.711  0.00  0.00    +0.117 A 
ATOM     43  C   UNL     1     146.647 173.422 191.754  0.00  0.00    -0.020 A 
ATOM     44  C   UNL     1     146.049 172.185 191.495  0.00  0.00    -0.053 A 
ATOM     45  H   UNL     1     148.870 170.347 190.939  0.00  0.00    +0.062 HD
ATOM     46  H   UNL     1     149.906 172.537 191.391  0.00  0.00    +0.065 HD
ATOM     47  H   UNL     1     146.017 174.275 191.988  0.00  0.00    +0.065 HD
ATOM     48  H   UNL     1     144.964 172.102 191.543  0.00  0.00    +0.062 HD
BRANCH  42  49
ATOM     49  O   UNL     1     148.656 174.720 191.956  0.00  0.00    -0.507 OA
ATOM     50  H   UNL     1     149.539 174.694 191.550  0.00  0.00    +0.292 HD
ENDBRANCH  42  49
ENDBRANCH   8  39
BRANCH   1  51
ATOM     51  C   UNL     1     142.495 164.102 188.936  0.00  0.00    -0.059 C 
ATOM     52  H   UNL     1     141.819 164.722 189.537  0.00  0.00    +0.024 HD
ATOM     53  H   UNL     1     142.950 163.362 189.605  0.00  0.00    +0.024 HD
ATOM     54  H   UNL     1     141.881 163.563 188.209  0.00  0.00    +0.024 HD
ENDBRANCH   1  51
BRANCH  22  55
ATOM     55  C   UNL     1     145.986 163.083 188.712  0.00  0.00    -0.044 C 
ATOM     56  H   UNL     1     147.076 163.023 188.684  0.00  0.00    +0.027 HD
ATOM     57  H   UNL     1     145.725 163.879 189.416  0.00  0.00    +0.027 HD
ATOM     58  H   UNL     1     145.612 162.138 189.110  0.00  0.00    +0.027 HD
ENDBRANCH  22  55
BRANCH  20  59
ATOM     59  C   UNL     1     147.216 162.854 183.982  0.00  0.00    -0.054 C 
ATOM     60  H   UNL     1     146.567 162.989 183.110  0.00  0.00    +0.024 HD
ATOM     61  H   UNL     1     147.253 161.781 184.205  0.00  0.00    +0.024 HD
ATOM     62  H   UNL     1     148.226 163.175 183.707  0.00  0.00    +0.024 HD
ENDBRANCH  20  59
BRANCH  16  63
ATOM     63  C   UNL     1     148.285 167.884 186.547  0.00  0.00    -0.038 C 
ATOM     64  H   UNL     1     148.722 167.949 185.546  0.00  0.00    +0.025 HD
ATOM     65  H   UNL     1     147.235 168.187 186.482  0.00  0.00    +0.025 HD
ATOM     66  H   UNL     1     148.804 168.618 187.175  0.00  0.00    +0.025 HD
ENDBRANCH  16  63
BRANCH  13  67
ATOM     67  C   UNL     1     150.299 167.286 189.321  0.00  0.00    +0.004 C 
ATOM     68  H   UNL     1     151.022 166.529 189.618  0.00  0.00    +0.043 HD
ATOM     69  H   UNL     1     150.409 167.463 188.247  0.00  0.00    +0.043 HD
ATOM     70  H   UNL     1     150.519 168.209 189.861  0.00  0.00    +0.043 HD
ENDBRANCH  13  67
BRANCH   3  71
ATOM     71  C   UNL     1     141.554 168.262 188.111  0.00  0.00    -0.028 C 
ATOM     72  H   UNL     1     140.708 167.686 187.722  0.00  0.00    +0.027 HD
ATOM     73  H   UNL     1     141.922 168.914 187.313  0.00  0.00    +0.027 HD
ATOM     74  H   UNL     1     141.163 168.884 188.923  0.00  0.00    +0.027 HD
ENDBRANCH   3  71
BRANCH  12  75
ATOM     75  C   UNL     1     148.389 165.236 191.442  0.00  0.00    +0.003 C 
ATOM     76  H   UNL     1     148.348 164.577 190.568  0.00  0.00    +0.034 HD
ATOM     77  H   UNL     1     147.434 165.082 191.957  0.00  0.00    +0.034 HD
BRANCH  75  78
ATOM     78  C   UNL     1     149.493 164.774 192.357  0.00  0.00    -0.006 A 
ATOM     79  C   UNL     1     150.498 163.876 192.063  0.00  0.00    +0.087 A 
ATOM     80  N   UNL     1     151.303 163.731 193.153  0.00  0.00    -0.349 N 
ATOM     81  C   UNL     1     150.835 164.499 194.191  0.00  0.00    +0.048 A 
ATOM     82  C   UNL     1     151.323 164.647 195.495  0.00  0.00    -0.038 A 
ATOM     83  C   UNL     1     150.630 165.506 196.353  0.00  0.00    -0.060 A 
ATOM     84  C   UNL     1     149.501 166.192 195.919  0.00  0.00    -0.061 A 
ATOM     85  C   UNL     1     149.034 166.038 194.610  0.00  0.00    -0.052 A 
ATOM     86  C   UNL     1     149.706 165.174 193.720  0.00  0.00    +0.004 A 
ATOM     87 BR   UNL     1     150.774 162.949 190.425  0.00  0.00    -0.031 Br
ATOM     88  H   UNL     1     152.118 163.136 193.194  0.00  0.00    +0.166 HD
ATOM     89  H   UNL     1     152.204 164.115 195.837  0.00  0.00    +0.064 HD
ATOM     90  H   UNL     1     150.980 165.642 197.375  0.00  0.00    +0.062 HD
ATOM     91  H   UNL     1     148.968 166.855 196.599  0.00  0.00    +0.062 HD
ATOM     92  H   UNL     1     148.150 166.582 194.296  0.00  0.00    +0.062 HD
ENDBRANCH  75  78
ENDBRANCH  12  75
TORSDOF 10
ENDMDL
MODEL 4
REMARK VINA RESULT:      -6.6      3.024      7.672
REMARK  Name = Jasplakinolide_conf3
REMARK  10 active torsions:
REMARK  status: ('A' for Active; 'I' for Inactive)
REMARK    1  A    between atoms: C_1  and  C_2
REMARK    2  A    between atoms: C_4  and  C_47
REMARK    3  A    between atoms: C_9  and  C_40
REMARK    4  A    between atoms: C_13  and  C_29
REMARK    5  A    between atoms: N_14  and  C_28
REMARK    6  A    between atoms: C_17  and  C_27
REMARK    7  A    between atoms: C_21  and  C_26
REMARK    8  A    between atoms: C_23  and  C_25
REMARK    9  A    between atoms: C_29  and  C_30
REMARK   10  A    between atoms: C_43  and  O_46
REMARK                            x       y       z     vdW  Elec       q    Type
REMARK                         _______ _______ _______ _____ _____    ______ ____
ROOT
ATOM      1  C   UNL     1     146.606 169.047 186.512  0.00  0.00    -0.022 C 
ATOM      2  C   UNL     1     145.757 168.140 185.591  0.00  0.00    -0.010 C 
ATOM      3  C   UNL     1     146.408 166.767 185.348  0.00  0.00    +0.101 C 
ATOM      4  O   UNL     1     146.011 165.900 186.435  0.00  0.00    -0.462 OA
ATOM      5  C   UNL     1     146.823 164.837 186.695  0.00  0.00    +0.309 C 
ATOM      6  O   UNL     1     147.898 164.620 186.156  0.00  0.00    -0.251 OA
ATOM      7  C   UNL     1     146.138 163.885 187.642  0.00  0.00    +0.067 C 
ATOM      8  C   UNL     1     147.053 163.461 188.795  0.00  0.00    +0.058 C 
ATOM      9  N   UNL     1     146.925 164.377 189.919  0.00  0.00    -0.306 N 
ATOM     10  C   UNL     1     147.926 165.231 190.334  0.00  0.00    +0.234 C 
ATOM     11  O   UNL     1     149.055 165.208 189.849  0.00  0.00    -0.274 OA
ATOM     12  C   UNL     1     147.553 166.059 191.591  0.00  0.00    +0.106 C 
ATOM     13  N   UNL     1     146.090 166.342 191.679  0.00  0.00    -0.291 N 
ATOM     14  C   UNL     1     145.519 167.114 190.672  0.00  0.00    +0.236 C 
ATOM     15  O   UNL     1     146.150 167.360 189.639  0.00  0.00    -0.274 OA
ATOM     16  C   UNL     1     144.059 167.593 190.805  0.00  0.00    +0.097 C 
ATOM     17  N   UNL     1     143.895 168.743 189.915  0.00  0.00    -0.304 N 
ATOM     18  C   UNL     1     143.611 170.013 190.355  0.00  0.00    +0.217 C 
ATOM     19  O   UNL     1     143.438 170.284 191.539  0.00  0.00    -0.275 OA
ATOM     20  C   UNL     1     143.517 171.049 189.233  0.00  0.00    +0.036 C 
ATOM     21  C   UNL     1     144.892 171.665 188.911  0.00  0.00    -0.021 C 
ATOM     22  C   UNL     1     145.911 170.690 188.348  0.00  0.00    -0.076 C 
ATOM     23  C   UNL     1     145.732 170.116 187.140  0.00  0.00    -0.082 C 
ATOM     24  H   UNL     1     147.036 168.419 187.300  0.00  0.00    +0.034 HD
ATOM     25  H   UNL     1     145.597 168.659 184.638  0.00  0.00    +0.031 HD
ATOM     26  H   UNL     1     144.767 167.983 186.042  0.00  0.00    +0.031 HD
ATOM     27  H   UNL     1     147.499 166.857 185.301  0.00  0.00    +0.073 HD
ATOM     28  H   UNL     1     145.215 164.340 188.021  0.00  0.00    +0.040 HD
ATOM     29  H   UNL     1     145.841 163.027 187.025  0.00  0.00    +0.040 HD
ATOM     30  H   UNL     1     148.094 163.464 188.453  0.00  0.00    +0.055 HD
ATOM     31  H   UNL     1     146.053 164.408 190.429  0.00  0.00    +0.149 HD
ATOM     32  H   UNL     1     147.782 165.373 192.419  0.00  0.00    +0.060 HD
ATOM     33  H   UNL     1     143.861 167.908 191.832  0.00  0.00    +0.059 HD
ATOM     34  H   UNL     1     144.253 168.630 188.971  0.00  0.00    +0.149 HD
ATOM     35  H   UNL     1     143.109 170.554 188.342  0.00  0.00    +0.039 HD
ATOM     36  H   UNL     1     145.299 172.136 189.816  0.00  0.00    +0.032 HD
ATOM     37  H   UNL     1     144.768 172.480 188.185  0.00  0.00    +0.032 HD
ATOM     38  H   UNL     1     144.864 170.415 186.552  0.00  0.00    +0.057 HD
ENDROOT
BRANCH   8  39
ATOM     39  C   UNL     1     146.718 162.065 189.306  0.00  0.00    -0.026 A 
ATOM     40  C   UNL     1     145.498 161.434 189.007  0.00  0.00    -0.053 A 
ATOM     41  C   UNL     1     145.211 160.165 189.514  0.00  0.00    -0.020 A 
ATOM     42  C   UNL     1     146.135 159.523 190.328  0.00  0.00    +0.117 A 
ATOM     43  C   UNL     1     147.343 160.130 190.649  0.00  0.00    -0.020 A 
ATOM     44  C   UNL     1     147.630 161.401 190.143  0.00  0.00    -0.053 A 
ATOM     45  H   UNL     1     144.756 161.922 188.379  0.00  0.00    +0.062 HD
ATOM     46  H   UNL     1     144.270 159.678 189.275  0.00  0.00    +0.065 HD
ATOM     47  H   UNL     1     148.070 159.640 191.290  0.00  0.00    +0.065 HD
ATOM     48  H   UNL     1     148.575 161.876 190.409  0.00  0.00    +0.062 HD
BRANCH  42  49
ATOM     49  O   UNL     1     145.814 158.285 190.799  0.00  0.00    -0.507 OA
ATOM     50  H   UNL     1     146.433 158.056 191.512  0.00  0.00    +0.292 HD
ENDBRANCH  42  49
ENDBRANCH   8  39
BRANCH   1  51
ATOM     51  C   UNL     1     147.746 169.706 185.727  0.00  0.00    -0.059 C 
ATOM     52  H   UNL     1     148.112 170.603 186.241  0.00  0.00    +0.024 HD
ATOM     53  H   UNL     1     147.420 170.008 184.725  0.00  0.00    +0.024 HD
ATOM     54  H   UNL     1     148.595 169.026 185.614  0.00  0.00    +0.024 HD
ENDBRANCH   1  51
BRANCH  22  55
ATOM     55  C   UNL     1     147.104 170.450 189.236  0.00  0.00    -0.044 C 
ATOM     56  H   UNL     1     148.057 170.448 188.701  0.00  0.00    +0.027 HD
ATOM     57  H   UNL     1     147.163 171.233 189.999  0.00  0.00    +0.027 HD
ATOM     58  H   UNL     1     147.006 169.488 189.741  0.00  0.00    +0.027 HD
ENDBRANCH  22  55
BRANCH  20  59
ATOM     59  C   UNL     1     142.535 172.151 189.634  0.00  0.00    -0.054 C 
ATOM     60  H   UNL     1     141.556 171.740 189.905  0.00  0.00    +0.024 HD
ATOM     61  H   UNL     1     142.381 172.854 188.806  0.00  0.00    +0.024 HD
ATOM     62  H   UNL     1     142.914 172.718 190.490  0.00  0.00    +0.024 HD
ENDBRANCH  20  59
BRANCH  16  63
ATOM     63  C   UNL     1     143.107 166.482 190.377  0.00  0.00    -0.038 C 
ATOM     64  H   UNL     1     142.069 166.710 190.639  0.00  0.00    +0.025 HD
ATOM     65  H   UNL     1     143.159 166.323 189.295  0.00  0.00    +0.025 HD
ATOM     66  H   UNL     1     143.363 165.534 190.864  0.00  0.00    +0.025 HD
ENDBRANCH  16  63
BRANCH  13  67
ATOM     67  C   UNL     1     145.426 165.945 192.915  0.00  0.00    +0.004 C 
ATOM     68  H   UNL     1     146.121 165.602 193.679  0.00  0.00    +0.043 HD
ATOM     69  H   UNL     1     144.883 166.810 193.308  0.00  0.00    +0.043 HD
ATOM     70  H   UNL     1     144.717 165.142 192.703  0.00  0.00    +0.043 HD
ENDBRANCH  13  67
BRANCH   3  71
ATOM     71  C   UNL     1     145.886 166.158 184.048  0.00  0.00    -0.028 C 
ATOM     72  H   UNL     1     146.311 166.670 183.178  0.00  0.00    +0.027 HD
ATOM     73  H   UNL     1     144.795 166.228 183.987  0.00  0.00    +0.027 HD
ATOM     74  H   UNL     1     146.177 165.105 183.965  0.00  0.00    +0.027 HD
ENDBRANCH   3  71
BRANCH  12  75
ATOM     75  C   UNL     1     148.440 167.314 191.736  0.00  0.00    +0.003 C 
ATOM     76  H   UNL     1     147.882 168.141 192.187  0.00  0.00    +0.034 HD
ATOM     77  H   UNL     1     148.746 167.684 190.750  0.00  0.00    +0.034 HD
BRANCH  75  78
ATOM     78  C   UNL     1     149.684 167.059 192.546  0.00  0.00    -0.006 A 
ATOM     79  C   UNL     1     150.992 167.203 192.134  0.00  0.00    +0.087 A 
ATOM     80  N   UNL     1     151.826 166.883 193.164  0.00  0.00    -0.349 N 
ATOM     81  C   UNL     1     151.094 166.495 194.259  0.00  0.00    +0.048 A 
ATOM     82  C   UNL     1     151.520 166.062 195.521  0.00  0.00    -0.038 A 
ATOM     83  C   UNL     1     150.538 165.720 196.455  0.00  0.00    -0.060 A 
ATOM     84  C   UNL     1     149.187 165.813 196.139  0.00  0.00    -0.061 A 
ATOM     85  C   UNL     1     148.781 166.256 194.875  0.00  0.00    -0.052 A 
ATOM     86  C   UNL     1     149.746 166.603 193.908  0.00  0.00    +0.004 A 
ATOM     87 BR   UNL     1     151.607 167.752 190.419  0.00  0.00    -0.031 Br
ATOM     88  H   UNL     1     152.834 166.917 193.122  0.00  0.00    +0.166 HD
ATOM     89  H   UNL     1     152.573 165.989 195.772  0.00  0.00    +0.064 HD
ATOM     90  H   UNL     1     150.834 165.377 197.445  0.00  0.00    +0.062 HD
ATOM     91  H   UNL     1     148.432 165.539 196.874  0.00  0.00    +0.062 HD
ATOM     92  H   UNL     1     147.721 166.318 194.652  0.00  0.00    +0.062 HD
ENDBRANCH  75  78
ENDBRANCH  12  75
TORSDOF 10
ENDMDL
MODEL 5
REMARK VINA RESULT:      -6.6      1.162      2.205
REMARK  Name = Jasplakinolide_conf3
REMARK  10 active torsions:
REMARK  status: ('A' for Active; 'I' for Inactive)
REMARK    1  A    between atoms: C_1  and  C_2
REMARK    2  A    between atoms: C_4  and  C_47
REMARK    3  A    between atoms: C_9  and  C_40
REMARK    4  A    between atoms: C_13  and  C_29
REMARK    5  A    between atoms: N_14  and  C_28
REMARK    6  A    between atoms: C_17  and  C_27
REMARK    7  A    between atoms: C_21  and  C_26
REMARK    8  A    between atoms: C_23  and  C_25
REMARK    9  A    between atoms: C_29  and  C_30
REMARK   10  A    between atoms: C_43  and  O_46
REMARK                            x       y       z     vdW  Elec       q    Type
REMARK                         _______ _______ _______ _____ _____    ______ ____
ROOT
ATOM      1  C   UNL     1     150.588 170.179 191.863  0.00  0.00    -0.022 C 
ATOM      2  C   UNL     1     149.746 171.081 192.797  0.00  0.00    -0.010 C 
ATOM      3  C   UNL     1     148.709 171.921 192.032  0.00  0.00    +0.101 C 
ATOM      4  O   UNL     1     147.522 171.111 191.877  0.00  0.00    -0.462 OA
ATOM      5  C   UNL     1     146.689 171.438 190.848  0.00  0.00    +0.309 C 
ATOM      6  O   UNL     1     146.915 172.286 189.998  0.00  0.00    -0.251 OA
ATOM      7  C   UNL     1     145.381 170.704 190.992  0.00  0.00    +0.067 C 
ATOM      8  C   UNL     1     144.945 170.040 189.682  0.00  0.00    +0.058 C 
ATOM      9  N   UNL     1     145.479 168.690 189.584  0.00  0.00    -0.306 N 
ATOM     10  C   UNL     1     146.439 168.306 188.671  0.00  0.00    +0.234 C 
ATOM     11  O   UNL     1     146.846 169.056 187.788  0.00  0.00    -0.274 OA
ATOM     12  C   UNL     1     146.790 166.796 188.741  0.00  0.00    +0.106 C 
ATOM     13  N   UNL     1     146.633 166.232 190.113  0.00  0.00    -0.291 N 
ATOM     14  C   UNL     1     147.449 166.741 191.118  0.00  0.00    +0.236 C 
ATOM     15  O   UNL     1     148.109 167.768 190.928  0.00  0.00    -0.274 OA
ATOM     16  C   UNL     1     147.464 166.074 192.509  0.00  0.00    +0.097 C 
ATOM     17  N   UNL     1     148.711 166.463 193.166  0.00  0.00    -0.304 N 
ATOM     18  C   UNL     1     149.703 165.577 193.508  0.00  0.00    +0.217 C 
ATOM     19  O   UNL     1     149.610 164.368 193.316  0.00  0.00    -0.275 OA
ATOM     20  C   UNL     1     150.923 166.233 194.158  0.00  0.00    +0.036 C 
ATOM     21  C   UNL     1     151.950 166.694 193.106  0.00  0.00    -0.021 C 
ATOM     22  C   UNL     1     151.463 167.794 192.180  0.00  0.00    -0.076 C 
ATOM     23  C   UNL     1     151.185 169.028 192.650  0.00  0.00    -0.082 C 
ATOM     24  H   UNL     1     149.922 169.783 191.088  0.00  0.00    +0.034 HD
ATOM     25  H   UNL     1     150.425 171.735 193.359  0.00  0.00    +0.031 HD
ATOM     26  H   UNL     1     149.218 170.458 193.532  0.00  0.00    +0.031 HD
ATOM     27  H   UNL     1     149.101 172.228 191.056  0.00  0.00    +0.073 HD
ATOM     28  H   UNL     1     145.458 169.964 191.799  0.00  0.00    +0.040 HD
ATOM     29  H   UNL     1     144.659 171.462 191.321  0.00  0.00    +0.040 HD
ATOM     30  H   UNL     1     145.317 170.629 188.835  0.00  0.00    +0.055 HD
ATOM     31  H   UNL     1     145.142 167.983 190.224  0.00  0.00    +0.149 HD
ATOM     32  H   UNL     1     146.007 166.329 188.126  0.00  0.00    +0.060 HD
ATOM     33  H   UNL     1     147.444 164.987 192.402  0.00  0.00    +0.059 HD
ATOM     34  H   UNL     1     148.942 167.453 193.134  0.00  0.00    +0.149 HD
ATOM     35  H   UNL     1     150.576 167.092 194.747  0.00  0.00    +0.039 HD
ATOM     36  H   UNL     1     152.269 165.829 192.509  0.00  0.00    +0.032 HD
ATOM     37  H   UNL     1     152.856 167.054 193.612  0.00  0.00    +0.032 HD
ATOM     38  H   UNL     1     151.374 169.232 193.704  0.00  0.00    +0.057 HD
ENDROOT
BRANCH   8  39
ATOM     39  C   UNL     1     143.429 169.940 189.569  0.00  0.00    -0.026 A 
ATOM     40  C   UNL     1     142.580 170.222 190.654  0.00  0.00    -0.053 A 
ATOM     41  C   UNL     1     141.196 170.094 190.525  0.00  0.00    -0.020 A 
ATOM     42  C   UNL     1     140.652 169.676 189.317  0.00  0.00    +0.117 A 
ATOM     43  C   UNL     1     141.469 169.378 188.234  0.00  0.00    -0.020 A 
ATOM     44  C   UNL     1     142.855 169.506 188.363  0.00  0.00    -0.053 A 
ATOM     45  H   UNL     1     142.985 170.543 191.611  0.00  0.00    +0.062 HD
ATOM     46  H   UNL     1     140.543 170.320 191.363  0.00  0.00    +0.065 HD
ATOM     47  H   UNL     1     141.055 169.044 187.287  0.00  0.00    +0.065 HD
ATOM     48  H   UNL     1     143.491 169.259 187.512  0.00  0.00    +0.062 HD
BRANCH  42  49
ATOM     49  O   UNL     1     139.296 169.566 189.236  0.00  0.00    -0.507 OA
ATOM     50  H   UNL     1     139.071 169.116 188.405  0.00  0.00    +0.292 HD
ENDBRANCH  42  49
ENDBRANCH   8  39
BRANCH   1  51
ATOM     51  C   UNL     1     151.707 170.984 191.193  0.00  0.00    -0.059 C 
ATOM     52  H   UNL     1     152.525 170.328 190.872  0.00  0.00    +0.024 HD
ATOM     53  H   UNL     1     152.128 171.731 191.875  0.00  0.00    +0.024 HD
ATOM     54  H   UNL     1     151.342 171.508 190.305  0.00  0.00    +0.024 HD
ENDBRANCH   1  51
BRANCH  22  55
ATOM     55  C   UNL     1     151.340 167.387 190.735  0.00  0.00    -0.044 C 
ATOM     56  H   UNL     1     151.975 166.542 190.460  0.00  0.00    +0.027 HD
ATOM     57  H   UNL     1     150.306 167.098 190.517  0.00  0.00    +0.027 HD
ATOM     58  H   UNL     1     151.604 168.225 190.087  0.00  0.00    +0.027 HD
ENDBRANCH  22  55
BRANCH  20  59
ATOM     59  C   UNL     1     151.579 165.248 195.128  0.00  0.00    -0.054 C 
ATOM     60  H   UNL     1     151.564 165.626 196.156  0.00  0.00    +0.024 HD
ATOM     61  H   UNL     1     152.626 165.074 194.854  0.00  0.00    +0.024 HD
ATOM     62  H   UNL     1     151.062 164.283 195.112  0.00  0.00    +0.024 HD
ENDBRANCH  20  59
BRANCH  16  63
ATOM     63  C   UNL     1     146.281 166.566 193.334  0.00  0.00    -0.038 C 
ATOM     64  H   UNL     1     145.334 166.450 192.800  0.00  0.00    +0.025 HD
ATOM     65  H   UNL     1     146.211 166.013 194.277  0.00  0.00    +0.025 HD
ATOM     66  H   UNL     1     146.387 167.629 193.581  0.00  0.00    +0.025 HD
ENDBRANCH  16  63
BRANCH  13  67
ATOM     67  C   UNL     1     145.773 165.061 190.239  0.00  0.00    +0.004 C 
ATOM     68  H   UNL     1     144.987 165.189 190.980  0.00  0.00    +0.043 HD
ATOM     69  H   UNL     1     145.304 164.872 189.269  0.00  0.00    +0.043 HD
ATOM     70  H   UNL     1     146.379 164.197 190.518  0.00  0.00    +0.043 HD
ENDBRANCH  13  67
BRANCH   3  71
ATOM     71  C   UNL     1     148.329 173.159 192.845  0.00  0.00    -0.028 C 
ATOM     72  H   UNL     1     148.307 174.051 192.211  0.00  0.00    +0.027 HD
ATOM     73  H   UNL     1     149.040 173.333 193.657  0.00  0.00    +0.027 HD
ATOM     74  H   UNL     1     147.325 173.052 193.271  0.00  0.00    +0.027 HD
ENDBRANCH   3  71
BRANCH  12  75
ATOM     75  C   UNL     1     148.160 166.496 188.096  0.00  0.00    +0.003 C 
ATOM     76  H   UNL     1     148.975 166.655 188.811  0.00  0.00    +0.034 HD
ATOM     77  H   UNL     1     148.362 167.197 187.278  0.00  0.00    +0.034 HD
BRANCH  75  78
ATOM     78  C   UNL     1     148.253 165.097 187.546  0.00  0.00    -0.006 A 
ATOM     79  C   UNL     1     148.875 164.012 188.127  0.00  0.00    +0.087 A 
ATOM     80  N   UNL     1     148.728 162.924 187.320  0.00  0.00    -0.349 N 
ATOM     81  C   UNL     1     148.039 163.270 186.183  0.00  0.00    +0.048 A 
ATOM     82  C   UNL     1     147.678 162.493 185.075  0.00  0.00    -0.038 A 
ATOM     83  C   UNL     1     146.973 163.121 184.045  0.00  0.00    -0.060 A 
ATOM     84  C   UNL     1     146.638 164.468 184.125  0.00  0.00    -0.061 A 
ATOM     85  C   UNL     1     147.000 165.226 185.244  0.00  0.00    -0.052 A 
ATOM     86  C   UNL     1     147.717 164.624 186.299  0.00  0.00    +0.004 A 
ATOM     87 BR   UNL     1     149.809 163.970 189.784  0.00  0.00    -0.031 Br
ATOM     88  H   UNL     1     149.085 162.001 187.523  0.00  0.00    +0.166 HD
ATOM     89  H   UNL     1     147.936 161.441 185.009  0.00  0.00    +0.064 HD
ATOM     90  H   UNL     1     146.680 162.547 183.167  0.00  0.00    +0.062 HD
ATOM     91  H   UNL     1     146.093 164.947 183.313  0.00  0.00    +0.062 HD
ATOM     92  H   UNL     1     146.729 166.275 185.282  0.00  0.00    +0.062 HD
ENDBRANCH  75  78
ENDBRANCH  12  75
TORSDOF 10
ENDMDL
MODEL 6
REMARK VINA RESULT:      -6.5      5.066      9.270
REMARK  Name = Jasplakinolide_conf3
REMARK  10 active torsions:
REMARK  status: ('A' for Active; 'I' for Inactive)
REMARK    1  A    between atoms: C_1  and  C_2
REMARK    2  A    between atoms: C_4  and  C_47
REMARK    3  A    between atoms: C_9  and  C_40
REMARK    4  A    between atoms: C_13  and  C_29
REMARK    5  A    between atoms: N_14  and  C_28
REMARK    6  A    between atoms: C_17  and  C_27
REMARK    7  A    between atoms: C_21  and  C_26
REMARK    8  A    between atoms: C_23  and  C_25
REMARK    9  A    between atoms: C_29  and  C_30
REMARK   10  A    between atoms: C_43  and  O_46
REMARK                            x       y       z     vdW  Elec       q    Type
REMARK                         _______ _______ _______ _____ _____    ______ ____
ROOT
ATOM      1  C   UNL     1     154.591 162.292 189.024  0.00  0.00    -0.022 C 
ATOM      2  C   UNL     1     154.589 160.866 188.423  0.00  0.00    -0.010 C 
ATOM      3  C   UNL     1     153.896 159.840 189.335  0.00  0.00    +0.101 C 
ATOM      4  O   UNL     1     152.482 159.880 189.039  0.00  0.00    -0.462 OA
ATOM      5  C   UNL     1     151.640 159.443 190.018  0.00  0.00    +0.309 C 
ATOM      6  O   UNL     1     151.977 159.120 191.147  0.00  0.00    -0.251 OA
ATOM      7  C   UNL     1     150.249 159.277 189.465  0.00  0.00    +0.067 C 
ATOM      8  C   UNL     1     149.189 159.918 190.365  0.00  0.00    +0.058 C 
ATOM      9  N   UNL     1     148.969 161.308 189.995  0.00  0.00    -0.306 N 
ATOM     10  C   UNL     1     149.319 162.381 190.788  0.00  0.00    +0.234 C 
ATOM     11  O   UNL     1     149.751 162.244 191.929  0.00  0.00    -0.274 OA
ATOM     12  C   UNL     1     148.922 163.754 190.183  0.00  0.00    +0.106 C 
ATOM     13  N   UNL     1     148.930 163.748 188.691  0.00  0.00    -0.291 N 
ATOM     14  C   UNL     1     150.144 163.517 188.052  0.00  0.00    +0.236 C 
ATOM     15  O   UNL     1     151.120 163.111 188.691  0.00  0.00    -0.274 OA
ATOM     16  C   UNL     1     150.252 163.683 186.522  0.00  0.00    +0.097 C 
ATOM     17  N   UNL     1     151.666 163.875 186.203  0.00  0.00    -0.304 N 
ATOM     18  C   UNL     1     152.175 165.028 185.657  0.00  0.00    +0.217 C 
ATOM     19  O   UNL     1     151.473 165.990 185.359  0.00  0.00    -0.275 OA
ATOM     20  C   UNL     1     153.689 164.995 185.443  0.00  0.00    +0.036 C 
ATOM     21  C   UNL     1     154.452 165.470 186.695  0.00  0.00    -0.021 C 
ATOM     22  C   UNL     1     154.291 164.579 187.914  0.00  0.00    -0.076 C 
ATOM     23  C   UNL     1     154.778 163.320 187.925  0.00  0.00    -0.082 C 
ATOM     24  H   UNL     1     153.623 162.452 189.512  0.00  0.00    +0.034 HD
ATOM     25  H   UNL     1     155.627 160.565 188.231  0.00  0.00    +0.031 HD
ATOM     26  H   UNL     1     154.073 160.878 187.453  0.00  0.00    +0.031 HD
ATOM     27  H   UNL     1     154.079 160.071 190.390  0.00  0.00    +0.073 HD
ATOM     28  H   UNL     1     150.202 159.689 188.449  0.00  0.00    +0.040 HD
ATOM     29  H   UNL     1     150.101 158.192 189.375  0.00  0.00    +0.040 HD
ATOM     30  H   UNL     1     149.526 159.880 191.408  0.00  0.00    +0.055 HD
ATOM     31  H   UNL     1     148.545 161.515 189.101  0.00  0.00    +0.149 HD
ATOM     32  H   UNL     1     147.870 163.864 190.484  0.00  0.00    +0.060 HD
ATOM     33  H   UNL     1     149.692 164.565 186.202  0.00  0.00    +0.059 HD
ATOM     34  H   UNL     1     152.313 163.223 186.636  0.00  0.00    +0.149 HD
ATOM     35  H   UNL     1     153.979 163.966 185.195  0.00  0.00    +0.039 HD
ATOM     36  H   UNL     1     154.135 166.491 186.946  0.00  0.00    +0.032 HD
ATOM     37  H   UNL     1     155.524 165.540 186.467  0.00  0.00    +0.032 HD
ATOM     38  H   UNL     1     155.342 162.979 187.057  0.00  0.00    +0.057 HD
ENDROOT
BRANCH   8  39
ATOM     39  C   UNL     1     147.847 159.204 190.267  0.00  0.00    -0.026 A 
ATOM     40  C   UNL     1     146.626 159.885 190.417  0.00  0.00    -0.053 A 
ATOM     41  C   UNL     1     145.414 159.196 190.348  0.00  0.00    -0.020 A 
ATOM     42  C   UNL     1     145.413 157.823 190.137  0.00  0.00    +0.117 A 
ATOM     43  C   UNL     1     146.606 157.123 189.998  0.00  0.00    -0.020 A 
ATOM     44  C   UNL     1     147.819 157.813 190.068  0.00  0.00    -0.053 A 
ATOM     45  H   UNL     1     146.604 160.959 190.591  0.00  0.00    +0.062 HD
ATOM     46  H   UNL     1     144.473 159.727 190.457  0.00  0.00    +0.065 HD
ATOM     47  H   UNL     1     146.617 156.049 189.839  0.00  0.00    +0.065 HD
ATOM     48  H   UNL     1     148.751 157.257 189.970  0.00  0.00    +0.062 HD
BRANCH  42  49
ATOM     49  O   UNL     1     144.207 157.191 190.075  0.00  0.00    -0.507 OA
ATOM     50  H   UNL     1     143.959 156.911 190.972  0.00  0.00    +0.292 HD
ENDBRANCH  42  49
ENDBRANCH   8  39
BRANCH   1  51
ATOM     51  C   UNL     1     155.704 162.441 190.068  0.00  0.00    -0.059 C 
ATOM     52  H   UNL     1     156.493 163.111 189.709  0.00  0.00    +0.024 HD
ATOM     53  H   UNL     1     156.167 161.476 190.301  0.00  0.00    +0.024 HD
ATOM     54  H   UNL     1     155.319 162.862 191.002  0.00  0.00    +0.024 HD
ENDBRANCH   1  51
BRANCH  22  55
ATOM     55  C   UNL     1     153.573 165.223 189.070  0.00  0.00    -0.044 C 
ATOM     56  H   UNL     1     153.311 164.525 189.869  0.00  0.00    +0.027 HD
ATOM     57  H   UNL     1     154.204 165.999 189.514  0.00  0.00    +0.027 HD
ATOM     58  H   UNL     1     152.650 165.691 188.723  0.00  0.00    +0.027 HD
ENDBRANCH  22  55
BRANCH  20  59
ATOM     59  C   UNL     1     154.058 165.875 184.246  0.00  0.00    -0.054 C 
ATOM     60  H   UNL     1     154.860 165.427 183.649  0.00  0.00    +0.024 HD
ATOM     61  H   UNL     1     154.405 166.860 184.580  0.00  0.00    +0.024 HD
ATOM     62  H   UNL     1     153.192 166.026 183.593  0.00  0.00    +0.024 HD
ENDBRANCH  20  59
BRANCH  16  63
ATOM     63  C   UNL     1     149.741 162.427 185.826  0.00  0.00    -0.038 C 
ATOM     64  H   UNL     1     150.441 161.592 185.926  0.00  0.00    +0.025 HD
ATOM     65  H   UNL     1     148.778 162.117 186.245  0.00  0.00    +0.025 HD
ATOM     66  H   UNL     1     149.596 162.601 184.754  0.00  0.00    +0.025 HD
ENDBRANCH  16  63
BRANCH  13  67
ATOM     67  C   UNL     1     147.701 164.178 188.035  0.00  0.00    +0.004 C 
ATOM     68  H   UNL     1     147.695 165.240 187.797  0.00  0.00    +0.043 HD
ATOM     69  H   UNL     1     147.593 163.616 187.102  0.00  0.00    +0.043 HD
ATOM     70  H   UNL     1     146.850 163.962 188.685  0.00  0.00    +0.043 HD
ENDBRANCH  13  67
BRANCH   3  71
ATOM     71  C   UNL     1     154.400 158.431 189.023  0.00  0.00    -0.028 C 
ATOM     72  H   UNL     1     155.081 158.441 188.166  0.00  0.00    +0.027 HD
ATOM     73  H   UNL     1     153.571 157.755 188.795  0.00  0.00    +0.027 HD
ATOM     74  H   UNL     1     154.966 158.022 189.868  0.00  0.00    +0.027 HD
ENDBRANCH   3  71
BRANCH  12  75
ATOM     75  C   UNL     1     149.732 164.911 190.807  0.00  0.00    +0.003 C 
ATOM     76  H   UNL     1     149.833 165.744 190.104  0.00  0.00    +0.034 HD
ATOM     77  H   UNL     1     150.760 164.592 191.017  0.00  0.00    +0.034 HD
BRANCH  75  78
ATOM     78  C   UNL     1     149.129 165.419 192.091  0.00  0.00    -0.006 A 
ATOM     79  C   UNL     1     147.873 165.963 192.265  0.00  0.00    +0.087 A 
ATOM     80  N   UNL     1     147.704 166.291 193.576  0.00  0.00    -0.349 N 
ATOM     81  C   UNL     1     148.844 166.003 194.286  0.00  0.00    +0.048 A 
ATOM     82  C   UNL     1     149.134 166.191 195.643  0.00  0.00    -0.038 A 
ATOM     83  C   UNL     1     150.398 165.804 196.096  0.00  0.00    -0.060 A 
ATOM     84  C   UNL     1     151.330 165.248 195.226  0.00  0.00    -0.061 A 
ATOM     85  C   UNL     1     151.019 165.061 193.875  0.00  0.00    -0.052 A 
ATOM     86  C   UNL     1     149.754 165.445 193.385  0.00  0.00    +0.004 A 
ATOM     87 BR   UNL     1     146.544 166.242 190.933  0.00  0.00    -0.031 Br
ATOM     88  H   UNL     1     146.866 166.698 193.966  0.00  0.00    +0.166 HD
ATOM     89  H   UNL     1     148.409 166.623 196.325  0.00  0.00    +0.064 HD
ATOM     90  H   UNL     1     150.658 165.939 197.145  0.00  0.00    +0.062 HD
ATOM     91  H   UNL     1     152.314 164.956 195.591  0.00  0.00    +0.062 HD
ATOM     92  H   UNL     1     151.763 164.626 193.217  0.00  0.00    +0.062 HD
ENDBRANCH  75  78
ENDBRANCH  12  75
TORSDOF 10
ENDMDL
MODEL 7
REMARK VINA RESULT:      -6.4      5.406      9.814
REMARK  Name = Jasplakinolide_conf3
REMARK  10 active torsions:
REMARK  status: ('A' for Active; 'I' for Inactive)
REMARK    1  A    between atoms: C_1  and  C_2
REMARK    2  A    between atoms: C_4  and  C_47
REMARK    3  A    between atoms: C_9  and  C_40
REMARK    4  A    between atoms: C_13  and  C_29
REMARK    5  A    between atoms: N_14  and  C_28
REMARK    6  A    between atoms: C_17  and  C_27
REMARK    7  A    between atoms: C_21  and  C_26
REMARK    8  A    between atoms: C_23  and  C_25
REMARK    9  A    between atoms: C_29  and  C_30
REMARK   10  A    between atoms: C_43  and  O_46
REMARK                            x       y       z     vdW  Elec       q    Type
REMARK                         _______ _______ _______ _____ _____    ______ ____
ROOT
ATOM      1  C   UNL     1     139.207 170.663 189.693  0.00  0.00    -0.022 C 
ATOM      2  C   UNL     1     138.235 171.636 188.986  0.00  0.00    -0.010 C 
ATOM      3  C   UNL     1     138.193 173.021 189.653  0.00  0.00    +0.101 C 
ATOM      4  O   UNL     1     139.264 173.809 189.087  0.00  0.00    -0.462 OA
ATOM      5  C   UNL     1     139.721 174.849 189.840  0.00  0.00    +0.309 C 
ATOM      6  O   UNL     1     139.369 175.103 190.982  0.00  0.00    -0.251 OA
ATOM      7  C   UNL     1     140.618 175.731 189.010  0.00  0.00    +0.067 C 
ATOM      8  C   UNL     1     141.925 176.070 189.733  0.00  0.00    +0.058 C 
ATOM      9  N   UNL     1     142.947 175.075 189.445  0.00  0.00    -0.306 N 
ATOM     10  C   UNL     1     143.448 174.193 190.379  0.00  0.00    +0.234 C 
ATOM     11  O   UNL     1     143.144 174.249 191.568  0.00  0.00    -0.274 OA
ATOM     12  C   UNL     1     144.571 173.277 189.825  0.00  0.00    +0.106 C 
ATOM     13  N   UNL     1     144.414 172.991 188.369  0.00  0.00    -0.291 N 
ATOM     14  C   UNL     1     143.280 172.294 187.966  0.00  0.00    +0.236 C 
ATOM     15  O   UNL     1     142.340 172.122 188.749  0.00  0.00    -0.274 OA
ATOM     16  C   UNL     1     143.153 171.809 186.507  0.00  0.00    +0.097 C 
ATOM     17  N   UNL     1     142.169 170.726 186.491  0.00  0.00    -0.304 N 
ATOM     18  C   UNL     1     142.468 169.429 186.156  0.00  0.00    +0.217 C 
ATOM     19  O   UNL     1     143.590 169.073 185.807  0.00  0.00    -0.275 OA
ATOM     20  C   UNL     1     141.274 168.476 186.244  0.00  0.00    +0.036 C 
ATOM     21  C   UNL     1     141.123 167.882 187.658  0.00  0.00    -0.021 C 
ATOM     22  C   UNL     1     140.794 168.893 188.741  0.00  0.00    -0.076 C 
ATOM     23  C   UNL     1     139.617 169.554 188.743  0.00  0.00    -0.082 C 
ATOM     24  H   UNL     1     140.095 171.233 189.991  0.00  0.00    +0.034 HD
ATOM     25  H   UNL     1     137.233 171.187 188.978  0.00  0.00    +0.031 HD
ATOM     26  H   UNL     1     138.538 171.761 187.937  0.00  0.00    +0.031 HD
ATOM     27  H   UNL     1     138.306 172.933 190.739  0.00  0.00    +0.073 HD
ATOM     28  H   UNL     1     140.818 175.252 188.043  0.00  0.00    +0.040 HD
ATOM     29  H   UNL     1     140.025 176.632 188.802  0.00  0.00    +0.040 HD
ATOM     30  H   UNL     1     141.746 176.090 190.815  0.00  0.00    +0.055 HD
ATOM     31  H   UNL     1     143.314 175.009 188.505  0.00  0.00    +0.149 HD
ATOM     32  H   UNL     1     145.472 173.901 189.920  0.00  0.00    +0.060 HD
ATOM     33  H   UNL     1     144.113 171.421 186.158  0.00  0.00    +0.059 HD
ATOM     34  H   UNL     1     141.301 170.906 186.988  0.00  0.00    +0.149 HD
ATOM     35  H   UNL     1     140.369 169.034 185.972  0.00  0.00    +0.039 HD
ATOM     36  H   UNL     1     142.044 167.347 187.926  0.00  0.00    +0.032 HD
ATOM     37  H   UNL     1     140.330 167.121 187.653  0.00  0.00    +0.032 HD
ATOM     38  H   UNL     1     138.883 169.299 187.978  0.00  0.00    +0.057 HD
ENDROOT
BRANCH   8  39
ATOM     39  C   UNL     1     142.477 177.426 189.311  0.00  0.00    -0.026 A 
ATOM     40  C   UNL     1     142.421 177.872 187.979  0.00  0.00    -0.053 A 
ATOM     41  C   UNL     1     142.961 179.109 187.621  0.00  0.00    -0.020 A 
ATOM     42  C   UNL     1     143.566 179.903 188.586  0.00  0.00    +0.117 A 
ATOM     43  C   UNL     1     143.645 179.479 189.908  0.00  0.00    -0.020 A 
ATOM     44  C   UNL     1     143.106 178.241 190.267  0.00  0.00    -0.053 A 
ATOM     45  H   UNL     1     141.960 177.263 187.205  0.00  0.00    +0.062 HD
ATOM     46  H   UNL     1     142.910 179.453 186.592  0.00  0.00    +0.065 HD
ATOM     47  H   UNL     1     144.122 180.089 190.669  0.00  0.00    +0.065 HD
ATOM     48  H   UNL     1     143.183 177.911 191.302  0.00  0.00    +0.062 HD
BRANCH  42  49
ATOM     49  O   UNL     1     144.078 181.103 188.192  0.00  0.00    -0.507 OA
ATOM     50  H   UNL     1     143.453 181.517 187.574  0.00  0.00    +0.292 HD
ENDBRANCH  42  49
ENDBRANCH   8  39
BRANCH   1  51
ATOM     51  C   UNL     1     138.560 170.061 190.945  0.00  0.00    -0.059 C 
ATOM     52  H   UNL     1     137.562 170.480 191.114  0.00  0.00    +0.024 HD
ATOM     53  H   UNL     1     139.160 170.259 191.841  0.00  0.00    +0.024 HD
ATOM     54  H   UNL     1     138.446 168.977 190.851  0.00  0.00    +0.024 HD
ENDBRANCH   1  51
BRANCH  22  55
ATOM     55  C   UNL     1     141.868 169.068 189.783  0.00  0.00    -0.044 C 
ATOM     56  H   UNL     1     142.721 169.658 189.440  0.00  0.00    +0.027 HD
ATOM     57  H   UNL     1     141.456 169.576 190.660  0.00  0.00    +0.027 HD
ATOM     58  H   UNL     1     142.244 168.093 190.098  0.00  0.00    +0.027 HD
ENDBRANCH  22  55
BRANCH  20  59
ATOM     59  C   UNL     1     141.440 167.349 185.223  0.00  0.00    -0.054 C 
ATOM     60  H   UNL     1     141.707 167.738 184.234  0.00  0.00    +0.024 HD
ATOM     61  H   UNL     1     140.508 166.782 185.115  0.00  0.00    +0.024 HD
ATOM     62  H   UNL     1     142.224 166.652 185.537  0.00  0.00    +0.024 HD
ENDBRANCH  20  59
BRANCH  16  63
ATOM     63  C   UNL     1     142.665 172.949 185.621  0.00  0.00    -0.038 C 
ATOM     64  H   UNL     1     143.496 173.522 185.199  0.00  0.00    +0.025 HD
ATOM     65  H   UNL     1     142.062 172.564 184.793  0.00  0.00    +0.025 HD
ATOM     66  H   UNL     1     142.042 173.650 186.187  0.00  0.00    +0.025 HD
ENDBRANCH  16  63
BRANCH  13  67
ATOM     67  C   UNL     1     145.560 173.298 187.521  0.00  0.00    +0.004 C 
ATOM     68  H   UNL     1     146.262 172.471 187.440  0.00  0.00    +0.043 HD
ATOM     69  H   UNL     1     145.193 173.537 186.518  0.00  0.00    +0.043 HD
ATOM     70  H   UNL     1     146.087 174.165 187.926  0.00  0.00    +0.043 HD
ENDBRANCH  13  67
BRANCH   3  71
ATOM     71  C   UNL     1     136.874 173.724 189.329  0.00  0.00    -0.028 C 
ATOM     72  H   UNL     1     137.045 174.771 189.059  0.00  0.00    +0.027 HD
ATOM     73  H   UNL     1     136.191 173.697 190.184  0.00  0.00    +0.027 HD
ATOM     74  H   UNL     1     136.382 173.254 188.470  0.00  0.00    +0.027 HD
ENDBRANCH   3  71
BRANCH  12  75
ATOM     75  C   UNL     1     144.760 172.013 190.692  0.00  0.00    +0.003 C 
ATOM     76  H   UNL     1     144.259 171.149 190.242  0.00  0.00    +0.034 HD
ATOM     77  H   UNL     1     144.278 172.141 191.669  0.00  0.00    +0.034 HD
BRANCH  75  78
ATOM     78  C   UNL     1     146.209 171.677 190.927  0.00  0.00    -0.006 A 
ATOM     79  C   UNL     1     146.978 170.767 190.231  0.00  0.00    +0.087 A 
ATOM     80  N   UNL     1     148.241 170.762 190.743  0.00  0.00    -0.349 N 
ATOM     81  C   UNL     1     148.327 171.638 191.797  0.00  0.00    +0.048 A 
ATOM     82  C   UNL     1     149.410 171.943 192.630  0.00  0.00    -0.038 A 
ATOM     83  C   UNL     1     149.204 172.885 193.642  0.00  0.00    -0.060 A 
ATOM     84  C   UNL     1     147.967 173.499 193.807  0.00  0.00    -0.061 A 
ATOM     85  C   UNL     1     146.899 173.187 192.960  0.00  0.00    -0.052 A 
ATOM     86  C   UNL     1     147.071 172.236 191.932  0.00  0.00    +0.004 A 
ATOM     87 BR   UNL     1     146.427 169.661 188.785  0.00  0.00    -0.031 Br
ATOM     88  H   UNL     1     148.999 170.188 190.402  0.00  0.00    +0.166 HD
ATOM     89  H   UNL     1     150.377 171.468 192.504  0.00  0.00    +0.064 HD
ATOM     90  H   UNL     1     150.024 173.144 194.310  0.00  0.00    +0.062 HD
ATOM     91  H   UNL     1     147.819 174.227 194.603  0.00  0.00    +0.062 HD
ATOM     92  H   UNL     1     145.944 173.677 193.110  0.00  0.00    +0.062 HD
ENDBRANCH  75  78
ENDBRANCH  12  75
TORSDOF 10
ENDMDL
MODEL 8
REMARK VINA RESULT:      -6.4      3.913      7.648
REMARK  Name = Jasplakinolide_conf3
REMARK  10 active torsions:
REMARK  status: ('A' for Active; 'I' for Inactive)
REMARK    1  A    between atoms: C_1  and  C_2
REMARK    2  A    between atoms: C_4  and  C_47
REMARK    3  A    between atoms: C_9  and  C_40
REMARK    4  A    between atoms: C_13  and  C_29
REMARK    5  A    between atoms: N_14  and  C_28
REMARK    6  A    between atoms: C_17  and  C_27
REMARK    7  A    between atoms: C_21  and  C_26
REMARK    8  A    between atoms: C_23  and  C_25
REMARK    9  A    between atoms: C_29  and  C_30
REMARK   10  A    between atoms: C_43  and  O_46
REMARK                            x       y       z     vdW  Elec       q    Type
REMARK                         _______ _______ _______ _____ _____    ______ ____
ROOT
ATOM      1  C   UNL     1     148.325 166.197 185.672  0.00  0.00    -0.022 C 
ATOM      2  C   UNL     1     148.433 167.641 186.213  0.00  0.00    -0.010 C 
ATOM      3  C   UNL     1     147.642 167.846 187.517  0.00  0.00    +0.101 C 
ATOM      4  O   UNL     1     148.501 167.457 188.612  0.00  0.00    -0.462 OA
ATOM      5  C   UNL     1     147.885 167.093 189.772  0.00  0.00    +0.309 C 
ATOM      6  O   UNL     1     146.679 166.974 189.925  0.00  0.00    -0.251 OA
ATOM      7  C   UNL     1     148.897 166.997 190.884  0.00  0.00    +0.067 C 
ATOM      8  C   UNL     1     148.751 165.701 191.687  0.00  0.00    +0.058 C 
ATOM      9  N   UNL     1     149.562 164.640 191.109  0.00  0.00    -0.306 N 
ATOM     10  C   UNL     1     149.042 163.522 190.493  0.00  0.00    +0.234 C 
ATOM     11  O   UNL     1     147.838 163.277 190.479  0.00  0.00    -0.274 OA
ATOM     12  C   UNL     1     150.124 162.518 190.014  0.00  0.00    +0.106 C 
ATOM     13  N   UNL     1     151.404 163.189 189.641  0.00  0.00    -0.291 N 
ATOM     14  C   UNL     1     151.379 164.082 188.574  0.00  0.00    +0.236 C 
ATOM     15  O   UNL     1     150.302 164.471 188.109  0.00  0.00    -0.274 OA
ATOM     16  C   UNL     1     152.699 164.662 188.026  0.00  0.00    +0.097 C 
ATOM     17  N   UNL     1     152.436 165.133 186.666  0.00  0.00    -0.304 N 
ATOM     18  C   UNL     1     153.025 164.598 185.547  0.00  0.00    +0.217 C 
ATOM     19  O   UNL     1     153.853 163.693 185.598  0.00  0.00    -0.275 OA
ATOM     20  C   UNL     1     152.565 165.242 184.238  0.00  0.00    +0.036 C 
ATOM     21  C   UNL     1     151.304 164.556 183.678  0.00  0.00    -0.021 C 
ATOM     22  C   UNL     1     150.066 164.696 184.544  0.00  0.00    -0.076 C 
ATOM     23  C   UNL     1     149.489 165.899 184.746  0.00  0.00    -0.082 C 
ATOM     24  H   UNL     1     148.357 165.513 186.528  0.00  0.00    +0.034 HD
ATOM     25  H   UNL     1     148.077 168.334 185.439  0.00  0.00    +0.031 HD
ATOM     26  H   UNL     1     149.487 167.885 186.402  0.00  0.00    +0.031 HD
ATOM     27  H   UNL     1     146.723 167.249 187.512  0.00  0.00    +0.073 HD
ATOM     28  H   UNL     1     149.910 167.091 190.473  0.00  0.00    +0.040 HD
ATOM     29  H   UNL     1     148.724 167.882 191.510  0.00  0.00    +0.040 HD
ATOM     30  H   UNL     1     147.701 165.386 191.681  0.00  0.00    +0.055 HD
ATOM     31  H   UNL     1     150.570 164.721 191.144  0.00  0.00    +0.149 HD
ATOM     32  H   UNL     1     150.338 161.931 190.918  0.00  0.00    +0.060 HD
ATOM     33  H   UNL     1     153.463 163.882 187.990  0.00  0.00    +0.059 HD
ATOM     34  H   UNL     1     151.604 165.703 186.545  0.00  0.00    +0.149 HD
ATOM     35  H   UNL     1     152.361 166.303 184.431  0.00  0.00    +0.039 HD
ATOM     36  H   UNL     1     151.515 163.491 183.512  0.00  0.00    +0.032 HD
ATOM     37  H   UNL     1     151.072 164.969 182.687  0.00  0.00    +0.032 HD
ATOM     38  H   UNL     1     149.902 166.762 184.223  0.00  0.00    +0.057 HD
ENDROOT
BRANCH   8  39
ATOM     39  C   UNL     1     149.192 165.873 193.136  0.00  0.00    -0.026 A 
ATOM     40  C   UNL     1     148.271 166.078 194.177  0.00  0.00    -0.053 A 
ATOM     41  C   UNL     1     148.710 166.259 195.490  0.00  0.00    -0.020 A 
ATOM     42  C   UNL     1     150.070 166.244 195.769  0.00  0.00    +0.117 A 
ATOM     43  C   UNL     1     151.003 166.056 194.756  0.00  0.00    -0.020 A 
ATOM     44  C   UNL     1     150.563 165.875 193.442  0.00  0.00    -0.053 A 
ATOM     45  H   UNL     1     147.201 166.102 193.979  0.00  0.00    +0.062 HD
ATOM     46  H   UNL     1     147.994 166.411 196.293  0.00  0.00    +0.065 HD
ATOM     47  H   UNL     1     152.069 166.048 194.963  0.00  0.00    +0.065 HD
ATOM     48  H   UNL     1     151.301 165.740 192.651  0.00  0.00    +0.062 HD
BRANCH  42  49
ATOM     49  O   UNL     1     150.454 166.424 197.065  0.00  0.00    -0.507 OA
ATOM     50  H   UNL     1     150.331 165.586 197.542  0.00  0.00    +0.292 HD
ENDBRANCH  42  49
ENDBRANCH   8  39
BRANCH   1  51
ATOM     51  C   UNL     1     147.003 165.993 184.923  0.00  0.00    -0.059 C 
ATOM     52  H   UNL     1     146.194 166.569 185.387  0.00  0.00    +0.024 HD
ATOM     53  H   UNL     1     146.701 164.939 184.922  0.00  0.00    +0.024 HD
ATOM     54  H   UNL     1     147.081 166.321 183.882  0.00  0.00    +0.024 HD
ENDBRANCH   1  51
BRANCH  22  55
ATOM     55  C   UNL     1     149.557 163.401 185.122  0.00  0.00    -0.044 C 
ATOM     56  H   UNL     1     148.593 163.087 184.715  0.00  0.00    +0.027 HD
ATOM     57  H   UNL     1     150.271 162.597 184.918  0.00  0.00    +0.027 HD
ATOM     58  H   UNL     1     149.446 163.493 186.204  0.00  0.00    +0.027 HD
ENDBRANCH  22  55
BRANCH  20  59
ATOM     59  C   UNL     1     153.694 165.174 183.207  0.00  0.00    -0.054 C 
ATOM     60  H   UNL     1     153.306 165.196 182.182  0.00  0.00    +0.024 HD
ATOM     61  H   UNL     1     154.270 164.248 183.323  0.00  0.00    +0.024 HD
ATOM     62  H   UNL     1     154.383 166.016 183.328  0.00  0.00    +0.024 HD
ENDBRANCH  20  59
BRANCH  16  63
ATOM     63  C   UNL     1     153.150 165.834 188.889  0.00  0.00    -0.038 C 
ATOM     64  H   UNL     1     153.781 165.510 189.722  0.00  0.00    +0.025 HD
ATOM     65  H   UNL     1     153.716 166.558 188.294  0.00  0.00    +0.025 HD
ATOM     66  H   UNL     1     152.290 166.361 189.320  0.00  0.00    +0.025 HD
ENDBRANCH  16  63
BRANCH  13  67
ATOM     67  C   UNL     1     152.608 162.702 190.303  0.00  0.00    +0.004 C 
ATOM     68  H   UNL     1     153.215 162.063 189.665  0.00  0.00    +0.043 HD
ATOM     69  H   UNL     1     153.212 163.564 190.600  0.00  0.00    +0.043 HD
ATOM     70  H   UNL     1     152.326 162.137 191.194  0.00  0.00    +0.043 HD
ENDBRANCH  13  67
BRANCH   3  71
ATOM     71  C   UNL     1     147.293 169.324 187.697  0.00  0.00    -0.028 C 
ATOM     72  H   UNL     1     147.567 169.671 188.698  0.00  0.00    +0.027 HD
ATOM     73  H   UNL     1     146.223 169.498 187.554  0.00  0.00    +0.027 HD
ATOM     74  H   UNL     1     147.849 169.945 186.986  0.00  0.00    +0.027 HD
ENDBRANCH   3  71
BRANCH  12  75
ATOM     75  C   UNL     1     149.581 161.564 188.929  0.00  0.00    +0.003 C 
ATOM     76  H   UNL     1     150.337 161.369 188.161  0.00  0.00    +0.034 HD
ATOM     77  H   UNL     1     148.746 162.028 188.391  0.00  0.00    +0.034 HD
BRANCH  75  78
ATOM     78  C   UNL     1     149.102 160.251 189.493  0.00  0.00    -0.006 A 
ATOM     79  C   UNL     1     149.879 159.211 189.959  0.00  0.00    +0.087 A 
ATOM     80  N   UNL     1     149.068 158.206 190.394  0.00  0.00    -0.349 N 
ATOM     81  C   UNL     1     147.751 158.543 190.199  0.00  0.00    +0.048 A 
ATOM     82  C   UNL     1     146.584 157.819 190.471  0.00  0.00    -0.038 A 
ATOM     83  C   UNL     1     145.361 158.418 190.159  0.00  0.00    -0.060 A 
ATOM     84  C   UNL     1     145.310 159.692 189.603  0.00  0.00    -0.061 A 
ATOM     85  C   UNL     1     146.487 160.404 189.346  0.00  0.00    -0.052 A 
ATOM     86  C   UNL     1     147.738 159.825 189.644  0.00  0.00    +0.004 A 
ATOM     87 BR   UNL     1     151.778 159.125 190.012  0.00  0.00    -0.031 Br
ATOM     88  H   UNL     1     149.391 157.335 190.792  0.00  0.00    +0.166 HD
ATOM     89  H   UNL     1     146.620 156.825 190.906  0.00  0.00    +0.064 HD
ATOM     90  H   UNL     1     144.434 157.881 190.354  0.00  0.00    +0.062 HD
ATOM     91  H   UNL     1     144.350 160.145 189.359  0.00  0.00    +0.062 HD
ATOM     92  H   UNL     1     146.421 161.394 188.911  0.00  0.00    +0.062 HD
ENDBRANCH  75  78
ENDBRANCH  12  75
TORSDOF 10
ENDMDL
MODEL 9
REMARK VINA RESULT:      -6.4      4.839      8.832
REMARK  Name = Jasplakinolide_conf3
REMARK  10 active torsions:
REMARK  status: ('A' for Active; 'I' for Inactive)
REMARK    1  A    between atoms: C_1  and  C_2
REMARK    2  A    between atoms: C_4  and  C_47
REMARK    3  A    between atoms: C_9  and  C_40
REMARK    4  A    between atoms: C_13  and  C_29
REMARK    5  A    between atoms: N_14  and  C_28
REMARK    6  A    between atoms: C_17  and  C_27
REMARK    7  A    between atoms: C_21  and  C_26
REMARK    8  A    between atoms: C_23  and  C_25
REMARK    9  A    between atoms: C_29  and  C_30
REMARK   10  A    between atoms: C_43  and  O_46
REMARK                            x       y       z     vdW  Elec       q    Type
REMARK                         _______ _______ _______ _____ _____    ______ ____
ROOT
ATOM      1  C   UNL     1     145.151 167.391 186.719  0.00  0.00    -0.022 C 
ATOM      2  C   UNL     1     143.800 166.804 186.249  0.00  0.00    -0.010 C 
ATOM      3  C   UNL     1     142.827 166.549 187.414  0.00  0.00    +0.101 C 
ATOM      4  O   UNL     1     142.114 167.781 187.662  0.00  0.00    -0.462 OA
ATOM      5  C   UNL     1     141.586 167.940 188.909  0.00  0.00    +0.309 C 
ATOM      6  O   UNL     1     141.752 167.178 189.849  0.00  0.00    -0.251 OA
ATOM      7  C   UNL     1     140.645 169.117 188.923  0.00  0.00    +0.067 C 
ATOM      8  C   UNL     1     140.903 170.048 190.112  0.00  0.00    +0.058 C 
ATOM      9  N   UNL     1     141.880 171.069 189.767  0.00  0.00    -0.306 N 
ATOM     10  C   UNL     1     143.148 171.137 190.307  0.00  0.00    +0.234 C 
ATOM     11  O   UNL     1     143.519 170.394 191.212  0.00  0.00    -0.274 OA
ATOM     12  C   UNL     1     143.968 172.357 189.811  0.00  0.00    +0.106 C 
ATOM     13  N   UNL     1     143.599 172.773 188.426  0.00  0.00    -0.291 N 
ATOM     14  C   UNL     1     143.826 171.864 187.397  0.00  0.00    +0.236 C 
ATOM     15  O   UNL     1     144.106 170.688 187.651  0.00  0.00    -0.274 OA
ATOM     16  C   UNL     1     143.640 172.303 185.930  0.00  0.00    +0.097 C 
ATOM     17  N   UNL     1     144.398 171.369 185.097  0.00  0.00    -0.304 N 
ATOM     18  C   UNL     1     145.479 171.734 184.332  0.00  0.00    +0.217 C 
ATOM     19  O   UNL     1     145.883 172.891 184.259  0.00  0.00    -0.275 OA
ATOM     20  C   UNL     1     146.121 170.571 183.573  0.00  0.00    +0.036 C 
ATOM     21  C   UNL     1     147.193 169.860 184.422  0.00  0.00    -0.021 C 
ATOM     22  C   UNL     1     146.665 169.166 185.664  0.00  0.00    -0.076 C 
ATOM     23  C   UNL     1     145.838 168.104 185.570  0.00  0.00    -0.082 C 
ATOM     24  H   UNL     1     144.946 168.109 187.521  0.00  0.00    +0.034 HD
ATOM     25  H   UNL     1     143.993 165.872 185.703  0.00  0.00    +0.031 HD
ATOM     26  H   UNL     1     143.324 167.498 185.542  0.00  0.00    +0.031 HD
ATOM     27  H   UNL     1     143.370 166.226 188.309  0.00  0.00    +0.073 HD
ATOM     28  H   UNL     1     140.721 169.664 187.974  0.00  0.00    +0.040 HD
ATOM     29  H   UNL     1     139.638 168.683 188.961  0.00  0.00    +0.040 HD
ATOM     30  H   UNL     1     141.288 169.461 190.955  0.00  0.00    +0.055 HD
ATOM     31  H   UNL     1     141.632 171.772 189.084  0.00  0.00    +0.149 HD
ATOM     32  H   UNL     1     143.633 173.168 190.474  0.00  0.00    +0.060 HD
ATOM     33  H   UNL     1     144.039 173.310 185.788  0.00  0.00    +0.059 HD
ATOM     34  H   UNL     1     144.263 170.382 185.297  0.00  0.00    +0.149 HD
ATOM     35  H   UNL     1     145.329 169.863 183.298  0.00  0.00    +0.039 HD
ATOM     36  H   UNL     1     147.966 170.586 184.709  0.00  0.00    +0.032 HD
ATOM     37  H   UNL     1     147.708 169.109 183.807  0.00  0.00    +0.032 HD
ATOM     38  H   UNL     1     145.605 167.720 184.576  0.00  0.00    +0.057 HD
ENDROOT
BRANCH   8  39
ATOM     39  C   UNL     1     139.636 170.764 190.563  0.00  0.00    -0.026 A 
ATOM     40  C   UNL     1     138.367 170.166 190.468  0.00  0.00    -0.053 A 
ATOM     41  C   UNL     1     137.223 170.860 190.865  0.00  0.00    -0.020 A 
ATOM     42  C   UNL     1     137.337 172.156 191.351  0.00  0.00    +0.117 A 
ATOM     43  C   UNL     1     138.578 172.775 191.444  0.00  0.00    -0.020 A 
ATOM     44  C   UNL     1     139.724 172.080 191.046  0.00  0.00    -0.053 A 
ATOM     45  H   UNL     1     138.254 169.156 190.082  0.00  0.00    +0.062 HD
ATOM     46  H   UNL     1     136.245 170.393 190.795  0.00  0.00    +0.065 HD
ATOM     47  H   UNL     1     138.678 173.790 191.816  0.00  0.00    +0.065 HD
ATOM     48  H   UNL     1     140.692 172.576 191.110  0.00  0.00    +0.062 HD
BRANCH  42  49
ATOM     49  O   UNL     1     136.194 172.796 191.728  0.00  0.00    -0.507 OA
ATOM     50  H   UNL     1     136.269 173.733 191.482  0.00  0.00    +0.292 HD
ENDBRANCH  42  49
ENDBRANCH   8  39
BRANCH   1  51
ATOM     51  C   UNL     1     146.065 166.287 187.264  0.00  0.00    -0.059 C 
ATOM     52  H   UNL     1     145.604 165.300 187.146  0.00  0.00    +0.024 HD
ATOM     53  H   UNL     1     146.275 166.431 188.329  0.00  0.00    +0.024 HD
ATOM     54  H   UNL     1     147.021 166.265 186.733  0.00  0.00    +0.024 HD
ENDBRANCH   1  51
BRANCH  22  55
ATOM     55  C   UNL     1     147.151 169.753 186.963  0.00  0.00    -0.044 C 
ATOM     56  H   UNL     1     147.057 170.840 187.017  0.00  0.00    +0.027 HD
ATOM     57  H   UNL     1     146.575 169.337 187.796  0.00  0.00    +0.027 HD
ATOM     58  H   UNL     1     148.202 169.503 187.116  0.00  0.00    +0.027 HD
ENDBRANCH  22  55
BRANCH  20  59
ATOM     59  C   UNL     1     146.744 171.087 182.274  0.00  0.00    -0.054 C 
ATOM     60  H   UNL     1     147.103 172.117 182.382  0.00  0.00    +0.024 HD
ATOM     61  H   UNL     1     146.011 171.076 181.460  0.00  0.00    +0.024 HD
ATOM     62  H   UNL     1     147.591 170.462 181.974  0.00  0.00    +0.024 HD
ENDBRANCH  20  59
BRANCH  16  63
ATOM     63  C   UNL     1     142.166 172.237 185.551  0.00  0.00    -0.038 C 
ATOM     64  H   UNL     1     142.017 172.327 184.471  0.00  0.00    +0.025 HD
ATOM     65  H   UNL     1     141.724 171.291 185.879  0.00  0.00    +0.025 HD
ATOM     66  H   UNL     1     141.600 173.048 186.024  0.00  0.00    +0.025 HD
ENDBRANCH  16  63
BRANCH  13  67
ATOM     67  C   UNL     1     143.214 174.168 188.249  0.00  0.00    +0.004 C 
ATOM     68  H   UNL     1     142.142 174.327 188.342  0.00  0.00    +0.043 HD
ATOM     69  H   UNL     1     143.718 174.765 189.015  0.00  0.00    +0.043 HD
ATOM     70  H   UNL     1     143.533 174.508 187.262  0.00  0.00    +0.043 HD
ENDBRANCH  13  67
BRANCH   3  71
ATOM     71  C   UNL     1     141.802 165.485 187.022  0.00  0.00    -0.028 C 
ATOM     72  H   UNL     1     140.790 165.902 187.014  0.00  0.00    +0.027 HD
ATOM     73  H   UNL     1     141.820 164.642 187.720  0.00  0.00    +0.027 HD
ATOM     74  H   UNL     1     141.995 165.110 186.011  0.00  0.00    +0.027 HD
ENDBRANCH   3  71
BRANCH  12  75
ATOM     75  C   UNL     1     145.484 172.151 190.019  0.00  0.00    +0.003 C 
ATOM     76  H   UNL     1     146.056 172.580 189.189  0.00  0.00    +0.034 HD
ATOM     77  H   UNL     1     145.732 171.083 190.010  0.00  0.00    +0.034 HD
BRANCH  75  78
ATOM     78  C   UNL     1     145.980 172.735 191.315  0.00  0.00    -0.006 A 
ATOM     79  C   UNL     1     145.301 173.590 192.159  0.00  0.00    +0.087 A 
ATOM     80  N   UNL     1     146.090 173.882 193.232  0.00  0.00    -0.349 N 
ATOM     81  C   UNL     1     147.307 173.258 193.106  0.00  0.00    +0.048 A 
ATOM     82  C   UNL     1     148.427 173.289 193.946  0.00  0.00    -0.038 A 
ATOM     83  C   UNL     1     149.549 172.550 193.559  0.00  0.00    -0.060 A 
ATOM     84  C   UNL     1     149.545 171.808 192.382  0.00  0.00    -0.061 A 
ATOM     85  C   UNL     1     148.413 171.784 191.560  0.00  0.00    -0.052 A 
ATOM     86  C   UNL     1     147.267 172.523 191.919  0.00  0.00    +0.004 A 
ATOM     87 BR   UNL     1     143.548 174.289 191.925  0.00  0.00    -0.031 Br
ATOM     88  H   UNL     1     145.821 174.480 194.000  0.00  0.00    +0.166 HD
ATOM     89  H   UNL     1     148.433 173.865 194.865  0.00  0.00    +0.064 HD
ATOM     90  H   UNL     1     150.438 172.554 194.187  0.00  0.00    +0.062 HD
ATOM     91  H   UNL     1     150.427 171.241 192.089  0.00  0.00    +0.062 HD
ATOM     92  H   UNL     1     148.436 171.199 190.647  0.00  0.00    +0.062 HD
ENDBRANCH  75  78
ENDBRANCH  12  75
TORSDOF 10
ENDMDL
MODEL 10
REMARK VINA RESULT:      -6.3      4.186      8.676
REMARK  Name = Jasplakinolide_conf3
REMARK  10 active torsions:
REMARK  status: ('A' for Active; 'I' for Inactive)
REMARK    1  A    between atoms: C_1  and  C_2
REMARK    2  A    between atoms: C_4  and  C_47
REMARK    3  A    between atoms: C_9  and  C_40
REMARK    4  A    between atoms: C_13  and  C_29
REMARK    5  A    between atoms: N_14  and  C_28
REMARK    6  A    between atoms: C_17  and  C_27
REMARK    7  A    between atoms: C_21  and  C_26
REMARK    8  A    between atoms: C_23  and  C_25
REMARK    9  A    between atoms: C_29  and  C_30
REMARK   10  A    between atoms: C_43  and  O_46
REMARK                            x       y       z     vdW  Elec       q    Type
REMARK                         _______ _______ _______ _____ _____    ______ ____
ROOT
ATOM      1  C   UNL     1     141.627 168.578 186.513  0.00  0.00    -0.022 C 
ATOM      2  C   UNL     1     140.338 169.428 186.427  0.00  0.00    -0.010 C 
ATOM      3  C   UNL     1     139.635 169.578 187.787  0.00  0.00    +0.101 C 
ATOM      4  O   UNL     1     140.237 170.703 188.465  0.00  0.00    -0.462 OA
ATOM      5  C   UNL     1     140.132 170.725 189.824  0.00  0.00    +0.309 C 
ATOM      6  O   UNL     1     139.665 169.828 190.511  0.00  0.00    -0.251 OA
ATOM      7  C   UNL     1     140.543 172.075 190.351  0.00  0.00    +0.067 C 
ATOM      8  C   UNL     1     141.519 171.963 191.527  0.00  0.00    +0.058 C 
ATOM      9  N   UNL     1     142.895 171.935 191.056  0.00  0.00    -0.306 N 
ATOM     10  C   UNL     1     143.718 170.831 191.146  0.00  0.00    +0.234 C 
ATOM     11  O   UNL     1     143.383 169.807 191.735  0.00  0.00    -0.274 OA
ATOM     12  C   UNL     1     145.155 171.086 190.622  0.00  0.00    +0.106 C 
ATOM     13  N   UNL     1     145.197 172.103 189.531  0.00  0.00    -0.291 N 
ATOM     14  C   UNL     1     144.531 171.808 188.346  0.00  0.00    +0.236 C 
ATOM     15  O   UNL     1     143.753 170.850 188.288  0.00  0.00    -0.274 OA
ATOM     16  C   UNL     1     144.692 172.733 187.121  0.00  0.00    +0.097 C 
ATOM     17  N   UNL     1     144.325 171.957 185.937  0.00  0.00    -0.304 N 
ATOM     18  C   UNL     1     145.203 171.640 184.931  0.00  0.00    +0.217 C 
ATOM     19  O   UNL     1     146.373 172.012 184.926  0.00  0.00    -0.275 OA
ATOM     20  C   UNL     1     144.587 170.794 183.815  0.00  0.00    +0.036 C 
ATOM     21  C   UNL     1     144.682 169.287 184.123  0.00  0.00    -0.021 C 
ATOM     22  C   UNL     1     143.885 168.834 185.333  0.00  0.00    -0.076 C 
ATOM     23  C   UNL     1     142.537 168.890 185.340  0.00  0.00    -0.082 C 
ATOM     24  H   UNL     1     142.138 168.835 187.448  0.00  0.00    +0.034 HD
ATOM     25  H   UNL     1     139.661 168.966 185.697  0.00  0.00    +0.031 HD
ATOM     26  H   UNL     1     140.583 170.430 186.048  0.00  0.00    +0.031 HD
ATOM     27  H   UNL     1     139.741 168.664 188.382  0.00  0.00    +0.073 HD
ATOM     28  H   UNL     1     140.975 172.674 189.540  0.00  0.00    +0.040 HD
ATOM     29  H   UNL     1     139.607 172.567 190.648  0.00  0.00    +0.040 HD
ATOM     30  H   UNL     1     141.316 171.039 192.081  0.00  0.00    +0.055 HD
ATOM     31  H   UNL     1     143.282 172.764 190.625  0.00  0.00    +0.149 HD
ATOM     32  H   UNL     1     145.659 171.543 191.486  0.00  0.00    +0.060 HD
ATOM     33  H   UNL     1     145.733 173.051 187.029  0.00  0.00    +0.059 HD
ATOM     34  H   UNL     1     143.457 171.432 186.000  0.00  0.00    +0.149 HD
ATOM     35  H   UNL     1     143.535 171.089 183.702  0.00  0.00    +0.039 HD
ATOM     36  H   UNL     1     145.737 169.012 184.257  0.00  0.00    +0.032 HD
ATOM     37  H   UNL     1     144.334 168.713 183.254  0.00  0.00    +0.032 HD
ATOM     38  H   UNL     1     142.031 169.216 184.431  0.00  0.00    +0.057 HD
ENDROOT
BRANCH   8  39
ATOM     39  C   UNL     1     141.391 173.138 192.489  0.00  0.00    -0.026 A 
ATOM     40  C   UNL     1     140.248 173.331 193.284  0.00  0.00    -0.053 A 
ATOM     41  C   UNL     1     140.151 174.433 194.135  0.00  0.00    -0.020 A 
ATOM     42  C   UNL     1     141.191 175.352 194.193  0.00  0.00    +0.117 A 
ATOM     43  C   UNL     1     142.328 175.191 193.409  0.00  0.00    -0.020 A 
ATOM     44  C   UNL     1     142.424 174.088 192.556  0.00  0.00    -0.053 A 
ATOM     45  H   UNL     1     139.418 172.628 193.247  0.00  0.00    +0.062 HD
ATOM     46  H   UNL     1     139.269 174.575 194.752  0.00  0.00    +0.065 HD
ATOM     47  H   UNL     1     143.143 175.907 193.442  0.00  0.00    +0.065 HD
ATOM     48  H   UNL     1     143.312 173.975 191.936  0.00  0.00    +0.062 HD
BRANCH  42  49
ATOM     49  O   UNL     1     141.055 176.412 195.039  0.00  0.00    -0.507 OA
ATOM     50  H   UNL     1     140.306 176.239 195.633  0.00  0.00    +0.292 HD
ENDBRANCH  42  49
ENDBRANCH   8  39
BRANCH   1  51
ATOM     51  C   UNL     1     141.294 167.082 186.525  0.00  0.00    -0.059 C 
ATOM     52  H   UNL     1     141.853 166.560 187.310  0.00  0.00    +0.024 HD
ATOM     53  H   UNL     1     141.542 166.608 185.569  0.00  0.00    +0.024 HD
ATOM     54  H   UNL     1     140.230 166.914 186.717  0.00  0.00    +0.024 HD
ENDBRANCH   1  51
BRANCH  22  55
ATOM     55  C   UNL     1     144.720 168.320 186.476  0.00  0.00    -0.044 C 
ATOM     56  H   UNL     1     145.732 168.027 186.185  0.00  0.00    +0.027 HD
ATOM     57  H   UNL     1     144.818 169.095 187.243  0.00  0.00    +0.027 HD
ATOM     58  H   UNL     1     144.240 167.451 186.929  0.00  0.00    +0.027 HD
ENDBRANCH  22  55
BRANCH  20  59
ATOM     59  C   UNL     1     145.291 171.099 182.491  0.00  0.00    -0.054 C 
ATOM     60  H   UNL     1     146.312 170.701 182.477  0.00  0.00    +0.024 HD
ATOM     61  H   UNL     1     145.355 172.180 182.325  0.00  0.00    +0.024 HD
ATOM     62  H   UNL     1     144.744 170.660 181.650  0.00  0.00    +0.024 HD
ENDBRANCH  20  59
BRANCH  16  63
ATOM     63  C   UNL     1     143.760 173.932 187.250  0.00  0.00    -0.038 C 
ATOM     64  H   UNL     1     142.727 173.676 186.997  0.00  0.00    +0.025 HD
ATOM     65  H   UNL     1     143.774 174.324 188.272  0.00  0.00    +0.025 HD
ATOM     66  H   UNL     1     144.067 174.744 186.580  0.00  0.00    +0.025 HD
ENDBRANCH  16  63
BRANCH  13  67
ATOM     67  C   UNL     1     146.096 173.234 189.733  0.00  0.00    +0.004 C 
ATOM     68  H   UNL     1     146.326 173.411 190.781  0.00  0.00    +0.043 HD
ATOM     69  H   UNL     1     147.033 173.028 189.205  0.00  0.00    +0.043 HD
ATOM     70  H   UNL     1     145.641 174.136 189.318  0.00  0.00    +0.043 HD
ENDBRANCH  13  67
BRANCH   3  71
ATOM     71  C   UNL     1     138.153 169.890 187.584  0.00  0.00    -0.028 C 
ATOM     72  H   UNL     1     137.525 169.146 188.083  0.00  0.00    +0.027 HD
ATOM     73  H   UNL     1     137.893 169.901 186.521  0.00  0.00    +0.027 HD
ATOM     74  H   UNL     1     137.895 170.861 188.020  0.00  0.00    +0.027 HD
ENDBRANCH   3  71
BRANCH  12  75
ATOM     75  C   UNL     1     145.881 169.768 190.274  0.00  0.00    +0.003 C 
ATOM     76  H   UNL     1     145.786 169.536 189.207  0.00  0.00    +0.034 HD
ATOM     77  H   UNL     1     145.410 168.923 190.789  0.00  0.00    +0.034 HD
BRANCH  75  78
ATOM     78  C   UNL     1     147.340 169.789 190.647  0.00  0.00    -0.006 A 
ATOM     79  C   UNL     1     148.325 168.928 190.210  0.00  0.00    +0.087 A 
ATOM     80  N   UNL     1     149.515 169.285 190.770  0.00  0.00    -0.349 N 
ATOM     81  C   UNL     1     149.339 170.361 191.605  0.00  0.00    +0.048 A 
ATOM     82  C   UNL     1     150.265 171.047 192.401  0.00  0.00    -0.038 A 
ATOM     83  C   UNL     1     149.796 172.118 193.166  0.00  0.00    -0.060 A 
ATOM     84  C   UNL     1     148.456 172.490 193.130  0.00  0.00    -0.061 A 
ATOM     85  C   UNL     1     147.547 171.798 192.323  0.00  0.00    -0.052 A 
ATOM     86  C   UNL     1     147.987 170.708 191.543  0.00  0.00    +0.004 A 
ATOM     87 BR   UNL     1     148.125 167.456 189.022  0.00  0.00    -0.031 Br
ATOM     88  H   UNL     1     150.395 168.819 190.603  0.00  0.00    +0.166 HD
ATOM     89  H   UNL     1     151.311 170.761 192.430  0.00  0.00    +0.064 HD
ATOM     90  H   UNL     1     150.488 172.671 193.798  0.00  0.00    +0.062 HD
ATOM     91  H   UNL     1     148.102 173.323 193.735  0.00  0.00    +0.062 HD
ATOM     92  H   UNL     1     146.507 172.105 192.314  0.00  0.00    +0.062 HD
ENDBRANCH  75  78
ENDBRANCH  12  75
TORSDOF 10
ENDMDL
