MODEL 1
REMARK VINA RESULT:      -7.2      0.000      0.000
REMARK  Name = Jasplakinolide_conf1
REMARK  10 active torsions:
REMARK  status: ('A' for Active; 'I' for Inactive)
REMARK    1  A    between atoms: C_1  and  C_2
REMARK    2  A    between atoms: C_4  and  C_47
REMARK    3  A    between atoms: C_9  and  C_40
REMARK    4  A    between atoms: C_13  and  C_29
REMARK    5  A    between atoms: N_14  and  C_28
REMARK    6  A    between atoms: C_17  and  C_27
REMARK    7  A    between atoms: C_21  and  C_26
REMARK    8  A    between atoms: C_23  and  C_25
REMARK    9  A    between atoms: C_29  and  C_30
REMARK   10  A    between atoms: C_43  and  O_46
REMARK                            x       y       z     vdW  Elec       q    Type
REMARK                         _______ _______ _______ _____ _____    ______ ____
ROOT
ATOM      1  C   UNL     1     143.732 164.593 187.773  0.00  0.00    -0.022 C 
ATOM      2  C   UNL     1     142.963 164.235 189.068  0.00  0.00    -0.010 C 
ATOM      3  C   UNL     1     142.746 165.390 190.065  0.00  0.00    +0.101 C 
ATOM      4  O   UNL     1     144.043 165.806 190.539  0.00  0.00    -0.462 OA
ATOM      5  C   UNL     1     144.073 166.439 191.739  0.00  0.00    +0.309 C 
ATOM      6  O   UNL     1     143.100 166.638 192.457  0.00  0.00    -0.251 OA
ATOM      7  C   UNL     1     145.477 166.795 192.144  0.00  0.00    +0.067 C 
ATOM      8  C   UNL     1     146.233 167.573 191.061  0.00  0.00    +0.058 C 
ATOM      9  N   UNL     1     145.645 168.883 190.827  0.00  0.00    -0.306 N 
ATOM     10  C   UNL     1     145.537 169.430 189.563  0.00  0.00    +0.234 C 
ATOM     11  O   UNL     1     145.917 168.843 188.550  0.00  0.00    -0.274 OA
ATOM     12  C   UNL     1     144.913 170.848 189.533  0.00  0.00    +0.106 C 
ATOM     13  N   UNL     1     143.978 170.968 188.387  0.00  0.00    -0.291 N 
ATOM     14  C   UNL     1     142.631 170.713 188.612  0.00  0.00    +0.236 C 
ATOM     15  O   UNL     1     142.232 170.282 189.701  0.00  0.00    -0.274 OA
ATOM     16  C   UNL     1     141.624 170.939 187.462  0.00  0.00    +0.097 C 
ATOM     17  N   UNL     1     141.124 169.628 187.063  0.00  0.00    -0.304 N 
ATOM     18  C   UNL     1     141.395 169.075 185.835  0.00  0.00    +0.217 C 
ATOM     19  O   UNL     1     142.004 169.671 184.951  0.00  0.00    -0.275 OA
ATOM     20  C   UNL     1     140.829 167.674 185.646  0.00  0.00    +0.036 C 
ATOM     21  C   UNL     1     141.872 166.729 185.030  0.00  0.00    -0.021 C 
ATOM     22  C   UNL     1     142.944 166.304 186.023  0.00  0.00    -0.076 C 
ATOM     23  C   UNL     1     142.803 165.158 186.719  0.00  0.00    -0.082 C 
ATOM     24  H   UNL     1     144.527 165.301 188.028  0.00  0.00    +0.034 HD
ATOM     25  H   UNL     1     141.991 163.787 188.822  0.00  0.00    +0.031 HD
ATOM     26  H   UNL     1     143.533 163.461 189.601  0.00  0.00    +0.031 HD
ATOM     27  H   UNL     1     142.171 164.975 190.904  0.00  0.00    +0.073 HD
ATOM     28  H   UNL     1     145.991 165.860 192.396  0.00  0.00    +0.040 HD
ATOM     29  H   UNL     1     145.402 167.384 193.066  0.00  0.00    +0.040 HD
ATOM     30  H   UNL     1     146.176 167.000 190.126  0.00  0.00    +0.055 HD
ATOM     31  H   UNL     1     145.443 169.467 191.631  0.00  0.00    +0.149 HD
ATOM     32  H   UNL     1     144.316 170.945 190.449  0.00  0.00    +0.060 HD
ATOM     33  H   UNL     1     142.084 171.448 186.613  0.00  0.00    +0.059 HD
ATOM     34  H   UNL     1     140.705 169.058 187.790  0.00  0.00    +0.149 HD
ATOM     35  H   UNL     1     140.503 167.274 186.614  0.00  0.00    +0.039 HD
ATOM     36  H   UNL     1     141.362 165.830 184.658  0.00  0.00    +0.032 HD
ATOM     37  H   UNL     1     142.344 167.177 184.147  0.00  0.00    +0.032 HD
ATOM     38  H   UNL     1     141.913 164.556 186.532  0.00  0.00    +0.057 HD
ENDROOT
BRANCH   8  39
ATOM     39  C   UNL     1     147.707 167.748 191.410  0.00  0.00    -0.026 A 
ATOM     40  C   UNL     1     148.685 167.993 190.431  0.00  0.00    -0.053 A 
ATOM     41  C   UNL     1     150.031 168.121 190.784  0.00  0.00    -0.020 A 
ATOM     42  C   UNL     1     150.412 167.984 192.112  0.00  0.00    +0.117 A 
ATOM     43  C   UNL     1     149.467 167.732 193.101  0.00  0.00    -0.020 A 
ATOM     44  C   UNL     1     148.120 167.610 192.747  0.00  0.00    -0.053 A 
ATOM     45  H   UNL     1     148.419 168.070 189.379  0.00  0.00    +0.062 HD
ATOM     46  H   UNL     1     150.778 168.313 190.020  0.00  0.00    +0.065 HD
ATOM     47  H   UNL     1     149.753 167.609 194.140  0.00  0.00    +0.065 HD
ATOM     48  H   UNL     1     147.388 167.383 193.521  0.00  0.00    +0.062 HD
BRANCH  42  49
ATOM     49  O   UNL     1     151.740 168.084 192.406  0.00  0.00    -0.507 OA
ATOM     50  H   UNL     1     151.906 167.604 193.235  0.00  0.00    +0.292 HD
ENDBRANCH  42  49
ENDBRANCH   8  39
BRANCH   1  51
ATOM     51  C   UNL     1     144.399 163.338 187.197  0.00  0.00    -0.059 C 
ATOM     52  H   UNL     1     144.893 162.763 187.988  0.00  0.00    +0.024 HD
ATOM     53  H   UNL     1     145.163 163.602 186.456  0.00  0.00    +0.024 HD
ATOM     54  H   UNL     1     143.668 162.681 186.709  0.00  0.00    +0.024 HD
ENDBRANCH   1  51
BRANCH  22  55
ATOM     55  C   UNL     1     144.138 167.218 186.125  0.00  0.00    -0.044 C 
ATOM     56  H   UNL     1     144.771 166.930 186.972  0.00  0.00    +0.027 HD
ATOM     57  H   UNL     1     144.736 167.164 185.212  0.00  0.00    +0.027 HD
ATOM     58  H   UNL     1     143.862 168.263 186.291  0.00  0.00    +0.027 HD
ENDBRANCH  22  55
BRANCH  20  59
ATOM     59  C   UNL     1     139.598 167.785 184.745  0.00  0.00    -0.054 C 
ATOM     60  H   UNL     1     139.659 167.091 183.899  0.00  0.00    +0.024 HD
ATOM     61  H   UNL     1     138.685 167.563 185.305  0.00  0.00    +0.024 HD
ATOM     62  H   UNL     1     139.506 168.798 184.337  0.00  0.00    +0.024 HD
ENDBRANCH  20  59
BRANCH  16  63
ATOM     63  C   UNL     1     140.468 171.806 187.952  0.00  0.00    -0.038 C 
ATOM     64  H   UNL     1     140.476 171.883 189.044  0.00  0.00    +0.025 HD
ATOM     65  H   UNL     1     140.527 172.825 187.551  0.00  0.00    +0.025 HD
ATOM     66  H   UNL     1     139.507 171.383 187.643  0.00  0.00    +0.025 HD
ENDBRANCH  16  63
BRANCH  13  67
ATOM     67  C   UNL     1     144.536 171.178 187.055  0.00  0.00    +0.004 C 
ATOM     68  H   UNL     1     144.804 170.230 186.587  0.00  0.00    +0.043 HD
ATOM     69  H   UNL     1     145.442 171.789 187.097  0.00  0.00    +0.043 HD
ATOM     70  H   UNL     1     143.780 171.689 186.446  0.00  0.00    +0.043 HD
ENDBRANCH  13  67
BRANCH   3  71
ATOM     71  C   UNL     1     141.998 166.587 189.491  0.00  0.00    -0.028 C 
ATOM     72  H   UNL     1     140.919 166.401 189.491  0.00  0.00    +0.027 HD
ATOM     73  H   UNL     1     142.142 167.481 190.103  0.00  0.00    +0.027 HD
ATOM     74  H   UNL     1     142.298 166.790 188.461  0.00  0.00    +0.027 HD
ENDBRANCH   3  71
BRANCH  12  75
ATOM     75  C   UNL     1     145.982 171.958 189.565  0.00  0.00    +0.003 C 
ATOM     76  H   UNL     1     146.927 171.591 189.155  0.00  0.00    +0.034 HD
ATOM     77  H   UNL     1     145.670 172.769 188.892  0.00  0.00    +0.034 HD
BRANCH  75  78
ATOM     78  C   UNL     1     146.225 172.542 190.925  0.00  0.00    -0.006 A 
ATOM     79  C   UNL     1     145.365 173.328 191.665  0.00  0.00    +0.087 A 
ATOM     80  N   UNL     1     145.979 173.695 192.824  0.00  0.00    -0.349 N 
ATOM     81  C   UNL     1     147.240 173.149 192.882  0.00  0.00    +0.048 A 
ATOM     82  C   UNL     1     148.223 173.264 193.871  0.00  0.00    -0.038 A 
ATOM     83  C   UNL     1     149.431 172.593 193.661  0.00  0.00    -0.060 A 
ATOM     84  C   UNL     1     149.640 171.835 192.512  0.00  0.00    -0.061 A 
ATOM     85  C   UNL     1     148.645 171.732 191.534  0.00  0.00    -0.052 A 
ATOM     86  C   UNL     1     147.417 172.405 191.715  0.00  0.00    +0.004 A 
ATOM     87 BR   UNL     1     143.602 173.877 191.199  0.00  0.00    -0.031 Br
ATOM     88  H   UNL     1     145.574 174.307 193.519  0.00  0.00    +0.166 HD
ATOM     89  H   UNL     1     148.059 173.847 194.772  0.00  0.00    +0.064 HD
ATOM     90  H   UNL     1     150.216 172.659 194.411  0.00  0.00    +0.062 HD
ATOM     91  H   UNL     1     150.585 171.315 192.374  0.00  0.00    +0.062 HD
ATOM     92  H   UNL     1     148.826 171.131 190.648  0.00  0.00    +0.062 HD
ENDBRANCH  75  78
ENDBRANCH  12  75
TORSDOF 10
ENDMDL
MODEL 2
REMARK VINA RESULT:      -6.7      3.406      6.300
REMARK  Name = Jasplakinolide_conf1
REMARK  10 active torsions:
REMARK  status: ('A' for Active; 'I' for Inactive)
REMARK    1  A    between atoms: C_1  and  C_2
REMARK    2  A    between atoms: C_4  and  C_47
REMARK    3  A    between atoms: C_9  and  C_40
REMARK    4  A    between atoms: C_13  and  C_29
REMARK    5  A    between atoms: N_14  and  C_28
REMARK    6  A    between atoms: C_17  and  C_27
REMARK    7  A    between atoms: C_21  and  C_26
REMARK    8  A    between atoms: C_23  and  C_25
REMARK    9  A    between atoms: C_29  and  C_30
REMARK   10  A    between atoms: C_43  and  O_46
REMARK                            x       y       z     vdW  Elec       q    Type
REMARK                         _______ _______ _______ _____ _____    ______ ____
ROOT
ATOM      1  C   UNL     1     143.472 170.717 190.887  0.00  0.00    -0.022 C 
ATOM      2  C   UNL     1     144.379 171.970 190.921  0.00  0.00    -0.010 C 
ATOM      3  C   UNL     1     145.809 171.783 190.377  0.00  0.00    +0.101 C 
ATOM      4  O   UNL     1     146.484 170.846 191.239  0.00  0.00    -0.462 OA
ATOM      5  C   UNL     1     147.841 170.904 191.250  0.00  0.00    +0.309 C 
ATOM      6  O   UNL     1     148.518 171.712 190.626  0.00  0.00    -0.251 OA
ATOM      7  C   UNL     1     148.431 169.905 192.207  0.00  0.00    +0.067 C 
ATOM      8  C   UNL     1     147.916 168.480 191.978  0.00  0.00    +0.058 C 
ATOM      9  N   UNL     1     148.341 167.952 190.691  0.00  0.00    -0.306 N 
ATOM     10  C   UNL     1     147.515 167.176 189.899  0.00  0.00    +0.234 C 
ATOM     11  O   UNL     1     146.363 166.890 190.223  0.00  0.00    -0.274 OA
ATOM     12  C   UNL     1     148.170 166.686 188.584  0.00  0.00    +0.106 C 
ATOM     13  N   UNL     1     147.196 166.777 187.468  0.00  0.00    -0.291 N 
ATOM     14  C   UNL     1     147.203 167.925 186.685  0.00  0.00    +0.236 C 
ATOM     15  O   UNL     1     147.913 168.896 186.975  0.00  0.00    -0.274 OA
ATOM     16  C   UNL     1     146.276 167.996 185.450  0.00  0.00    +0.097 C 
ATOM     17  N   UNL     1     145.253 168.996 185.736  0.00  0.00    -0.304 N 
ATOM     18  C   UNL     1     143.927 168.676 185.893  0.00  0.00    +0.217 C 
ATOM     19  O   UNL     1     143.487 167.542 185.723  0.00  0.00    -0.275 OA
ATOM     20  C   UNL     1     143.039 169.861 186.247  0.00  0.00    +0.036 C 
ATOM     21  C   UNL     1     142.081 169.517 187.397  0.00  0.00    -0.021 C 
ATOM     22  C   UNL     1     142.776 169.466 188.750  0.00  0.00    -0.076 C 
ATOM     23  C   UNL     1     142.800 170.559 189.537  0.00  0.00    -0.082 C 
ATOM     24  H   UNL     1     144.080 169.842 191.135  0.00  0.00    +0.034 HD
ATOM     25  H   UNL     1     143.899 172.802 190.389  0.00  0.00    +0.031 HD
ATOM     26  H   UNL     1     144.479 172.290 191.967  0.00  0.00    +0.031 HD
ATOM     27  H   UNL     1     146.302 172.762 190.450  0.00  0.00    +0.073 HD
ATOM     28  H   UNL     1     148.205 170.252 193.222  0.00  0.00    +0.040 HD
ATOM     29  H   UNL     1     149.520 169.950 192.082  0.00  0.00    +0.040 HD
ATOM     30  H   UNL     1     146.818 168.506 191.991  0.00  0.00    +0.055 HD
ATOM     31  H   UNL     1     149.319 168.039 190.438  0.00  0.00    +0.149 HD
ATOM     32  H   UNL     1     148.983 167.387 188.360  0.00  0.00    +0.060 HD
ATOM     33  H   UNL     1     145.816 167.030 185.232  0.00  0.00    +0.059 HD
ATOM     34  H   UNL     1     145.580 169.924 185.984  0.00  0.00    +0.149 HD
ATOM     35  H   UNL     1     143.662 170.716 186.536  0.00  0.00    +0.039 HD
ATOM     36  H   UNL     1     141.288 170.275 187.439  0.00  0.00    +0.032 HD
ATOM     37  H   UNL     1     141.562 168.568 187.214  0.00  0.00    +0.032 HD
ATOM     38  H   UNL     1     142.298 171.458 189.176  0.00  0.00    +0.057 HD
ENDROOT
BRANCH   8  39
ATOM     39  C   UNL     1     148.371 167.527 193.077  0.00  0.00    -0.026 A 
ATOM     40  C   UNL     1     147.470 166.948 193.988  0.00  0.00    -0.053 A 
ATOM     41  C   UNL     1     147.926 166.100 195.001  0.00  0.00    -0.020 A 
ATOM     42  C   UNL     1     149.285 165.841 195.123  0.00  0.00    +0.117 A 
ATOM     43  C   UNL     1     150.199 166.406 194.242  0.00  0.00    -0.020 A 
ATOM     44  C   UNL     1     149.741 167.250 193.226  0.00  0.00    -0.053 A 
ATOM     45  H   UNL     1     146.405 167.162 193.936  0.00  0.00    +0.062 HD
ATOM     46  H   UNL     1     147.222 165.657 195.698  0.00  0.00    +0.065 HD
ATOM     47  H   UNL     1     151.265 166.223 194.336  0.00  0.00    +0.065 HD
ATOM     48  H   UNL     1     150.466 167.714 192.558  0.00  0.00    +0.062 HD
BRANCH  42  49
ATOM     49  O   UNL     1     149.688 165.033 196.146  0.00  0.00    -0.507 OA
ATOM     50  H   UNL     1     149.522 165.497 196.985  0.00  0.00    +0.292 HD
ENDBRANCH  42  49
ENDBRANCH   8  39
BRANCH   1  51
ATOM     51  C   UNL     1     142.377 170.834 191.953  0.00  0.00    -0.059 C 
ATOM     52  H   UNL     1     141.792 171.749 191.810  0.00  0.00    +0.024 HD
ATOM     53  H   UNL     1     142.809 170.874 192.960  0.00  0.00    +0.024 HD
ATOM     54  H   UNL     1     141.684 169.983 191.916  0.00  0.00    +0.024 HD
ENDBRANCH   1  51
BRANCH  22  55
ATOM     55  C   UNL     1     143.374 168.135 189.126  0.00  0.00    -0.044 C 
ATOM     56  H   UNL     1     143.189 167.394 188.340  0.00  0.00    +0.027 HD
ATOM     57  H   UNL     1     144.454 168.230 189.265  0.00  0.00    +0.027 HD
ATOM     58  H   UNL     1     142.947 167.720 190.043  0.00  0.00    +0.027 HD
ENDBRANCH  22  55
BRANCH  20  59
ATOM     59  C   UNL     1     142.260 170.253 184.990  0.00  0.00    -0.054 C 
ATOM     60  H   UNL     1     142.535 171.258 184.648  0.00  0.00    +0.024 HD
ATOM     61  H   UNL     1     142.457 169.549 184.175  0.00  0.00    +0.024 HD
ATOM     62  H   UNL     1     141.182 170.252 185.185  0.00  0.00    +0.024 HD
ENDBRANCH  20  59
BRANCH  16  63
ATOM     63  C   UNL     1     147.081 168.413 184.224  0.00  0.00    -0.038 C 
ATOM     64  H   UNL     1     146.481 169.046 183.562  0.00  0.00    +0.025 HD
ATOM     65  H   UNL     1     147.976 168.983 184.500  0.00  0.00    +0.025 HD
ATOM     66  H   UNL     1     147.407 167.536 183.657  0.00  0.00    +0.025 HD
ENDBRANCH  16  63
BRANCH  13  67
ATOM     67  C   UNL     1     146.173 165.743 187.352  0.00  0.00    +0.004 C 
ATOM     68  H   UNL     1     146.294 165.173 186.428  0.00  0.00    +0.043 HD
ATOM     69  H   UNL     1     145.170 166.178 187.338  0.00  0.00    +0.043 HD
ATOM     70  H   UNL     1     146.267 165.072 188.213  0.00  0.00    +0.043 HD
ENDBRANCH  13  67
BRANCH   3  71
ATOM     71  C   UNL     1     145.876 171.298 188.933  0.00  0.00    -0.028 C 
ATOM     72  H   UNL     1     146.560 171.924 188.350  0.00  0.00    +0.027 HD
ATOM     73  H   UNL     1     146.278 170.284 188.869  0.00  0.00    +0.027 HD
ATOM     74  H   UNL     1     144.897 171.341 188.451  0.00  0.00    +0.027 HD
ENDBRANCH   3  71
BRANCH  12  75
ATOM     75  C   UNL     1     148.799 165.286 188.729  0.00  0.00    +0.003 C 
ATOM     76  H   UNL     1     148.122 164.617 189.267  0.00  0.00    +0.034 HD
ATOM     77  H   UNL     1     148.910 164.843 187.729  0.00  0.00    +0.034 HD
BRANCH  75  78
ATOM     78  C   UNL     1     150.141 165.280 189.400  0.00  0.00    -0.006 A 
ATOM     79  C   UNL     1     150.467 164.710 190.614  0.00  0.00    +0.087 A 
ATOM     80  N   UNL     1     151.775 164.967 190.891  0.00  0.00    -0.349 N 
ATOM     81  C   UNL     1     152.341 165.689 189.867  0.00  0.00    +0.048 A 
ATOM     82  C   UNL     1     153.645 166.178 189.726  0.00  0.00    -0.038 A 
ATOM     83  C   UNL     1     153.944 166.892 188.563  0.00  0.00    -0.060 A 
ATOM     84  C   UNL     1     152.980 167.101 187.581  0.00  0.00    -0.061 A 
ATOM     85  C   UNL     1     151.681 166.604 187.739  0.00  0.00    -0.052 A 
ATOM     86  C   UNL     1     151.347 165.885 188.907  0.00  0.00    +0.004 A 
ATOM     87 BR   UNL     1     149.324 163.734 191.782  0.00  0.00    -0.031 Br
ATOM     88  H   UNL     1     152.245 164.692 191.743  0.00  0.00    +0.166 HD
ATOM     89  H   UNL     1     154.401 166.009 190.486  0.00  0.00    +0.064 HD
ATOM     90  H   UNL     1     154.949 167.284 188.421  0.00  0.00    +0.062 HD
ATOM     91  H   UNL     1     153.237 167.653 186.681  0.00  0.00    +0.062 HD
ATOM     92  H   UNL     1     150.946 166.772 186.958  0.00  0.00    +0.062 HD
ENDBRANCH  75  78
ENDBRANCH  12  75
TORSDOF 10
ENDMDL
MODEL 3
REMARK VINA RESULT:      -6.7      3.338      5.436
REMARK  Name = Jasplakinolide_conf1
REMARK  10 active torsions:
REMARK  status: ('A' for Active; 'I' for Inactive)
REMARK    1  A    between atoms: C_1  and  C_2
REMARK    2  A    between atoms: C_4  and  C_47
REMARK    3  A    between atoms: C_9  and  C_40
REMARK    4  A    between atoms: C_13  and  C_29
REMARK    5  A    between atoms: N_14  and  C_28
REMARK    6  A    between atoms: C_17  and  C_27
REMARK    7  A    between atoms: C_21  and  C_26
REMARK    8  A    between atoms: C_23  and  C_25
REMARK    9  A    between atoms: C_29  and  C_30
REMARK   10  A    between atoms: C_43  and  O_46
REMARK                            x       y       z     vdW  Elec       q    Type
REMARK                         _______ _______ _______ _____ _____    ______ ____
ROOT
ATOM      1  C   UNL     1     146.016 165.024 185.349  0.00  0.00    -0.022 C 
ATOM      2  C   UNL     1     146.034 163.539 185.785  0.00  0.00    -0.010 C 
ATOM      3  C   UNL     1     146.317 163.277 187.277  0.00  0.00    +0.101 C 
ATOM      4  O   UNL     1     147.656 163.733 187.555  0.00  0.00    -0.462 OA
ATOM      5  C   UNL     1     148.274 163.178 188.628  0.00  0.00    +0.309 C 
ATOM      6  O   UNL     1     147.801 162.299 189.338  0.00  0.00    -0.251 OA
ATOM      7  C   UNL     1     149.672 163.706 188.798  0.00  0.00    +0.067 C 
ATOM      8  C   UNL     1     149.735 165.237 188.823  0.00  0.00    +0.058 C 
ATOM      9  N   UNL     1     149.062 165.786 189.990  0.00  0.00    -0.306 N 
ATOM     10  C   UNL     1     148.299 166.937 189.931  0.00  0.00    +0.234 C 
ATOM     11  O   UNL     1     148.127 167.567 188.888  0.00  0.00    -0.274 OA
ATOM     12  C   UNL     1     147.695 167.373 191.289  0.00  0.00    +0.106 C 
ATOM     13  N   UNL     1     146.301 167.843 191.098  0.00  0.00    -0.291 N 
ATOM     14  C   UNL     1     145.272 166.929 191.281  0.00  0.00    +0.236 C 
ATOM     15  O   UNL     1     145.504 165.730 191.480  0.00  0.00    -0.274 OA
ATOM     16  C   UNL     1     143.808 167.421 191.197  0.00  0.00    +0.097 C 
ATOM     17  N   UNL     1     143.225 166.835 189.995  0.00  0.00    -0.304 N 
ATOM     18  C   UNL     1     142.848 167.590 188.911  0.00  0.00    +0.217 C 
ATOM     19  O   UNL     1     142.895 168.816 188.900  0.00  0.00    -0.275 OA
ATOM     20  C   UNL     1     142.319 166.773 187.740  0.00  0.00    +0.036 C 
ATOM     21  C   UNL     1     142.933 167.240 186.411  0.00  0.00    -0.021 C 
ATOM     22  C   UNL     1     144.378 166.795 186.239  0.00  0.00    -0.076 C 
ATOM     23  C   UNL     1     144.657 165.650 185.585  0.00  0.00    -0.082 C 
ATOM     24  H   UNL     1     146.802 165.555 185.896  0.00  0.00    +0.034 HD
ATOM     25  H   UNL     1     145.092 163.049 185.508  0.00  0.00    +0.031 HD
ATOM     26  H   UNL     1     146.826 163.027 185.220  0.00  0.00    +0.031 HD
ATOM     27  H   UNL     1     146.270 162.189 187.419  0.00  0.00    +0.073 HD
ATOM     28  H   UNL     1     150.278 163.296 187.982  0.00  0.00    +0.040 HD
ATOM     29  H   UNL     1     150.059 163.285 189.734  0.00  0.00    +0.040 HD
ATOM     30  H   UNL     1     149.228 165.615 187.926  0.00  0.00    +0.055 HD
ATOM     31  H   UNL     1     149.278 165.390 190.898  0.00  0.00    +0.149 HD
ATOM     32  H   UNL     1     147.650 166.471 191.913  0.00  0.00    +0.060 HD
ATOM     33  H   UNL     1     143.748 168.511 191.159  0.00  0.00    +0.059 HD
ATOM     34  H   UNL     1     143.261 165.824 189.918  0.00  0.00    +0.149 HD
ATOM     35  H   UNL     1     142.551 165.712 187.894  0.00  0.00    +0.039 HD
ATOM     36  H   UNL     1     142.339 166.833 185.582  0.00  0.00    +0.032 HD
ATOM     37  H   UNL     1     142.868 168.330 186.304  0.00  0.00    +0.032 HD
ATOM     38  H   UNL     1     143.821 165.078 185.180  0.00  0.00    +0.057 HD
ENDROOT
BRANCH   8  39
ATOM     39  C   UNL     1     151.171 165.748 188.796  0.00  0.00    -0.026 A 
ATOM     40  C   UNL     1     151.641 166.611 187.791  0.00  0.00    -0.053 A 
ATOM     41  C   UNL     1     152.971 167.037 187.782  0.00  0.00    -0.020 A 
ATOM     42  C   UNL     1     153.846 166.590 188.763  0.00  0.00    +0.117 A 
ATOM     43  C   UNL     1     153.412 165.729 189.764  0.00  0.00    -0.020 A 
ATOM     44  C   UNL     1     152.079 165.307 189.775  0.00  0.00    -0.053 A 
ATOM     45  H   UNL     1     150.987 166.949 186.991  0.00  0.00    +0.062 HD
ATOM     46  H   UNL     1     153.324 167.706 187.001  0.00  0.00    +0.065 HD
ATOM     47  H   UNL     1     154.089 165.360 190.528  0.00  0.00    +0.065 HD
ATOM     48  H   UNL     1     151.752 164.608 190.545  0.00  0.00    +0.062 HD
BRANCH  42  49
ATOM     49  O   UNL     1     155.143 167.006 188.696  0.00  0.00    -0.507 OA
ATOM     50  H   UNL     1     155.154 167.978 188.716  0.00  0.00    +0.292 HD
ENDBRANCH  42  49
ENDBRANCH   8  39
BRANCH   1  51
ATOM     51  C   UNL     1     146.340 165.135 183.855  0.00  0.00    -0.059 C 
ATOM     52  H   UNL     1     145.536 164.699 183.250  0.00  0.00    +0.024 HD
ATOM     53  H   UNL     1     147.264 164.597 183.610  0.00  0.00    +0.024 HD
ATOM     54  H   UNL     1     146.466 166.180 183.545  0.00  0.00    +0.024 HD
ENDBRANCH   1  51
BRANCH  22  55
ATOM     55  C   UNL     1     145.419 167.724 186.808  0.00  0.00    -0.044 C 
ATOM     56  H   UNL     1     144.963 168.427 187.514  0.00  0.00    +0.027 HD
ATOM     57  H   UNL     1     146.188 167.154 187.335  0.00  0.00    +0.027 HD
ATOM     58  H   UNL     1     145.909 168.333 186.044  0.00  0.00    +0.027 HD
ENDBRANCH  22  55
BRANCH  20  59
ATOM     59  C   UNL     1     140.797 166.922 187.717  0.00  0.00    -0.054 C 
ATOM     60  H   UNL     1     140.381 166.618 186.749  0.00  0.00    +0.024 HD
ATOM     61  H   UNL     1     140.334 166.308 188.496  0.00  0.00    +0.024 HD
ATOM     62  H   UNL     1     140.506 167.964 187.890  0.00  0.00    +0.024 HD
ENDBRANCH  20  59
BRANCH  16  63
ATOM     63  C   UNL     1     143.036 166.957 192.428  0.00  0.00    -0.038 C 
ATOM     64  H   UNL     1     142.029 167.384 192.438  0.00  0.00    +0.025 HD
ATOM     65  H   UNL     1     142.931 165.866 192.454  0.00  0.00    +0.025 HD
ATOM     66  H   UNL     1     143.549 167.262 193.346  0.00  0.00    +0.025 HD
ENDBRANCH  16  63
BRANCH  13  67
ATOM     67  C   UNL     1     146.087 169.185 190.566  0.00  0.00    +0.004 C 
ATOM     68  H   UNL     1     145.057 169.315 190.232  0.00  0.00    +0.043 HD
ATOM     69  H   UNL     1     146.736 169.378 189.707  0.00  0.00    +0.043 HD
ATOM     70  H   UNL     1     146.311 169.907 191.360  0.00  0.00    +0.043 HD
ENDBRANCH  13  67
BRANCH   3  71
ATOM     71  C   UNL     1     145.335 163.946 188.232  0.00  0.00    -0.028 C 
ATOM     72  H   UNL     1     144.307 163.663 187.985  0.00  0.00    +0.027 HD
ATOM     73  H   UNL     1     145.492 163.618 189.263  0.00  0.00    +0.027 HD
ATOM     74  H   UNL     1     145.401 165.035 188.175  0.00  0.00    +0.027 HD
ENDBRANCH   3  71
BRANCH  12  75
ATOM     75  C   UNL     1     148.586 168.393 192.025  0.00  0.00    +0.003 C 
ATOM     76  H   UNL     1     148.913 169.180 191.340  0.00  0.00    +0.034 HD
ATOM     77  H   UNL     1     147.982 168.905 192.787  0.00  0.00    +0.034 HD
BRANCH  75  78
ATOM     78  C   UNL     1     149.785 167.793 192.699  0.00  0.00    -0.006 A 
ATOM     79  C   UNL     1     151.107 167.925 192.328  0.00  0.00    +0.087 A 
ATOM     80  N   UNL     1     151.884 167.186 193.168  0.00  0.00    -0.349 N 
ATOM     81  C   UNL     1     151.099 166.571 194.116  0.00  0.00    +0.048 A 
ATOM     82  C   UNL     1     151.461 165.718 195.164  0.00  0.00    -0.038 A 
ATOM     83  C   UNL     1     150.437 165.231 195.982  0.00  0.00    -0.060 A 
ATOM     84  C   UNL     1     149.111 165.591 195.762  0.00  0.00    -0.061 A 
ATOM     85  C   UNL     1     148.768 166.447 194.709  0.00  0.00    -0.052 A 
ATOM     86  C   UNL     1     149.779 166.948 193.860  0.00  0.00    +0.004 A 
ATOM     87 BR   UNL     1     151.810 168.933 190.873  0.00  0.00    -0.031 Br
ATOM     88  H   UNL     1     152.885 167.083 193.081  0.00  0.00    +0.166 HD
ATOM     89  H   UNL     1     152.495 165.443 195.343  0.00  0.00    +0.064 HD
ATOM     90  H   UNL     1     150.684 164.567 196.808  0.00  0.00    +0.062 HD
ATOM     91  H   UNL     1     148.332 165.207 196.416  0.00  0.00    +0.062 HD
ATOM     92  H   UNL     1     147.728 166.719 194.558  0.00  0.00    +0.062 HD
ENDBRANCH  75  78
ENDBRANCH  12  75
TORSDOF 10
ENDMDL
MODEL 4
REMARK VINA RESULT:      -6.6      4.169      9.474
REMARK  Name = Jasplakinolide_conf1
REMARK  10 active torsions:
REMARK  status: ('A' for Active; 'I' for Inactive)
REMARK    1  A    between atoms: C_1  and  C_2
REMARK    2  A    between atoms: C_4  and  C_47
REMARK    3  A    between atoms: C_9  and  C_40
REMARK    4  A    between atoms: C_13  and  C_29
REMARK    5  A    between atoms: N_14  and  C_28
REMARK    6  A    between atoms: C_17  and  C_27
REMARK    7  A    between atoms: C_21  and  C_26
REMARK    8  A    between atoms: C_23  and  C_25
REMARK    9  A    between atoms: C_29  and  C_30
REMARK   10  A    between atoms: C_43  and  O_46
REMARK                            x       y       z     vdW  Elec       q    Type
REMARK                         _______ _______ _______ _____ _____    ______ ____
ROOT
ATOM      1  C   UNL     1     151.442 168.177 191.830  0.00  0.00    -0.022 C 
ATOM      2  C   UNL     1     151.213 167.461 193.183  0.00  0.00    -0.010 C 
ATOM      3  C   UNL     1     150.307 166.215 193.141  0.00  0.00    +0.101 C 
ATOM      4  O   UNL     1     148.988 166.647 192.752  0.00  0.00    -0.462 OA
ATOM      5  C   UNL     1     147.957 165.842 193.115  0.00  0.00    +0.309 C 
ATOM      6  O   UNL     1     148.061 164.817 193.777  0.00  0.00    -0.251 OA
ATOM      7  C   UNL     1     146.633 166.410 192.685  0.00  0.00    +0.067 C 
ATOM      8  C   UNL     1     146.589 166.767 191.196  0.00  0.00    +0.058 C 
ATOM      9  N   UNL     1     146.699 165.586 190.353  0.00  0.00    -0.306 N 
ATOM     10  C   UNL     1     147.431 165.579 189.180  0.00  0.00    +0.234 C 
ATOM     11  O   UNL     1     148.048 166.564 188.777  0.00  0.00    -0.274 OA
ATOM     12  C   UNL     1     147.392 164.234 188.414  0.00  0.00    +0.106 C 
ATOM     13  N   UNL     1     148.739 163.916 187.877  0.00  0.00    -0.291 N 
ATOM     14  C   UNL     1     149.573 163.107 188.640  0.00  0.00    +0.236 C 
ATOM     15  O   UNL     1     149.258 162.756 189.783  0.00  0.00    -0.274 OA
ATOM     16  C   UNL     1     150.935 162.672 188.053  0.00  0.00    +0.097 C 
ATOM     17  N   UNL     1     151.973 163.341 188.831  0.00  0.00    -0.304 N 
ATOM     18  C   UNL     1     152.794 164.303 188.297  0.00  0.00    +0.217 C 
ATOM     19  O   UNL     1     152.777 164.615 187.110  0.00  0.00    -0.275 OA
ATOM     20  C   UNL     1     153.766 164.915 189.298  0.00  0.00    +0.036 C 
ATOM     21  C   UNL     1     153.796 166.447 189.181  0.00  0.00    -0.021 C 
ATOM     22  C   UNL     1     152.562 167.109 189.775  0.00  0.00    -0.076 C 
ATOM     23  C   UNL     1     152.576 167.537 191.053  0.00  0.00    -0.082 C 
ATOM     24  H   UNL     1     150.506 168.155 191.263  0.00  0.00    +0.034 HD
ATOM     25  H   UNL     1     152.174 167.190 193.638  0.00  0.00    +0.031 HD
ATOM     26  H   UNL     1     150.736 168.174 193.869  0.00  0.00    +0.031 HD
ATOM     27  H   UNL     1     150.271 165.820 194.166  0.00  0.00    +0.073 HD
ATOM     28  H   UNL     1     146.434 167.287 193.311  0.00  0.00    +0.040 HD
ATOM     29  H   UNL     1     145.871 165.658 192.927  0.00  0.00    +0.040 HD
ATOM     30  H   UNL     1     147.441 167.424 190.977  0.00  0.00    +0.055 HD
ATOM     31  H   UNL     1     146.104 164.793 190.562  0.00  0.00    +0.149 HD
ATOM     32  H   UNL     1     147.149 163.461 189.153  0.00  0.00    +0.060 HD
ATOM     33  H   UNL     1     151.024 162.931 186.996  0.00  0.00    +0.059 HD
ATOM     34  H   UNL     1     151.957 163.191 189.835  0.00  0.00    +0.149 HD
ATOM     35  H   UNL     1     153.473 164.634 190.317  0.00  0.00    +0.039 HD
ATOM     36  H   UNL     1     154.684 166.826 189.704  0.00  0.00    +0.032 HD
ATOM     37  H   UNL     1     153.919 166.764 188.139  0.00  0.00    +0.032 HD
ATOM     38  H   UNL     1     153.495 167.403 191.625  0.00  0.00    +0.057 HD
ENDROOT
BRANCH   8  39
ATOM     39  C   UNL     1     145.315 167.519 190.827  0.00  0.00    -0.026 A 
ATOM     40  C   UNL     1     145.337 168.709 190.079  0.00  0.00    -0.053 A 
ATOM     41  C   UNL     1     144.152 169.388 189.784  0.00  0.00    -0.020 A 
ATOM     42  C   UNL     1     142.941 168.895 190.249  0.00  0.00    +0.117 A 
ATOM     43  C   UNL     1     142.890 167.726 190.999  0.00  0.00    -0.020 A 
ATOM     44  C   UNL     1     144.076 167.045 191.290  0.00  0.00    -0.053 A 
ATOM     45  H   UNL     1     146.275 169.136 189.731  0.00  0.00    +0.062 HD
ATOM     46  H   UNL     1     144.180 170.305 189.202  0.00  0.00    +0.065 HD
ATOM     47  H   UNL     1     141.951 167.338 191.382  0.00  0.00    +0.065 HD
ATOM     48  H   UNL     1     144.033 166.145 191.904  0.00  0.00    +0.062 HD
BRANCH  42  49
ATOM     49  O   UNL     1     141.813 169.607 189.964  0.00  0.00    -0.507 OA
ATOM     50  H   UNL     1     141.570 170.123 190.752  0.00  0.00    +0.292 HD
ENDBRANCH  42  49
ENDBRANCH   8  39
BRANCH   1  51
ATOM     51  C   UNL     1     151.801 169.648 192.070  0.00  0.00    -0.059 C 
ATOM     52  H   UNL     1     152.359 170.056 191.220  0.00  0.00    +0.024 HD
ATOM     53  H   UNL     1     152.430 169.760 192.962  0.00  0.00    +0.024 HD
ATOM     54  H   UNL     1     150.904 170.264 192.211  0.00  0.00    +0.024 HD
ENDBRANCH   1  51
BRANCH  22  55
ATOM     55  C   UNL     1     151.393 167.269 188.839  0.00  0.00    -0.044 C 
ATOM     56  H   UNL     1     150.788 166.354 188.819  0.00  0.00    +0.027 HD
ATOM     57  H   UNL     1     150.757 168.096 189.163  0.00  0.00    +0.027 HD
ATOM     58  H   UNL     1     151.696 167.456 187.806  0.00  0.00    +0.027 HD
ENDBRANCH  22  55
BRANCH  20  59
ATOM     59  C   UNL     1     155.149 164.322 189.028  0.00  0.00    -0.054 C 
ATOM     60  H   UNL     1     155.939 165.067 189.179  0.00  0.00    +0.024 HD
ATOM     61  H   UNL     1     155.347 163.475 189.693  0.00  0.00    +0.024 HD
ATOM     62  H   UNL     1     155.224 163.965 187.995  0.00  0.00    +0.024 HD
ENDBRANCH  20  59
BRANCH  16  63
ATOM     63  C   UNL     1     151.090 161.160 188.175  0.00  0.00    -0.038 C 
ATOM     64  H   UNL     1     152.067 160.838 187.802  0.00  0.00    +0.025 HD
ATOM     65  H   UNL     1     151.009 160.825 189.216  0.00  0.00    +0.025 HD
ATOM     66  H   UNL     1     150.315 160.643 187.599  0.00  0.00    +0.025 HD
ENDBRANCH  16  63
BRANCH  13  67
ATOM     67  C   UNL     1     149.185 164.601 186.668  0.00  0.00    +0.004 C 
ATOM     68  H   UNL     1     149.231 165.680 186.822  0.00  0.00    +0.043 HD
ATOM     69  H   UNL     1     148.499 164.419 185.835  0.00  0.00    +0.043 HD
ATOM     70  H   UNL     1     150.180 164.222 186.409  0.00  0.00    +0.043 HD
ENDBRANCH  13  67
BRANCH   3  71
ATOM     71  C   UNL     1     150.788 165.116 192.201  0.00  0.00    -0.028 C 
ATOM     72  H   UNL     1     150.891 165.501 191.181  0.00  0.00    +0.027 HD
ATOM     73  H   UNL     1     151.781 164.755 192.481  0.00  0.00    +0.027 HD
ATOM     74  H   UNL     1     150.085 164.281 192.168  0.00  0.00    +0.027 HD
ENDBRANCH   3  71
BRANCH  12  75
ATOM     75  C   UNL     1     146.288 164.203 187.339  0.00  0.00    +0.003 C 
ATOM     76  H   UNL     1     146.357 165.084 186.694  0.00  0.00    +0.034 HD
ATOM     77  H   UNL     1     146.462 163.345 186.676  0.00  0.00    +0.034 HD
BRANCH  75  78
ATOM     78  C   UNL     1     144.896 164.100 187.888  0.00  0.00    -0.006 A 
ATOM     79  C   UNL     1     144.343 163.038 188.575  0.00  0.00    +0.087 A 
ATOM     80  N   UNL     1     143.040 163.317 188.857  0.00  0.00    -0.349 N 
ATOM     81  C   UNL     1     142.713 164.565 188.384  0.00  0.00    +0.048 A 
ATOM     82  C   UNL     1     141.496 165.256 188.438  0.00  0.00    -0.038 A 
ATOM     83  C   UNL     1     141.450 166.529 187.864  0.00  0.00    -0.060 A 
ATOM     84  C   UNL     1     142.577 167.087 187.267  0.00  0.00    -0.061 A 
ATOM     85  C   UNL     1     143.786 166.382 187.223  0.00  0.00    -0.052 A 
ATOM     86  C   UNL     1     143.860 165.091 187.788  0.00  0.00    +0.004 A 
ATOM     87 BR   UNL     1     145.190 161.403 189.061  0.00  0.00    -0.031 Br
ATOM     88  H   UNL     1     142.405 162.680 189.318  0.00  0.00    +0.166 HD
ATOM     89  H   UNL     1     140.619 164.826 188.911  0.00  0.00    +0.064 HD
ATOM     90  H   UNL     1     140.521 167.093 187.891  0.00  0.00    +0.062 HD
ATOM     91  H   UNL     1     142.521 168.082 186.833  0.00  0.00    +0.062 HD
ATOM     92  H   UNL     1     144.654 166.839 186.758  0.00  0.00    +0.062 HD
ENDBRANCH  75  78
ENDBRANCH  12  75
TORSDOF 10
ENDMDL
MODEL 5
REMARK VINA RESULT:      -6.6      3.068      6.552
REMARK  Name = Jasplakinolide_conf1
REMARK  10 active torsions:
REMARK  status: ('A' for Active; 'I' for Inactive)
REMARK    1  A    between atoms: C_1  and  C_2
REMARK    2  A    between atoms: C_4  and  C_47
REMARK    3  A    between atoms: C_9  and  C_40
REMARK    4  A    between atoms: C_13  and  C_29
REMARK    5  A    between atoms: N_14  and  C_28
REMARK    6  A    between atoms: C_17  and  C_27
REMARK    7  A    between atoms: C_21  and  C_26
REMARK    8  A    between atoms: C_23  and  C_25
REMARK    9  A    between atoms: C_29  and  C_30
REMARK   10  A    between atoms: C_43  and  O_46
REMARK                            x       y       z     vdW  Elec       q    Type
REMARK                         _______ _______ _______ _____ _____    ______ ____
ROOT
ATOM      1  C   UNL     1     141.869 168.972 188.522  0.00  0.00    -0.022 C 
ATOM      2  C   UNL     1     142.278 169.733 187.238  0.00  0.00    -0.010 C 
ATOM      3  C   UNL     1     143.780 169.717 186.894  0.00  0.00    +0.101 C 
ATOM      4  O   UNL     1     144.476 170.417 187.945  0.00  0.00    -0.462 OA
ATOM      5  C   UNL     1     145.688 170.939 187.624  0.00  0.00    +0.309 C 
ATOM      6  O   UNL     1     146.202 170.898 186.514  0.00  0.00    -0.251 OA
ATOM      7  C   UNL     1     146.301 171.671 188.786  0.00  0.00    +0.067 C 
ATOM      8  C   UNL     1     146.355 170.827 190.064  0.00  0.00    +0.058 C 
ATOM      9  N   UNL     1     147.247 169.687 189.921  0.00  0.00    -0.306 N 
ATOM     10  C   UNL     1     146.954 168.446 190.455  0.00  0.00    +0.234 C 
ATOM     11  O   UNL     1     145.915 168.218 191.073  0.00  0.00    -0.274 OA
ATOM     12  C   UNL     1     148.049 167.376 190.220  0.00  0.00    +0.106 C 
ATOM     13  N   UNL     1     147.424 166.075 189.879  0.00  0.00    -0.291 N 
ATOM     14  C   UNL     1     147.260 165.760 188.535  0.00  0.00    +0.236 C 
ATOM     15  O   UNL     1     147.515 166.582 187.647  0.00  0.00    -0.274 OA
ATOM     16  C   UNL     1     146.713 164.365 188.154  0.00  0.00    +0.097 C 
ATOM     17  N   UNL     1     145.384 164.564 187.586  0.00  0.00    -0.304 N 
ATOM     18  C   UNL     1     144.241 164.116 188.203  0.00  0.00    +0.217 C 
ATOM     19  O   UNL     1     144.254 163.444 189.231  0.00  0.00    -0.275 OA
ATOM     20  C   UNL     1     142.957 164.482 187.472  0.00  0.00    +0.036 C 
ATOM     21  C   UNL     1     141.899 165.029 188.442  0.00  0.00    -0.021 C 
ATOM     22  C   UNL     1     142.197 166.449 188.901  0.00  0.00    -0.076 C 
ATOM     23  C   UNL     1     141.660 167.497 188.245  0.00  0.00    -0.082 C 
ATOM     24  H   UNL     1     142.643 169.130 189.280  0.00  0.00    +0.034 HD
ATOM     25  H   UNL     1     141.710 169.359 186.376  0.00  0.00    +0.031 HD
ATOM     26  H   UNL     1     141.994 170.787 187.361  0.00  0.00    +0.031 HD
ATOM     27  H   UNL     1     143.892 170.274 185.953  0.00  0.00    +0.073 HD
ATOM     28  H   UNL     1     145.720 172.588 188.938  0.00  0.00    +0.040 HD
ATOM     29  H   UNL     1     147.309 171.972 188.475  0.00  0.00    +0.040 HD
ATOM     30  H   UNL     1     145.345 170.448 190.267  0.00  0.00    +0.055 HD
ATOM     31  H   UNL     1     148.174 169.849 189.544  0.00  0.00    +0.149 HD
ATOM     32  H   UNL     1     148.619 167.701 189.341  0.00  0.00    +0.060 HD
ATOM     33  H   UNL     1     146.666 163.698 189.017  0.00  0.00    +0.059 HD
ATOM     34  H   UNL     1     145.316 165.197 186.797  0.00  0.00    +0.149 HD
ATOM     35  H   UNL     1     143.171 165.235 186.703  0.00  0.00    +0.039 HD
ATOM     36  H   UNL     1     140.921 165.020 187.943  0.00  0.00    +0.032 HD
ATOM     37  H   UNL     1     141.783 164.376 189.315  0.00  0.00    +0.032 HD
ATOM     38  H   UNL     1     141.004 167.286 187.399  0.00  0.00    +0.057 HD
ENDROOT
BRANCH   8  39
ATOM     39  C   UNL     1     146.794 171.649 191.271  0.00  0.00    -0.026 A 
ATOM     40  C   UNL     1     147.974 171.367 191.981  0.00  0.00    -0.053 A 
ATOM     41  C   UNL     1     148.331 172.124 193.099  0.00  0.00    -0.020 A 
ATOM     42  C   UNL     1     147.505 173.153 193.528  0.00  0.00    +0.117 A 
ATOM     43  C   UNL     1     146.328 173.449 192.851  0.00  0.00    -0.020 A 
ATOM     44  C   UNL     1     145.974 172.694 191.728  0.00  0.00    -0.053 A 
ATOM     45  H   UNL     1     148.622 170.544 191.688  0.00  0.00    +0.062 HD
ATOM     46  H   UNL     1     149.247 171.898 193.640  0.00  0.00    +0.065 HD
ATOM     47  H   UNL     1     145.666 174.242 193.184  0.00  0.00    +0.065 HD
ATOM     48  H   UNL     1     145.035 172.911 191.220  0.00  0.00    +0.062 HD
BRANCH  42  49
ATOM     49  O   UNL     1     147.877 173.845 194.644  0.00  0.00    -0.507 OA
ATOM     50  H   UNL     1     148.506 174.537 194.378  0.00  0.00    +0.292 HD
ENDBRANCH  42  49
ENDBRANCH   8  39
BRANCH   1  51
ATOM     51  C   UNL     1     140.559 169.544 189.075  0.00  0.00    -0.059 C 
ATOM     52  H   UNL     1     140.731 170.510 189.561  0.00  0.00    +0.024 HD
ATOM     53  H   UNL     1     140.119 168.873 189.822  0.00  0.00    +0.024 HD
ATOM     54  H   UNL     1     139.817 169.695 188.280  0.00  0.00    +0.024 HD
ENDBRANCH   1  51
BRANCH  22  55
ATOM     55  C   UNL     1     143.076 166.570 190.119  0.00  0.00    -0.044 C 
ATOM     56  H   UNL     1     144.130 166.436 189.848  0.00  0.00    +0.027 HD
ATOM     57  H   UNL     1     142.959 167.556 190.574  0.00  0.00    +0.027 HD
ATOM     58  H   UNL     1     142.858 165.815 190.878  0.00  0.00    +0.027 HD
ENDBRANCH  22  55
BRANCH  20  59
ATOM     59  C   UNL     1     142.447 163.224 186.766  0.00  0.00    -0.054 C 
ATOM     60  H   UNL     1     142.787 163.186 185.724  0.00  0.00    +0.024 HD
ATOM     61  H   UNL     1     142.801 162.322 187.274  0.00  0.00    +0.024 HD
ATOM     62  H   UNL     1     141.352 163.200 186.757  0.00  0.00    +0.024 HD
ENDBRANCH  20  59
BRANCH  16  63
ATOM     63  C   UNL     1     147.628 163.719 187.118  0.00  0.00    -0.038 C 
ATOM     64  H   UNL     1     147.928 164.446 186.357  0.00  0.00    +0.025 HD
ATOM     65  H   UNL     1     148.543 163.324 187.574  0.00  0.00    +0.025 HD
ATOM     66  H   UNL     1     147.121 162.888 186.618  0.00  0.00    +0.025 HD
ENDBRANCH  16  63
BRANCH  13  67
ATOM     67  C   UNL     1     146.859 165.270 190.958  0.00  0.00    +0.004 C 
ATOM     68  H   UNL     1     145.929 165.705 191.327  0.00  0.00    +0.043 HD
ATOM     69  H   UNL     1     147.548 165.206 191.805  0.00  0.00    +0.043 HD
ATOM     70  H   UNL     1     146.666 164.264 190.568  0.00  0.00    +0.043 HD
ENDBRANCH  13  67
BRANCH   3  71
ATOM     71  C   UNL     1     144.374 168.323 186.721  0.00  0.00    -0.028 C 
ATOM     72  H   UNL     1     145.246 168.358 186.060  0.00  0.00    +0.027 HD
ATOM     73  H   UNL     1     144.738 167.923 187.669  0.00  0.00    +0.027 HD
ATOM     74  H   UNL     1     143.652 167.634 186.278  0.00  0.00    +0.027 HD
ENDBRANCH   3  71
BRANCH  12  75
ATOM     75  C   UNL     1     149.039 167.284 191.399  0.00  0.00    +0.003 C 
ATOM     76  H   UNL     1     148.972 168.178 192.025  0.00  0.00    +0.034 HD
ATOM     77  H   UNL     1     148.738 166.451 192.049  0.00  0.00    +0.034 HD
BRANCH  75  78
ATOM     78  C   UNL     1     150.467 167.072 190.990  0.00  0.00    -0.006 A 
ATOM     79  C   UNL     1     151.490 167.998 191.010  0.00  0.00    +0.087 A 
ATOM     80  N   UNL     1     152.621 167.425 190.514  0.00  0.00    -0.349 N 
ATOM     81  C   UNL     1     152.377 166.114 190.177  0.00  0.00    +0.048 A 
ATOM     82  C   UNL     1     153.234 165.153 189.629  0.00  0.00    -0.038 A 
ATOM     83  C   UNL     1     152.706 163.882 189.383  0.00  0.00    -0.060 A 
ATOM     84  C   UNL     1     151.379 163.588 189.681  0.00  0.00    -0.061 A 
ATOM     85  C   UNL     1     150.537 164.561 190.230  0.00  0.00    -0.052 A 
ATOM     86  C   UNL     1     151.040 165.856 190.482  0.00  0.00    +0.004 A 
ATOM     87 BR   UNL     1     151.405 169.808 191.592  0.00  0.00    -0.031 Br
ATOM     88  H   UNL     1     153.499 167.909 190.384  0.00  0.00    +0.166 HD
ATOM     89  H   UNL     1     154.272 165.378 189.404  0.00  0.00    +0.064 HD
ATOM     90  H   UNL     1     153.346 163.112 188.960  0.00  0.00    +0.062 HD
ATOM     91  H   UNL     1     150.992 162.590 189.489  0.00  0.00    +0.062 HD
ATOM     92  H   UNL     1     149.507 164.309 190.460  0.00  0.00    +0.062 HD
ENDBRANCH  75  78
ENDBRANCH  12  75
TORSDOF 10
ENDMDL
MODEL 6
REMARK VINA RESULT:      -6.5      2.577      5.978
REMARK  Name = Jasplakinolide_conf1
REMARK  10 active torsions:
REMARK  status: ('A' for Active; 'I' for Inactive)
REMARK    1  A    between atoms: C_1  and  C_2
REMARK    2  A    between atoms: C_4  and  C_47
REMARK    3  A    between atoms: C_9  and  C_40
REMARK    4  A    between atoms: C_13  and  C_29
REMARK    5  A    between atoms: N_14  and  C_28
REMARK    6  A    between atoms: C_17  and  C_27
REMARK    7  A    between atoms: C_21  and  C_26
REMARK    8  A    between atoms: C_23  and  C_25
REMARK    9  A    between atoms: C_29  and  C_30
REMARK   10  A    between atoms: C_43  and  O_46
REMARK                            x       y       z     vdW  Elec       q    Type
REMARK                         _______ _______ _______ _____ _____    ______ ____
ROOT
ATOM      1  C   UNL     1     141.487 172.896 189.137  0.00  0.00    -0.022 C 
ATOM      2  C   UNL     1     142.111 173.633 187.928  0.00  0.00    -0.010 C 
ATOM      3  C   UNL     1     143.369 172.983 187.318  0.00  0.00    +0.101 C 
ATOM      4  O   UNL     1     144.408 173.019 188.317  0.00  0.00    -0.462 OA
ATOM      5  C   UNL     1     145.685 172.959 187.862  0.00  0.00    +0.309 C 
ATOM      6  O   UNL     1     146.014 172.924 186.683  0.00  0.00    -0.251 OA
ATOM      7  C   UNL     1     146.678 173.038 188.989  0.00  0.00    +0.067 C 
ATOM      8  C   UNL     1     146.410 172.013 190.096  0.00  0.00    +0.058 C 
ATOM      9  N   UNL     1     146.596 170.649 189.626  0.00  0.00    -0.306 N 
ATOM     10  C   UNL     1     145.766 169.613 190.013  0.00  0.00    +0.234 C 
ATOM     11  O   UNL     1     144.810 169.776 190.769  0.00  0.00    -0.274 OA
ATOM     12  C   UNL     1     146.154 168.233 189.427  0.00  0.00    +0.106 C 
ATOM     13  N   UNL     1     144.935 167.495 189.015  0.00  0.00    -0.291 N 
ATOM     14  C   UNL     1     144.523 167.599 187.692  0.00  0.00    +0.236 C 
ATOM     15  O   UNL     1     145.079 168.374 186.905  0.00  0.00    -0.274 OA
ATOM     16  C   UNL     1     143.321 166.752 187.213  0.00  0.00    +0.097 C 
ATOM     17  N   UNL     1     142.228 167.676 186.933  0.00  0.00    -0.304 N 
ATOM     18  C   UNL     1     141.071 167.701 187.673  0.00  0.00    +0.217 C 
ATOM     19  O   UNL     1     140.832 166.897 188.570  0.00  0.00    -0.275 OA
ATOM     20  C   UNL     1     140.086 168.783 187.250  0.00  0.00    +0.036 C 
ATOM     21  C   UNL     1     139.531 169.539 188.468  0.00  0.00    -0.021 C 
ATOM     22  C   UNL     1     140.538 170.507 189.071  0.00  0.00    -0.076 C 
ATOM     23  C   UNL     1     140.544 171.799 188.687  0.00  0.00    -0.082 C 
ATOM     24  H   UNL     1     142.297 172.499 189.757  0.00  0.00    +0.034 HD
ATOM     25  H   UNL     1     141.362 173.773 187.138  0.00  0.00    +0.031 HD
ATOM     26  H   UNL     1     142.405 174.640 188.256  0.00  0.00    +0.031 HD
ATOM     27  H   UNL     1     143.664 173.610 186.466  0.00  0.00    +0.073 HD
ATOM     28  H   UNL     1     146.650 174.062 189.379  0.00  0.00    +0.040 HD
ATOM     29  H   UNL     1     147.671 172.885 188.549  0.00  0.00    +0.040 HD
ATOM     30  H   UNL     1     145.368 172.124 190.421  0.00  0.00    +0.055 HD
ATOM     31  H   UNL     1     147.443 170.430 189.114  0.00  0.00    +0.149 HD
ATOM     32  H   UNL     1     146.734 168.432 188.517  0.00  0.00    +0.060 HD
ATOM     33  H   UNL     1     143.019 166.017 187.961  0.00  0.00    +0.059 HD
ATOM     34  H   UNL     1     142.419 168.421 186.272  0.00  0.00    +0.149 HD
ATOM     35  H   UNL     1     140.583 169.492 186.577  0.00  0.00    +0.039 HD
ATOM     36  H   UNL     1     138.641 170.104 188.160  0.00  0.00    +0.032 HD
ATOM     37  H   UNL     1     139.178 168.845 189.240  0.00  0.00    +0.032 HD
ATOM     38  H   UNL     1     139.802 172.115 187.952  0.00  0.00    +0.057 HD
ENDROOT
BRANCH   8  39
ATOM     39  C   UNL     1     147.302 172.241 191.311  0.00  0.00    -0.026 A 
ATOM     40  C   UNL     1     146.900 173.037 192.398  0.00  0.00    -0.053 A 
ATOM     41  C   UNL     1     147.754 173.247 193.483  0.00  0.00    -0.020 A 
ATOM     42  C   UNL     1     149.023 172.682 193.482  0.00  0.00    +0.117 A 
ATOM     43  C   UNL     1     149.451 171.898 192.417  0.00  0.00    -0.020 A 
ATOM     44  C   UNL     1     148.593 171.684 191.334  0.00  0.00    -0.053 A 
ATOM     45  H   UNL     1     145.926 173.520 192.409  0.00  0.00    +0.062 HD
ATOM     46  H   UNL     1     147.433 173.863 194.318  0.00  0.00    +0.065 HD
ATOM     47  H   UNL     1     150.445 171.462 192.398  0.00  0.00    +0.065 HD
ATOM     48  H   UNL     1     148.945 171.093 190.489  0.00  0.00    +0.062 HD
BRANCH  42  49
ATOM     49  O   UNL     1     149.835 172.941 194.547  0.00  0.00    -0.507 OA
ATOM     50  H   UNL     1     149.753 172.206 195.179  0.00  0.00    +0.292 HD
ENDBRANCH  42  49
ENDBRANCH   8  39
BRANCH   1  51
ATOM     51  C   UNL     1     140.691 173.885 189.998  0.00  0.00    -0.059 C 
ATOM     52  H   UNL     1     139.708 174.080 189.556  0.00  0.00    +0.024 HD
ATOM     53  H   UNL     1     141.213 174.846 190.079  0.00  0.00    +0.024 HD
ATOM     54  H   UNL     1     140.533 173.500 191.013  0.00  0.00    +0.024 HD
ENDBRANCH   1  51
BRANCH  22  55
ATOM     55  C   UNL     1     141.458 169.926 190.113  0.00  0.00    -0.044 C 
ATOM     56  H   UNL     1     141.486 170.567 191.001  0.00  0.00    +0.027 HD
ATOM     57  H   UNL     1     141.113 168.934 190.413  0.00  0.00    +0.027 HD
ATOM     58  H   UNL     1     142.491 169.838 189.767  0.00  0.00    +0.027 HD
ENDBRANCH  22  55
BRANCH  20  59
ATOM     59  C   UNL     1     138.958 168.107 186.470  0.00  0.00    -0.054 C 
ATOM     60  H   UNL     1     139.036 167.014 186.521  0.00  0.00    +0.024 HD
ATOM     61  H   UNL     1     137.980 168.398 186.868  0.00  0.00    +0.024 HD
ATOM     62  H   UNL     1     138.991 168.392 185.413  0.00  0.00    +0.024 HD
ENDBRANCH  20  59
BRANCH  16  63
ATOM     63  C   UNL     1     143.698 165.994 185.944  0.00  0.00    -0.038 C 
ATOM     64  H   UNL     1     143.793 164.922 186.145  0.00  0.00    +0.025 HD
ATOM     65  H   UNL     1     142.941 166.115 185.159  0.00  0.00    +0.025 HD
ATOM     66  H   UNL     1     144.651 166.355 185.545  0.00  0.00    +0.025 HD
ENDBRANCH  16  63
BRANCH  13  67
ATOM     67  C   UNL     1     144.137 166.840 190.047  0.00  0.00    +0.004 C 
ATOM     68  H   UNL     1     144.131 165.757 189.910  0.00  0.00    +0.043 HD
ATOM     69  H   UNL     1     143.097 167.177 190.017  0.00  0.00    +0.043 HD
ATOM     70  H   UNL     1     144.572 167.086 191.022  0.00  0.00    +0.043 HD
ENDBRANCH  13  67
BRANCH   3  71
ATOM     71  C   UNL     1     143.167 171.551 186.834  0.00  0.00    -0.028 C 
ATOM     72  H   UNL     1     143.648 171.403 185.862  0.00  0.00    +0.027 HD
ATOM     73  H   UNL     1     143.638 170.831 187.508  0.00  0.00    +0.027 HD
ATOM     74  H   UNL     1     142.108 171.314 186.718  0.00  0.00    +0.027 HD
ENDBRANCH   3  71
BRANCH  12  75
ATOM     75  C   UNL     1     147.060 167.426 190.378  0.00  0.00    +0.003 C 
ATOM     76  H   UNL     1     146.971 167.803 191.401  0.00  0.00    +0.034 HD
ATOM     77  H   UNL     1     146.698 166.390 190.418  0.00  0.00    +0.034 HD
BRANCH  75  78
ATOM     78  C   UNL     1     148.507 167.405 189.982  0.00  0.00    -0.006 A 
ATOM     79  C   UNL     1     149.034 167.059 188.755  0.00  0.00    +0.087 A 
ATOM     80  N   UNL     1     150.393 167.121 188.818  0.00  0.00    -0.349 N 
ATOM     81  C   UNL     1     150.789 167.525 190.072  0.00  0.00    +0.048 A 
ATOM     82  C   UNL     1     152.075 167.717 190.589  0.00  0.00    -0.038 A 
ATOM     83  C   UNL     1     152.179 168.135 191.919  0.00  0.00    -0.060 A 
ATOM     84  C   UNL     1     151.044 168.355 192.693  0.00  0.00    -0.061 A 
ATOM     85  C   UNL     1     149.765 168.159 192.158  0.00  0.00    -0.052 A 
ATOM     86  C   UNL     1     149.628 167.730 190.820  0.00  0.00    +0.004 A 
ATOM     87 BR   UNL     1     148.085 166.539 187.189  0.00  0.00    -0.031 Br
ATOM     88  H   UNL     1     151.014 166.873 188.060  0.00  0.00    +0.166 HD
ATOM     89  H   UNL     1     152.961 167.554 189.986  0.00  0.00    +0.064 HD
ATOM     90  H   UNL     1     153.164 168.295 192.352  0.00  0.00    +0.062 HD
ATOM     91  H   UNL     1     151.149 168.687 193.723  0.00  0.00    +0.062 HD
ATOM     92  H   UNL     1     148.893 168.343 192.777  0.00  0.00    +0.062 HD
ENDBRANCH  75  78
ENDBRANCH  12  75
TORSDOF 10
ENDMDL
MODEL 7
REMARK VINA RESULT:      -6.5      4.811     10.414
REMARK  Name = Jasplakinolide_conf1
REMARK  10 active torsions:
REMARK  status: ('A' for Active; 'I' for Inactive)
REMARK    1  A    between atoms: C_1  and  C_2
REMARK    2  A    between atoms: C_4  and  C_47
REMARK    3  A    between atoms: C_9  and  C_40
REMARK    4  A    between atoms: C_13  and  C_29
REMARK    5  A    between atoms: N_14  and  C_28
REMARK    6  A    between atoms: C_17  and  C_27
REMARK    7  A    between atoms: C_21  and  C_26
REMARK    8  A    between atoms: C_23  and  C_25
REMARK    9  A    between atoms: C_29  and  C_30
REMARK   10  A    between atoms: C_43  and  O_46
REMARK                            x       y       z     vdW  Elec       q    Type
REMARK                         _______ _______ _______ _____ _____    ______ ____
ROOT
ATOM      1  C   UNL     1     151.325 168.360 191.503  0.00  0.00    -0.022 C 
ATOM      2  C   UNL     1     151.410 167.930 192.987  0.00  0.00    -0.010 C 
ATOM      3  C   UNL     1     150.689 166.617 193.351  0.00  0.00    +0.101 C 
ATOM      4  O   UNL     1     149.278 166.818 193.131  0.00  0.00    -0.462 OA
ATOM      5  C   UNL     1     148.437 166.007 193.822  0.00  0.00    +0.309 C 
ATOM      6  O   UNL     1     148.783 165.163 194.639  0.00  0.00    -0.251 OA
ATOM      7  C   UNL     1     146.997 166.330 193.536  0.00  0.00    +0.067 C 
ATOM      8  C   UNL     1     146.674 166.355 192.039  0.00  0.00    +0.058 C 
ATOM      9  N   UNL     1     146.813 165.040 191.434  0.00  0.00    -0.306 N 
ATOM     10  C   UNL     1     147.347 164.858 190.172  0.00  0.00    +0.234 C 
ATOM     11  O   UNL     1     147.753 165.792 189.482  0.00  0.00    -0.274 OA
ATOM     12  C   UNL     1     147.376 163.383 189.698  0.00  0.00    +0.106 C 
ATOM     13  N   UNL     1     148.654 163.099 189.000  0.00  0.00    -0.291 N 
ATOM     14  C   UNL     1     149.699 162.562 189.740  0.00  0.00    +0.236 C 
ATOM     15  O   UNL     1     149.617 162.432 190.968  0.00  0.00    -0.274 OA
ATOM     16  C   UNL     1     151.001 162.154 189.013  0.00  0.00    +0.097 C 
ATOM     17  N   UNL     1     152.045 163.076 189.448  0.00  0.00    -0.304 N 
ATOM     18  C   UNL     1     152.633 163.983 188.599  0.00  0.00    +0.217 C 
ATOM     19  O   UNL     1     152.389 164.030 187.397  0.00  0.00    -0.275 OA
ATOM     20  C   UNL     1     153.654 164.890 189.271  0.00  0.00    +0.036 C 
ATOM     21  C   UNL     1     153.454 166.357 188.857  0.00  0.00    -0.021 C 
ATOM     22  C   UNL     1     152.248 167.000 189.525  0.00  0.00    -0.076 C 
ATOM     23  C   UNL     1     152.401 167.690 190.673  0.00  0.00    -0.082 C 
ATOM     24  H   UNL     1     150.324 168.121 191.129  0.00  0.00    +0.034 HD
ATOM     25  H   UNL     1     152.458 167.863 193.305  0.00  0.00    +0.031 HD
ATOM     26  H   UNL     1     150.952 168.720 193.598  0.00  0.00    +0.031 HD
ATOM     27  H   UNL     1     150.867 166.448 194.422  0.00  0.00    +0.073 HD
ATOM     28  H   UNL     1     146.778 167.296 194.007  0.00  0.00    +0.040 HD
ATOM     29  H   UNL     1     146.393 165.573 194.052  0.00  0.00    +0.040 HD
ATOM     30  H   UNL     1     147.382 167.035 191.547  0.00  0.00    +0.055 HD
ATOM     31  H   UNL     1     146.372 164.252 191.895  0.00  0.00    +0.149 HD
ATOM     32  H   UNL     1     147.359 162.764 190.604  0.00  0.00    +0.060 HD
ATOM     33  H   UNL     1     150.888 162.189 187.927  0.00  0.00    +0.059 HD
ATOM     34  H   UNL     1     152.206 163.144 190.447  0.00  0.00    +0.149 HD
ATOM     35  H   UNL     1     153.564 164.805 190.361  0.00  0.00    +0.039 HD
ATOM     36  H   UNL     1     154.352 166.928 189.129  0.00  0.00    +0.032 HD
ATOM     37  H   UNL     1     153.369 166.455 187.768  0.00  0.00    +0.032 HD
ATOM     38  H   UNL     1     153.407 167.776 191.085  0.00  0.00    +0.057 HD
ENDROOT
BRANCH   8  39
ATOM     39  C   UNL     1     145.266 166.876 191.768  0.00  0.00    -0.026 A 
ATOM     40  C   UNL     1     144.982 167.750 190.704  0.00  0.00    -0.053 A 
ATOM     41  C   UNL     1     143.686 168.230 190.503  0.00  0.00    -0.020 A 
ATOM     42  C   UNL     1     142.669 167.858 191.372  0.00  0.00    +0.117 A 
ATOM     43  C   UNL     1     142.923 167.002 192.438  0.00  0.00    -0.020 A 
ATOM     44  C   UNL     1     144.220 166.518 192.635  0.00  0.00    -0.053 A 
ATOM     45  H   UNL     1     145.766 168.086 190.029  0.00  0.00    +0.062 HD
ATOM     46  H   UNL     1     143.477 168.904 189.676  0.00  0.00    +0.065 HD
ATOM     47  H   UNL     1     142.140 166.715 193.133  0.00  0.00    +0.065 HD
ATOM     48  H   UNL     1     144.419 165.872 193.490  0.00  0.00    +0.062 HD
BRANCH  42  49
ATOM     49  O   UNL     1     141.427 168.376 191.156  0.00  0.00    -0.507 OA
ATOM     50  H   UNL     1     141.341 169.192 191.678  0.00  0.00    +0.292 HD
ENDBRANCH  42  49
ENDBRANCH   8  39
BRANCH   1  51
ATOM     51  C   UNL     1     151.510 169.878 191.387  0.00  0.00    -0.059 C 
ATOM     52  H   UNL     1     151.357 170.363 192.357  0.00  0.00    +0.024 HD
ATOM     53  H   UNL     1     150.788 170.311 190.685  0.00  0.00    +0.024 HD
ATOM     54  H   UNL     1     152.518 170.136 191.037  0.00  0.00    +0.024 HD
ENDBRANCH   1  51
BRANCH  22  55
ATOM     55  C   UNL     1     150.937 166.834 188.802  0.00  0.00    -0.044 C 
ATOM     56  H   UNL     1     150.934 167.415 187.872  0.00  0.00    +0.027 HD
ATOM     57  H   UNL     1     150.770 165.783 188.553  0.00  0.00    +0.027 HD
ATOM     58  H   UNL     1     150.082 167.187 189.384  0.00  0.00    +0.027 HD
ENDBRANCH  22  55
BRANCH  20  59
ATOM     59  C   UNL     1     155.047 164.399 188.875  0.00  0.00    -0.054 C 
ATOM     60  H   UNL     1     155.141 164.301 187.787  0.00  0.00    +0.024 HD
ATOM     61  H   UNL     1     155.818 165.093 189.223  0.00  0.00    +0.024 HD
ATOM     62  H   UNL     1     155.252 163.417 189.315  0.00  0.00    +0.024 HD
ENDBRANCH  20  59
BRANCH  16  63
ATOM     63  C   UNL     1     151.380 160.727 189.394  0.00  0.00    -0.038 C 
ATOM     64  H   UNL     1     150.865 160.420 190.310  0.00  0.00    +0.025 HD
ATOM     65  H   UNL     1     151.107 160.011 188.609  0.00  0.00    +0.025 HD
ATOM     66  H   UNL     1     152.458 160.642 189.560  0.00  0.00    +0.025 HD
ENDBRANCH  16  63
BRANCH  13  67
ATOM     67  C   UNL     1     148.808 163.552 187.620  0.00  0.00    +0.004 C 
ATOM     68  H   UNL     1     149.324 164.512 187.578  0.00  0.00    +0.043 HD
ATOM     69  H   UNL     1     147.836 163.682 187.136  0.00  0.00    +0.043 HD
ATOM     70  H   UNL     1     149.387 162.797 187.076  0.00  0.00    +0.043 HD
ENDBRANCH  13  67
BRANCH   3  71
ATOM     71  C   UNL     1     151.165 165.398 192.569  0.00  0.00    -0.028 C 
ATOM     72  H   UNL     1     151.367 164.562 193.247  0.00  0.00    +0.027 HD
ATOM     73  H   UNL     1     150.397 165.039 191.880  0.00  0.00    +0.027 HD
ATOM     74  H   UNL     1     152.087 165.609 192.022  0.00  0.00    +0.027 HD
ENDBRANCH   3  71
BRANCH  12  75
ATOM     75  C   UNL     1     146.133 163.010 188.867  0.00  0.00    +0.003 C 
ATOM     76  H   UNL     1     145.220 163.191 189.442  0.00  0.00    +0.034 HD
ATOM     77  H   UNL     1     146.070 163.686 188.003  0.00  0.00    +0.034 HD
BRANCH  75  78
ATOM     78  C   UNL     1     146.129 161.598 188.362  0.00  0.00    -0.006 A 
ATOM     79  C   UNL     1     146.006 161.176 187.054  0.00  0.00    +0.087 A 
ATOM     80  N   UNL     1     145.998 159.815 187.022  0.00  0.00    -0.349 N 
ATOM     81  C   UNL     1     146.133 159.312 188.294  0.00  0.00    +0.048 A 
ATOM     82  C   UNL     1     146.167 157.985 188.737  0.00  0.00    -0.038 A 
ATOM     83  C   UNL     1     146.312 157.766 190.110  0.00  0.00    -0.060 A 
ATOM     84  C   UNL     1     146.425 158.832 190.998  0.00  0.00    -0.061 A 
ATOM     85  C   UNL     1     146.390 160.153 190.537  0.00  0.00    -0.052 A 
ATOM     86  C   UNL     1     146.236 160.405 189.157  0.00  0.00    +0.004 A 
ATOM     87 BR   UNL     1     145.842 162.258 185.496  0.00  0.00    -0.031 Br
ATOM     88  H   UNL     1     145.877 159.262 186.184  0.00  0.00    +0.166 HD
ATOM     89  H   UNL     1     146.087 157.152 188.046  0.00  0.00    +0.064 HD
ATOM     90  H   UNL     1     146.344 156.746 190.487  0.00  0.00    +0.062 HD
ATOM     91  H   UNL     1     146.545 158.638 192.061  0.00  0.00    +0.062 HD
ATOM     92  H   UNL     1     146.486 160.969 191.246  0.00  0.00    +0.062 HD
ENDBRANCH  75  78
ENDBRANCH  12  75
TORSDOF 10
ENDMDL
MODEL 8
REMARK VINA RESULT:      -6.4      2.792      5.965
REMARK  Name = Jasplakinolide_conf1
REMARK  10 active torsions:
REMARK  status: ('A' for Active; 'I' for Inactive)
REMARK    1  A    between atoms: C_1  and  C_2
REMARK    2  A    between atoms: C_4  and  C_47
REMARK    3  A    between atoms: C_9  and  C_40
REMARK    4  A    between atoms: C_13  and  C_29
REMARK    5  A    between atoms: N_14  and  C_28
REMARK    6  A    between atoms: C_17  and  C_27
REMARK    7  A    between atoms: C_21  and  C_26
REMARK    8  A    between atoms: C_23  and  C_25
REMARK    9  A    between atoms: C_29  and  C_30
REMARK   10  A    between atoms: C_43  and  O_46
REMARK                            x       y       z     vdW  Elec       q    Type
REMARK                         _______ _______ _______ _____ _____    ______ ____
ROOT
ATOM      1  C   UNL     1     141.596 169.652 187.163  0.00  0.00    -0.022 C 
ATOM      2  C   UNL     1     142.450 170.195 185.991  0.00  0.00    -0.010 C 
ATOM      3  C   UNL     1     143.968 169.946 186.091  0.00  0.00    +0.101 C 
ATOM      4  O   UNL     1     144.455 170.672 187.238  0.00  0.00    -0.462 OA
ATOM      5  C   UNL     1     145.774 170.992 187.235  0.00  0.00    +0.309 C 
ATOM      6  O   UNL     1     146.556 170.753 186.323  0.00  0.00    -0.251 OA
ATOM      7  C   UNL     1     146.157 171.774 188.461  0.00  0.00    +0.067 C 
ATOM      8  C   UNL     1     145.732 171.089 189.764  0.00  0.00    +0.058 C 
ATOM      9  N   UNL     1     146.440 169.836 189.972  0.00  0.00    -0.306 N 
ATOM     10  C   UNL     1     145.823 168.716 190.497  0.00  0.00    +0.234 C 
ATOM     11  O   UNL     1     144.634 168.698 190.811  0.00  0.00    -0.274 OA
ATOM     12  C   UNL     1     146.760 167.494 190.670  0.00  0.00    +0.106 C 
ATOM     13  N   UNL     1     146.055 166.252 190.269  0.00  0.00    -0.291 N 
ATOM     14  C   UNL     1     146.213 165.802 188.964  0.00  0.00    +0.236 C 
ATOM     15  O   UNL     1     146.823 166.473 188.122  0.00  0.00    -0.274 OA
ATOM     16  C   UNL     1     145.578 164.453 188.554  0.00  0.00    +0.097 C 
ATOM     17  N   UNL     1     144.500 164.750 187.618  0.00  0.00    -0.304 N 
ATOM     18  C   UNL     1     143.177 164.529 187.918  0.00  0.00    +0.217 C 
ATOM     19  O   UNL     1     142.807 163.990 188.957  0.00  0.00    -0.275 OA
ATOM     20  C   UNL     1     142.211 164.966 186.825  0.00  0.00    +0.036 C 
ATOM     21  C   UNL     1     141.030 165.757 187.408  0.00  0.00    -0.021 C 
ATOM     22  C   UNL     1     141.412 167.171 187.818  0.00  0.00    -0.076 C 
ATOM     23  C   UNL     1     141.241 168.193 186.956  0.00  0.00    -0.082 C 
ATOM     24  H   UNL     1     142.152 169.800 188.094  0.00  0.00    +0.034 HD
ATOM     25  H   UNL     1     142.084 169.796 185.037  0.00  0.00    +0.031 HD
ATOM     26  H   UNL     1     142.312 171.284 185.945  0.00  0.00    +0.031 HD
ATOM     27  H   UNL     1     144.415 170.367 185.180  0.00  0.00    +0.073 HD
ATOM     28  H   UNL     1     145.708 172.769 188.369  0.00  0.00    +0.040 HD
ATOM     29  H   UNL     1     147.247 171.904 188.427  0.00  0.00    +0.040 HD
ATOM     30  H   UNL     1     144.659 170.870 189.701  0.00  0.00    +0.055 HD
ATOM     31  H   UNL     1     147.448 169.832 189.862  0.00  0.00    +0.149 HD
ATOM     32  H   UNL     1     147.590 167.636 189.966  0.00  0.00    +0.060 HD
ATOM     33  H   UNL     1     145.196 163.906 189.418  0.00  0.00    +0.059 HD
ATOM     34  H   UNL     1     144.746 165.287 186.794  0.00  0.00    +0.149 HD
ATOM     35  H   UNL     1     142.740 165.589 186.092  0.00  0.00    +0.039 HD
ATOM     36  H   UNL     1     140.233 165.813 186.654  0.00  0.00    +0.032 HD
ATOM     37  H   UNL     1     140.582 165.234 188.261  0.00  0.00    +0.032 HD
ATOM     38  H   UNL     1     140.814 167.968 185.977  0.00  0.00    +0.057 HD
ENDROOT
BRANCH   8  39
ATOM     39  C   UNL     1     145.952 171.987 190.977  0.00  0.00    -0.026 A 
ATOM     40  C   UNL     1     144.999 172.933 191.392  0.00  0.00    -0.053 A 
ATOM     41  C   UNL     1     145.246 173.759 192.491  0.00  0.00    -0.020 A 
ATOM     42  C   UNL     1     146.453 173.661 193.171  0.00  0.00    +0.117 A 
ATOM     43  C   UNL     1     147.418 172.741 192.777  0.00  0.00    -0.020 A 
ATOM     44  C   UNL     1     147.167 171.911 191.680  0.00  0.00    -0.053 A 
ATOM     45  H   UNL     1     144.060 173.056 190.857  0.00  0.00    +0.062 HD
ATOM     46  H   UNL     1     144.502 174.486 192.805  0.00  0.00    +0.065 HD
ATOM     47  H   UNL     1     148.371 172.665 193.291  0.00  0.00    +0.065 HD
ATOM     48  H   UNL     1     147.939 171.214 191.358  0.00  0.00    +0.062 HD
BRANCH  42  49
ATOM     49  O   UNL     1     146.664 174.510 194.218  0.00  0.00    -0.507 OA
ATOM     50  H   UNL     1     147.258 174.072 194.851  0.00  0.00    +0.292 HD
ENDBRANCH  42  49
ENDBRANCH   8  39
BRANCH   1  51
ATOM     51  C   UNL     1     140.291 170.449 187.273  0.00  0.00    -0.059 C 
ATOM     52  H   UNL     1     139.510 170.003 186.647  0.00  0.00    +0.024 HD
ATOM     53  H   UNL     1     140.432 171.483 186.937  0.00  0.00    +0.024 HD
ATOM     54  H   UNL     1     139.921 170.476 188.305  0.00  0.00    +0.024 HD
ENDBRANCH   1  51
BRANCH  22  55
ATOM     55  C   UNL     1     141.937 167.324 189.222  0.00  0.00    -0.044 C 
ATOM     56  H   UNL     1     142.233 166.351 189.630  0.00  0.00    +0.027 HD
ATOM     57  H   UNL     1     142.809 167.983 189.231  0.00  0.00    +0.027 HD
ATOM     58  H   UNL     1     141.194 167.731 189.913  0.00  0.00    +0.027 HD
ENDBRANCH  22  55
BRANCH  20  59
ATOM     59  C   UNL     1     141.721 163.709 186.106  0.00  0.00    -0.054 C 
ATOM     60  H   UNL     1     141.905 162.809 186.705  0.00  0.00    +0.024 HD
ATOM     61  H   UNL     1     140.648 163.770 185.902  0.00  0.00    +0.024 HD
ATOM     62  H   UNL     1     142.240 163.581 185.149  0.00  0.00    +0.024 HD
ENDBRANCH  20  59
BRANCH  16  63
ATOM     63  C   UNL     1     146.626 163.575 187.876  0.00  0.00    -0.038 C 
ATOM     64  H   UNL     1     146.412 163.471 186.808  0.00  0.00    +0.025 HD
ATOM     65  H   UNL     1     147.633 163.999 187.970  0.00  0.00    +0.025 HD
ATOM     66  H   UNL     1     146.642 162.576 188.322  0.00  0.00    +0.025 HD
ENDBRANCH  16  63
BRANCH  13  67
ATOM     67  C   UNL     1     145.102 165.661 191.203  0.00  0.00    +0.004 C 
ATOM     68  H   UNL     1     144.721 164.711 190.826  0.00  0.00    +0.043 HD
ATOM     69  H   UNL     1     144.242 166.318 191.359  0.00  0.00    +0.043 HD
ATOM     70  H   UNL     1     145.615 165.501 192.158  0.00  0.00    +0.043 HD
ENDBRANCH  13  67
BRANCH   3  71
ATOM     71  C   UNL     1     144.361 168.477 186.206  0.00  0.00    -0.028 C 
ATOM     72  H   UNL     1     144.371 168.005 185.218  0.00  0.00    +0.027 HD
ATOM     73  H   UNL     1     145.374 168.363 186.598  0.00  0.00    +0.027 HD
ATOM     74  H   UNL     1     143.656 167.922 186.828  0.00  0.00    +0.027 HD
ENDBRANCH   3  71
BRANCH  12  75
ATOM     75  C   UNL     1     147.368 167.418 192.084  0.00  0.00    +0.003 C 
ATOM     76  H   UNL     1     147.038 168.268 192.689  0.00  0.00    +0.034 HD
ATOM     77  H   UNL     1     146.971 166.529 192.593  0.00  0.00    +0.034 HD
BRANCH  75  78
ATOM     78  C   UNL     1     148.867 167.346 192.109  0.00  0.00    -0.006 A 
ATOM     79  C   UNL     1     149.649 166.213 192.200  0.00  0.00    +0.087 A 
ATOM     80  N   UNL     1     150.961 166.577 192.242  0.00  0.00    -0.349 N 
ATOM     81  C   UNL     1     151.073 167.945 192.161  0.00  0.00    +0.048 A 
ATOM     82  C   UNL     1     152.214 168.755 192.176  0.00  0.00    -0.038 A 
ATOM     83  C   UNL     1     152.026 170.137 192.080  0.00  0.00    -0.060 A 
ATOM     84  C   UNL     1     150.749 170.681 191.968  0.00  0.00    -0.061 A 
ATOM     85  C   UNL     1     149.620 169.855 191.954  0.00  0.00    -0.052 A 
ATOM     86  C   UNL     1     149.777 168.456 192.057  0.00  0.00    +0.004 A 
ATOM     87 BR   UNL     1     149.065 164.403 192.286  0.00  0.00    -0.031 Br
ATOM     88  H   UNL     1     151.731 165.932 192.351  0.00  0.00    +0.166 HD
ATOM     89  H   UNL     1     153.210 168.333 192.254  0.00  0.00    +0.064 HD
ATOM     90  H   UNL     1     152.892 170.795 192.086  0.00  0.00    +0.062 HD
ATOM     91  H   UNL     1     150.627 171.758 191.887  0.00  0.00    +0.062 HD
ATOM     92  H   UNL     1     148.634 170.299 191.860  0.00  0.00    +0.062 HD
ENDBRANCH  75  78
ENDBRANCH  12  75
TORSDOF 10
ENDMDL
MODEL 9
REMARK VINA RESULT:      -6.4      4.199      7.004
REMARK  Name = Jasplakinolide_conf1
REMARK  10 active torsions:
REMARK  status: ('A' for Active; 'I' for Inactive)
REMARK    1  A    between atoms: C_1  and  C_2
REMARK    2  A    between atoms: C_4  and  C_47
REMARK    3  A    between atoms: C_9  and  C_40
REMARK    4  A    between atoms: C_13  and  C_29
REMARK    5  A    between atoms: N_14  and  C_28
REMARK    6  A    between atoms: C_17  and  C_27
REMARK    7  A    between atoms: C_21  and  C_26
REMARK    8  A    between atoms: C_23  and  C_25
REMARK    9  A    between atoms: C_29  and  C_30
REMARK   10  A    between atoms: C_43  and  O_46
REMARK                            x       y       z     vdW  Elec       q    Type
REMARK                         _______ _______ _______ _____ _____    ______ ____
ROOT
ATOM      1  C   UNL     1     143.428 168.013 191.001  0.00  0.00    -0.022 C 
ATOM      2  C   UNL     1     143.914 169.461 190.749  0.00  0.00    -0.010 C 
ATOM      3  C   UNL     1     145.331 169.605 190.159  0.00  0.00    +0.101 C 
ATOM      4  O   UNL     1     146.263 169.093 191.132  0.00  0.00    -0.462 OA
ATOM      5  C   UNL     1     147.538 169.551 191.046  0.00  0.00    +0.309 C 
ATOM      6  O   UNL     1     147.935 170.387 190.244  0.00  0.00    -0.251 OA
ATOM      7  C   UNL     1     148.408 168.975 192.129  0.00  0.00    +0.067 C 
ATOM      8  C   UNL     1     148.347 167.445 192.196  0.00  0.00    +0.058 C 
ATOM      9  N   UNL     1     148.904 166.829 191.001  0.00  0.00    -0.306 N 
ATOM     10  C   UNL     1     148.348 165.706 190.418  0.00  0.00    +0.234 C 
ATOM     11  O   UNL     1     147.338 165.161 190.861  0.00  0.00    -0.274 OA
ATOM     12  C   UNL     1     149.112 165.188 189.175  0.00  0.00    +0.106 C 
ATOM     13  N   UNL     1     148.150 164.771 188.125  0.00  0.00    -0.291 N 
ATOM     14  C   UNL     1     147.805 165.697 187.148  0.00  0.00    +0.236 C 
ATOM     15  O   UNL     1     148.190 166.871 187.211  0.00  0.00    -0.274 OA
ATOM     16  C   UNL     1     146.893 165.251 185.982  0.00  0.00    +0.097 C 
ATOM     17  N   UNL     1     145.617 165.940 186.146  0.00  0.00    -0.304 N 
ATOM     18  C   UNL     1     144.451 165.278 186.443  0.00  0.00    +0.217 C 
ATOM     19  O   UNL     1     144.373 164.055 186.510  0.00  0.00    -0.275 OA
ATOM     20  C   UNL     1     143.248 166.193 186.631  0.00  0.00    +0.036 C 
ATOM     21  C   UNL     1     142.445 165.808 187.884  0.00  0.00    -0.021 C 
ATOM     22  C   UNL     1     143.131 166.226 189.176  0.00  0.00    -0.076 C 
ATOM     23  C   UNL     1     142.828 167.408 189.748  0.00  0.00    -0.082 C 
ATOM     24  H   UNL     1     144.275 167.423 191.365  0.00  0.00    +0.034 HD
ATOM     25  H   UNL     1     143.202 169.995 190.107  0.00  0.00    +0.031 HD
ATOM     26  H   UNL     1     143.919 169.992 191.712  0.00  0.00    +0.031 HD
ATOM     27  H   UNL     1     145.505 170.680 190.021  0.00  0.00    +0.073 HD
ATOM     28  H   UNL     1     148.094 169.427 193.076  0.00  0.00    +0.040 HD
ATOM     29  H   UNL     1     149.432 169.315 191.929  0.00  0.00    +0.040 HD
ATOM     30  H   UNL     1     147.293 167.148 192.274  0.00  0.00    +0.055 HD
ATOM     31  H   UNL     1     149.809 167.151 190.675  0.00  0.00    +0.149 HD
ATOM     32  H   UNL     1     149.674 166.042 188.777  0.00  0.00    +0.060 HD
ATOM     33  H   UNL     1     146.745 164.169 185.973  0.00  0.00    +0.059 HD
ATOM     34  H   UNL     1     145.650 166.952 186.201  0.00  0.00    +0.149 HD
ATOM     35  H   UNL     1     143.585 167.233 186.720  0.00  0.00    +0.039 HD
ATOM     36  H   UNL     1     141.460 166.292 187.837  0.00  0.00    +0.032 HD
ATOM     37  H   UNL     1     142.237 164.732 187.908  0.00  0.00    +0.032 HD
ATOM     38  H   UNL     1     142.076 168.031 189.263  0.00  0.00    +0.057 HD
ENDROOT
BRANCH   8  39
ATOM     39  C   UNL     1     149.076 166.899 193.418  0.00  0.00    -0.026 A 
ATOM     40  C   UNL     1     150.459 166.649 193.417  0.00  0.00    -0.053 A 
ATOM     41  C   UNL     1     151.089 166.122 194.547  0.00  0.00    -0.020 A 
ATOM     42  C   UNL     1     150.341 165.822 195.677  0.00  0.00    +0.117 A 
ATOM     43  C   UNL     1     148.970 166.050 195.704  0.00  0.00    -0.020 A 
ATOM     44  C   UNL     1     148.342 166.583 194.575  0.00  0.00    -0.053 A 
ATOM     45  H   UNL     1     151.063 166.842 192.534  0.00  0.00    +0.062 HD
ATOM     46  H   UNL     1     152.159 165.935 194.536  0.00  0.00    +0.065 HD
ATOM     47  H   UNL     1     148.372 165.806 196.576  0.00  0.00    +0.065 HD
ATOM     48  H   UNL     1     147.262 166.731 194.591  0.00  0.00    +0.062 HD
BRANCH  42  49
ATOM     49  O   UNL     1     150.993 165.279 196.745  0.00  0.00    -0.507 OA
ATOM     50  H   UNL     1     150.801 165.821 197.529  0.00  0.00    +0.292 HD
ENDBRANCH  42  49
ENDBRANCH   8  39
BRANCH   1  51
ATOM     51  C   UNL     1     142.355 168.005 192.096  0.00  0.00    -0.059 C 
ATOM     52  H   UNL     1     141.913 169.000 192.215  0.00  0.00    +0.024 HD
ATOM     53  H   UNL     1     142.781 167.716 193.064  0.00  0.00    +0.024 HD
ATOM     54  H   UNL     1     141.545 167.303 191.861  0.00  0.00    +0.024 HD
ENDBRANCH   1  51
BRANCH  22  55
ATOM     55  C   UNL     1     144.106 165.230 189.749  0.00  0.00    -0.044 C 
ATOM     56  H   UNL     1     145.115 165.657 189.785  0.00  0.00    +0.027 HD
ATOM     57  H   UNL     1     143.811 164.953 190.764  0.00  0.00    +0.027 HD
ATOM     58  H   UNL     1     144.181 164.317 189.153  0.00  0.00    +0.027 HD
ENDBRANCH  22  55
BRANCH  20  59
ATOM     59  C   UNL     1     142.380 166.087 185.376  0.00  0.00    -0.054 C 
ATOM     60  H   UNL     1     142.236 167.068 184.907  0.00  0.00    +0.024 HD
ATOM     61  H   UNL     1     142.840 165.421 184.640  0.00  0.00    +0.024 HD
ATOM     62  H   UNL     1     141.390 165.688 185.621  0.00  0.00    +0.024 HD
ENDBRANCH  20  59
BRANCH  16  63
ATOM     63  C   UNL     1     147.527 165.644 184.652  0.00  0.00    -0.038 C 
ATOM     64  H   UNL     1     147.713 164.760 184.034  0.00  0.00    +0.025 HD
ATOM     65  H   UNL     1     146.880 166.317 184.076  0.00  0.00    +0.025 HD
ATOM     66  H   UNL     1     148.480 166.157 184.813  0.00  0.00    +0.025 HD
ENDBRANCH  16  63
BRANCH  13  67
ATOM     67  C   UNL     1     147.487 163.478 188.264  0.00  0.00    +0.004 C 
ATOM     68  H   UNL     1     146.937 163.419 189.204  0.00  0.00    +0.043 HD
ATOM     69  H   UNL     1     148.211 162.659 188.257  0.00  0.00    +0.043 HD
ATOM     70  H   UNL     1     146.794 163.358 187.423  0.00  0.00    +0.043 HD
ENDBRANCH  13  67
BRANCH   3  71
ATOM     71  C   UNL     1     145.533 168.893 188.826  0.00  0.00    -0.028 C 
ATOM     72  H   UNL     1     146.321 168.138 188.910  0.00  0.00    +0.027 HD
ATOM     73  H   UNL     1     144.636 168.350 188.521  0.00  0.00    +0.027 HD
ATOM     74  H   UNL     1     145.830 169.592 188.040  0.00  0.00    +0.027 HD
ENDBRANCH   3  71
BRANCH  12  75
ATOM     75  C   UNL     1     150.136 164.093 189.531  0.00  0.00    +0.003 C 
ATOM     76  H   UNL     1     150.382 164.131 190.596  0.00  0.00    +0.034 HD
ATOM     77  H   UNL     1     149.670 163.109 189.376  0.00  0.00    +0.034 HD
BRANCH  75  78
ATOM     78  C   UNL     1     151.402 164.147 188.728  0.00  0.00    -0.006 A 
ATOM     79  C   UNL     1     151.721 163.395 187.615  0.00  0.00    +0.087 A 
ATOM     80  N   UNL     1     152.983 163.708 187.211  0.00  0.00    -0.349 N 
ATOM     81  C   UNL     1     153.513 164.678 188.029  0.00  0.00    +0.048 A 
ATOM     82  C   UNL     1     154.770 165.292 187.996  0.00  0.00    -0.038 A 
ATOM     83  C   UNL     1     155.043 166.258 188.969  0.00  0.00    -0.060 A 
ATOM     84  C   UNL     1     154.093 166.597 189.928  0.00  0.00    -0.061 A 
ATOM     85  C   UNL     1     152.840 165.974 189.944  0.00  0.00    -0.052 A 
ATOM     86  C   UNL     1     152.539 164.989 188.979  0.00  0.00    +0.004 A 
ATOM     87 BR   UNL     1     150.638 162.093 186.746  0.00  0.00    -0.031 Br
ATOM     88  H   UNL     1     153.464 163.264 186.441  0.00  0.00    +0.166 HD
ATOM     89  H   UNL     1     155.509 165.035 187.244  0.00  0.00    +0.064 HD
ATOM     90  H   UNL     1     156.010 166.755 188.970  0.00  0.00    +0.062 HD
ATOM     91  H   UNL     1     154.324 167.357 190.670  0.00  0.00    +0.062 HD
ATOM     92  H   UNL     1     152.111 166.258 190.697  0.00  0.00    +0.062 HD
ENDBRANCH  75  78
ENDBRANCH  12  75
TORSDOF 10
ENDMDL
MODEL 10
REMARK VINA RESULT:      -6.3      6.366      9.342
REMARK  Name = Jasplakinolide_conf1
REMARK  10 active torsions:
REMARK  status: ('A' for Active; 'I' for Inactive)
REMARK    1  A    between atoms: C_1  and  C_2
REMARK    2  A    between atoms: C_4  and  C_47
REMARK    3  A    between atoms: C_9  and  C_40
REMARK    4  A    between atoms: C_13  and  C_29
REMARK    5  A    between atoms: N_14  and  C_28
REMARK    6  A    between atoms: C_17  and  C_27
REMARK    7  A    between atoms: C_21  and  C_26
REMARK    8  A    between atoms: C_23  and  C_25
REMARK    9  A    between atoms: C_29  and  C_30
REMARK   10  A    between atoms: C_43  and  O_46
REMARK                            x       y       z     vdW  Elec       q    Type
REMARK                         _______ _______ _______ _____ _____    ______ ____
ROOT
ATOM      1  C   UNL     1     151.857 159.307 190.335  0.00  0.00    -0.022 C 
ATOM      2  C   UNL     1     150.362 159.052 190.026  0.00  0.00    -0.010 C 
ATOM      3  C   UNL     1     149.558 160.270 189.532  0.00  0.00    +0.101 C 
ATOM      4  O   UNL     1     149.528 161.236 190.601  0.00  0.00    -0.462 OA
ATOM      5  C   UNL     1     148.507 162.131 190.578  0.00  0.00    +0.309 C 
ATOM      6  O   UNL     1     147.601 162.148 189.755  0.00  0.00    -0.251 OA
ATOM      7  C   UNL     1     148.562 163.064 191.757  0.00  0.00    +0.067 C 
ATOM      8  C   UNL     1     149.925 163.746 191.918  0.00  0.00    +0.058 C 
ATOM      9  N   UNL     1     150.215 164.643 190.810  0.00  0.00    -0.306 N 
ATOM     10  C   UNL     1     151.479 164.758 190.262  0.00  0.00    +0.234 C 
ATOM     11  O   UNL     1     152.439 164.103 190.665  0.00  0.00    -0.274 OA
ATOM     12  C   UNL     1     151.584 165.792 189.113  0.00  0.00    +0.106 C 
ATOM     13  N   UNL     1     152.440 165.258 188.026  0.00  0.00    -0.291 N 
ATOM     14  C   UNL     1     151.822 164.602 186.969  0.00  0.00    +0.236 C 
ATOM     15  O   UNL     1     150.608 164.361 186.983  0.00  0.00    -0.274 OA
ATOM     16  C   UNL     1     152.681 164.135 185.771  0.00  0.00    +0.097 C 
ATOM     17  N   UNL     1     152.699 162.677 185.797  0.00  0.00    -0.304 N 
ATOM     18  C   UNL     1     153.841 161.955 186.050  0.00  0.00    +0.217 C 
ATOM     19  O   UNL     1     154.944 162.474 186.191  0.00  0.00    -0.275 OA
ATOM     20  C   UNL     1     153.626 160.448 186.091  0.00  0.00    +0.036 C 
ATOM     21  C   UNL     1     154.327 159.817 187.304  0.00  0.00    -0.021 C 
ATOM     22  C   UNL     1     153.600 160.089 188.613  0.00  0.00    -0.076 C 
ATOM     23  C   UNL     1     152.705 159.197 189.084  0.00  0.00    -0.082 C 
ATOM     24  H   UNL     1     151.951 160.295 190.797  0.00  0.00    +0.034 HD
ATOM     25  H   UNL     1     150.258 158.235 189.300  0.00  0.00    +0.031 HD
ATOM     26  H   UNL     1     149.876 158.708 190.950  0.00  0.00    +0.031 HD
ATOM     27  H   UNL     1     148.537 159.914 189.338  0.00  0.00    +0.073 HD
ATOM     28  H   UNL     1     148.300 162.482 192.648  0.00  0.00    +0.040 HD
ATOM     29  H   UNL     1     147.769 163.809 191.610  0.00  0.00    +0.040 HD
ATOM     30  H   UNL     1     150.698 162.966 191.939  0.00  0.00    +0.055 HD
ATOM     31  H   UNL     1     149.500 165.304 190.530  0.00  0.00    +0.149 HD
ATOM     32  H   UNL     1     150.573 165.905 188.703  0.00  0.00    +0.060 HD
ATOM     33  H   UNL     1     153.697 164.532 185.821  0.00  0.00    +0.059 HD
ATOM     34  H   UNL     1     151.799 162.209 185.788  0.00  0.00    +0.149 HD
ATOM     35  H   UNL     1     152.552 160.229 186.137  0.00  0.00    +0.039 HD
ATOM     36  H   UNL     1     154.388 158.731 187.155  0.00  0.00    +0.032 HD
ATOM     37  H   UNL     1     155.367 160.155 187.384  0.00  0.00    +0.032 HD
ATOM     38  H   UNL     1     152.539 158.287 188.506  0.00  0.00    +0.057 HD
ENDROOT
BRANCH   8  39
ATOM     39  C   UNL     1     150.019 164.528 193.224  0.00  0.00    -0.026 A 
ATOM     40  C   UNL     1     151.150 164.462 194.057  0.00  0.00    -0.053 A 
ATOM     41  C   UNL     1     151.190 165.171 195.260  0.00  0.00    -0.020 A 
ATOM     42  C   UNL     1     150.097 165.933 195.650  0.00  0.00    +0.117 A 
ATOM     43  C   UNL     1     148.963 166.010 194.850  0.00  0.00    -0.020 A 
ATOM     44  C   UNL     1     148.925 165.304 193.643  0.00  0.00    -0.053 A 
ATOM     45  H   UNL     1     152.006 163.845 193.793  0.00  0.00    +0.062 HD
ATOM     46  H   UNL     1     152.070 165.114 195.896  0.00  0.00    +0.065 HD
ATOM     47  H   UNL     1     148.096 166.590 195.150  0.00  0.00    +0.065 HD
ATOM     48  H   UNL     1     148.022 165.344 193.036  0.00  0.00    +0.062 HD
BRANCH  42  49
ATOM     49  O   UNL     1     150.169 166.582 196.847  0.00  0.00    -0.507 OA
ATOM     50  H   UNL     1     149.650 167.401 196.782  0.00  0.00    +0.292 HD
ENDBRANCH  42  49
ENDBRANCH   8  39
BRANCH   1  51
ATOM     51  C   UNL     1     152.366 158.274 191.348  0.00  0.00    -0.059 C 
ATOM     52  H   UNL     1     153.381 157.949 191.094  0.00  0.00    +0.024 HD
ATOM     53  H   UNL     1     151.727 157.383 191.357  0.00  0.00    +0.024 HD
ATOM     54  H   UNL     1     152.388 158.684 192.366  0.00  0.00    +0.024 HD
ENDBRANCH   1  51
BRANCH  22  55
ATOM     55  C   UNL     1     153.981 161.364 189.319  0.00  0.00    -0.044 C 
ATOM     56  H   UNL     1     153.403 161.479 190.243  0.00  0.00    +0.027 HD
ATOM     57  H   UNL     1     155.043 161.354 189.574  0.00  0.00    +0.027 HD
ATOM     58  H   UNL     1     153.781 162.257 188.721  0.00  0.00    +0.027 HD
ENDBRANCH  22  55
BRANCH  20  59
ATOM     59  C   UNL     1     154.169 159.864 184.786  0.00  0.00    -0.054 C 
ATOM     60  H   UNL     1     153.668 160.302 183.914  0.00  0.00    +0.024 HD
ATOM     61  H   UNL     1     155.243 160.051 184.693  0.00  0.00    +0.024 HD
ATOM     62  H   UNL     1     154.010 158.781 184.749  0.00  0.00    +0.024 HD
ENDBRANCH  20  59
BRANCH  16  63
ATOM     63  C   UNL     1     152.057 164.622 184.467  0.00  0.00    -0.038 C 
ATOM     64  H   UNL     1     151.416 163.849 184.030  0.00  0.00    +0.025 HD
ATOM     65  H   UNL     1     151.437 165.513 184.622  0.00  0.00    +0.025 HD
ATOM     66  H   UNL     1     152.831 164.879 183.738  0.00  0.00    +0.025 HD
ENDBRANCH  16  63
BRANCH  13  67
ATOM     67  C   UNL     1     153.889 165.294 188.200  0.00  0.00    +0.004 C 
ATOM     68  H   UNL     1     154.288 166.281 187.959  0.00  0.00    +0.043 HD
ATOM     69  H   UNL     1     154.384 164.573 187.544  0.00  0.00    +0.043 HD
ATOM     70  H   UNL     1     154.113 165.051 189.245  0.00  0.00    +0.043 HD
ENDBRANCH  13  67
BRANCH   3  71
ATOM     71  C   UNL     1     150.108 160.918 188.266  0.00  0.00    -0.028 C 
ATOM     72  H   UNL     1     150.665 160.186 187.672  0.00  0.00    +0.027 HD
ATOM     73  H   UNL     1     149.305 161.274 187.617  0.00  0.00    +0.027 HD
ATOM     74  H   UNL     1     150.789 161.739 188.501  0.00  0.00    +0.027 HD
ENDBRANCH   3  71
BRANCH  12  75
ATOM     75  C   UNL     1     152.032 167.179 189.614  0.00  0.00    +0.003 C 
ATOM     76  H   UNL     1     153.080 167.154 189.925  0.00  0.00    +0.034 HD
ATOM     77  H   UNL     1     151.997 167.887 188.774  0.00  0.00    +0.034 HD
BRANCH  75  78
ATOM     78  C   UNL     1     151.196 167.732 190.730  0.00  0.00    -0.006 A 
ATOM     79  C   UNL     1     151.579 167.935 192.041  0.00  0.00    +0.087 A 
ATOM     80  N   UNL     1     150.515 168.405 192.750  0.00  0.00    -0.349 N 
ATOM     81  C   UNL     1     149.422 168.540 191.926  0.00  0.00    +0.048 A 
ATOM     82  C   UNL     1     148.125 168.975 192.218  0.00  0.00    -0.038 A 
ATOM     83  C   UNL     1     147.203 169.008 191.168  0.00  0.00    -0.060 A 
ATOM     84  C   UNL     1     147.569 168.628 189.881  0.00  0.00    -0.061 A 
ATOM     85  C   UNL     1     148.871 168.196 189.606  0.00  0.00    -0.052 A 
ATOM     86  C   UNL     1     149.822 168.144 190.648  0.00  0.00    +0.004 A 
ATOM     87 BR   UNL     1     153.286 167.608 192.816  0.00  0.00    -0.031 Br
ATOM     88  H   UNL     1     150.526 168.593 193.743  0.00  0.00    +0.166 HD
ATOM     89  H   UNL     1     147.839 169.281 193.220  0.00  0.00    +0.064 HD
ATOM     90  H   UNL     1     146.186 169.344 191.361  0.00  0.00    +0.062 HD
ATOM     91  H   UNL     1     146.837 168.669 189.077  0.00  0.00    +0.062 HD
ATOM     92  H   UNL     1     149.137 167.909 188.594  0.00  0.00    +0.062 HD
ENDBRANCH  75  78
ENDBRANCH  12  75
TORSDOF 10
ENDMDL
