MODEL 1
REMARK VINA RESULT:      -5.4      0.000      0.000
REMARK  Name = Kabiramide C_conf2
REMARK  29 active torsions:
REMARK  status: ('A' for Active; 'I' for Inactive)
REMARK    1  A    between atoms: C_1  and  C_2
REMARK    2  A    between atoms: C_4  and  O_64
REMARK    3  A    between atoms: C_9  and  C_41
REMARK    4  A    between atoms: C_10  and  C_40
REMARK    5  A    between atoms: C_11  and  O_38
REMARK    6  A    between atoms: C_30  and  O_36
REMARK    7  A    between atoms: C_31  and  C_35
REMARK    8  A    between atoms: C_32  and  O_34
REMARK    9  A    between atoms: O_36  and  C_37
REMARK   10  A    between atoms: O_38  and  C_39
REMARK   11  A    between atoms: C_41  and  C_42
REMARK   12  A    between atoms: C_42  and  C_43
REMARK   13  A    between atoms: C_42  and  O_62
REMARK   14  A    between atoms: C_43  and  C_44
REMARK   15  A    between atoms: C_43  and  C_45
REMARK   16  A    between atoms: C_45  and  C_46
REMARK   17  A    between atoms: C_46  and  C_47
REMARK   18  A    between atoms: C_47  and  C_49
REMARK   19  A    between atoms: C_49  and  C_50
REMARK   20  A    between atoms: C_49  and  C_51
REMARK   21  A    between atoms: C_51  and  C_52
REMARK   22  A    between atoms: C_51  and  O_60
REMARK   23  A    between atoms: C_52  and  C_53
REMARK   24  A    between atoms: C_52  and  C_54
REMARK   25  A    between atoms: C_55  and  N_56
REMARK   26  A    between atoms: N_56  and  C_57
REMARK   27  A    between atoms: O_60  and  C_61
REMARK   28  A    between atoms: O_62  and  C_63
REMARK   29  A    between atoms: O_64  and  C_65
REMARK                            x       y       z     vdW  Elec       q    Type
REMARK                         _______ _______ _______ _____ _____    ______ ____
ROOT
ATOM      1  C   UNL     1     146.584 170.419 186.060  0.00  0.00    -0.038 C 
ATOM      2  C   UNL     1     145.449 171.199 185.363  0.00  0.00    -0.012 C 
ATOM      3  C   UNL     1     144.081 171.261 186.076  0.00  0.00    +0.115 C 
ATOM      4  C   UNL     1     144.156 171.982 187.428  0.00  0.00    +0.082 C 
ATOM      5  C   UNL     1     142.823 171.977 188.146  0.00  0.00    +0.311 C 
ATOM      6  O   UNL     1     141.727 171.971 187.604  0.00  0.00    -0.251 OA
ATOM      7  O   UNL     1     143.014 172.053 189.502  0.00  0.00    -0.461 OA
ATOM      8  C   UNL     1     141.819 171.987 190.312  0.00  0.00    +0.110 C 
ATOM      9  C   UNL     1     142.090 172.609 191.723  0.00  0.00    +0.020 C 
ATOM     10  C   UNL     1     142.331 174.159 191.663  0.00  0.00    +0.068 C 
ATOM     11  C   UNL     1     143.675 174.600 191.039  0.00  0.00    -0.008 C 
ATOM     12  C   UNL     1     144.888 174.065 191.762  0.00  0.00    -0.077 C 
ATOM     13  C   UNL     1     145.678 173.133 191.217  0.00  0.00    -0.003 C 
ATOM     14  C   UNL     1     146.784 172.536 191.871  0.00  0.00    +0.220 A 
ATOM     15  N   UNL     1     147.245 171.346 191.536  0.00  0.00    -0.205 NA
ATOM     16  C   UNL     1     148.382 171.165 192.276  0.00  0.00    +0.164 A 
ATOM     17  C   UNL     1     148.562 172.233 193.110  0.00  0.00    +0.125 A 
ATOM     18  O   UNL     1     147.536 173.111 192.885  0.00  0.00    -0.443 OA
ATOM     19  C   UNL     1     149.309 169.937 192.054  0.00  0.00    +0.250 A 
ATOM     20  N   UNL     1     148.960 168.989 191.211  0.00  0.00    -0.203 NA
ATOM     21  C   UNL     1     150.092 168.240 191.050  0.00  0.00    +0.164 A 
ATOM     22  C   UNL     1     151.064 168.673 191.909  0.00  0.00    +0.125 A 
ATOM     23  O   UNL     1     150.563 169.754 192.593  0.00  0.00    -0.442 OA
ATOM     24  C   UNL     1     150.189 167.186 189.913  0.00  0.00    +0.249 A 
ATOM     25  N   UNL     1     149.139 166.934 189.151  0.00  0.00    -0.210 NA
ATOM     26  C   UNL     1     149.645 166.266 188.066  0.00  0.00    +0.109 A 
ATOM     27  C   UNL     1     150.972 165.979 188.310  0.00  0.00    +0.118 A 
ATOM     28  O   UNL     1     151.327 166.544 189.503  0.00  0.00    -0.442 OA
ATOM     29  C   UNL     1     148.776 165.956 186.877  0.00  0.00    +0.108 C 
ATOM     30  C   UNL     1     148.215 167.233 186.142  0.00  0.00    +0.014 C 
ATOM     31  C   UNL     1     147.228 168.046 187.043  0.00  0.00    +0.061 C 
ATOM     32  C   UNL     1     146.174 168.958 186.370  0.00  0.00    -0.024 C 
ATOM     33  H   UNL     1     146.807 170.928 187.005  0.00  0.00    +0.030 HD
ATOM     34  H   UNL     1     145.307 170.776 184.358  0.00  0.00    +0.030 HD
ATOM     35  H   UNL     1     145.781 172.229 185.181  0.00  0.00    +0.030 HD
ATOM     36  H   UNL     1     143.664 170.257 186.227  0.00  0.00    +0.074 HD
ATOM     37  H   UNL     1     144.447 173.030 187.294  0.00  0.00    +0.041 HD
ATOM     38  H   UNL     1     144.889 171.488 188.072  0.00  0.00    +0.041 HD
ATOM     39  H   UNL     1     141.043 172.605 189.840  0.00  0.00    +0.074 HD
ATOM     40  H   UNL     1     142.986 172.148 192.153  0.00  0.00    +0.036 HD
ATOM     41  H   UNL     1     141.513 174.600 191.077  0.00  0.00    +0.060 HD
ATOM     42  H   UNL     1     143.703 174.335 189.977  0.00  0.00    +0.033 HD
ATOM     43  H   UNL     1     143.755 175.694 191.061  0.00  0.00    +0.033 HD
ATOM     44  H   UNL     1     145.074 174.441 192.766  0.00  0.00    +0.057 HD
ATOM     45  H   UNL     1     145.454 172.734 190.234  0.00  0.00    +0.067 HD
ATOM     46  H   UNL     1     149.298 172.525 193.844  0.00  0.00    +0.105 HD
ATOM     47  H   UNL     1     152.087 168.399 192.120  0.00  0.00    +0.105 HD
ATOM     48  H   UNL     1     151.746 165.462 187.764  0.00  0.00    +0.105 HD
ATOM     49  H   UNL     1     147.914 165.372 187.231  0.00  0.00    +0.067 HD
ATOM     50  H   UNL     1     149.077 167.865 185.889  0.00  0.00    +0.035 HD
ATOM     51  H   UNL     1     146.658 167.327 187.649  0.00  0.00    +0.060 HD
ATOM     52  H   UNL     1     145.352 169.026 187.096  0.00  0.00    +0.029 HD
ATOM     53  H   UNL     1     145.725 168.482 185.492  0.00  0.00    +0.029 HD
ENDROOT
BRANCH   1  54
ATOM     54  C   UNL     1     147.843 170.515 185.193  0.00  0.00    -0.062 C 
ATOM     55  H   UNL     1     148.748 170.323 185.773  0.00  0.00    +0.023 HD
ATOM     56  H   UNL     1     147.808 169.809 184.359  0.00  0.00    +0.023 HD
ATOM     57  H   UNL     1     147.947 171.522 184.773  0.00  0.00    +0.023 HD
ENDBRANCH   1  54
BRANCH  30  58
ATOM     58  C   UNL     1     147.562 166.801 184.817  0.00  0.00    -0.057 C 
ATOM     59  H   UNL     1     147.261 167.662 184.215  0.00  0.00    +0.023 HD
ATOM     60  H   UNL     1     148.256 166.232 184.190  0.00  0.00    +0.023 HD
ATOM     61  H   UNL     1     146.681 166.176 184.999  0.00  0.00    +0.023 HD
ENDBRANCH  30  58
BRANCH   9  62
ATOM     62  C   UNL     1     140.927 172.311 192.693  0.00  0.00    -0.057 C 
ATOM     63  H   UNL     1     140.500 173.239 193.087  0.00  0.00    +0.023 HD
ATOM     64  H   UNL     1     141.252 171.699 193.539  0.00  0.00    +0.023 HD
ATOM     65  H   UNL     1     140.128 171.741 192.210  0.00  0.00    +0.023 HD
ENDBRANCH   9  62
BRANCH   8  66
ATOM     66  C   UNL     1     141.297 170.525 190.335  0.00  0.00    +0.011 C 
ATOM     67  H   UNL     1     141.269 170.185 191.378  0.00  0.00    +0.033 HD
ATOM     68  H   UNL     1     142.032 169.888 189.830  0.00  0.00    +0.033 HD
BRANCH  66  69
ATOM     69  C   UNL     1     139.892 170.313 189.725  0.00  0.00    +0.064 C 
ATOM     70  H   UNL     1     139.570 171.242 189.243  0.00  0.00    +0.060 HD
BRANCH  69  71
ATOM     71  C   UNL     1     139.934 169.191 188.644  0.00  0.00    -0.017 C 
ATOM     72  H   UNL     1     139.457 168.304 189.083  0.00  0.00    +0.032 HD
BRANCH  71  73
ATOM     73  C   UNL     1     139.156 169.568 187.377  0.00  0.00    -0.060 C 
ATOM     74  H   UNL     1     138.084 169.618 187.579  0.00  0.00    +0.023 HD
ATOM     75  H   UNL     1     139.317 168.839 186.576  0.00  0.00    +0.023 HD
ATOM     76  H   UNL     1     139.452 170.553 187.004  0.00  0.00    +0.023 HD
ENDBRANCH  71  73
BRANCH  71  77
ATOM     77  C   UNL     1     141.389 168.801 188.298  0.00  0.00    -0.041 C 
ATOM     78  H   UNL     1     141.555 168.878 187.217  0.00  0.00    +0.027 HD
ATOM     79  H   UNL     1     142.060 169.528 188.773  0.00  0.00    +0.027 HD
BRANCH  77  80
ATOM     80  C   UNL     1     141.785 167.417 188.825  0.00  0.00    +0.007 C 
ATOM     81  H   UNL     1     141.436 166.622 188.159  0.00  0.00    +0.034 HD
ATOM     82  H   UNL     1     141.301 167.242 189.793  0.00  0.00    +0.034 HD
BRANCH  80  83
ATOM     83  C   UNL     1     143.276 167.269 189.080  0.00  0.00    +0.139 C 
ATOM     84  O   UNL     1     144.016 166.779 188.227  0.00  0.00    -0.297 OA
BRANCH  83  85
ATOM     85  C   UNL     1     143.828 167.883 190.368  0.00  0.00    +0.041 C 
ATOM     86  H   UNL     1     142.990 168.373 190.879  0.00  0.00    +0.040 HD
BRANCH  85  87
ATOM     87  C   UNL     1     144.856 168.933 189.946  0.00  0.00    -0.053 C 
ATOM     88  H   UNL     1     144.405 169.724 189.343  0.00  0.00    +0.024 HD
ATOM     89  H   UNL     1     145.330 169.394 190.818  0.00  0.00    +0.024 HD
ATOM     90  H   UNL     1     145.651 168.485 189.341  0.00  0.00    +0.024 HD
ENDBRANCH  85  87
BRANCH  85  91
ATOM     91  C   UNL     1     144.393 166.776 191.289  0.00  0.00    +0.074 C 
ATOM     92  H   UNL     1     143.908 165.819 191.052  0.00  0.00    +0.061 HD
BRANCH  91  93
ATOM     93  C   UNL     1     145.933 166.563 191.159  0.00  0.00    +0.003 C 
ATOM     94  H   UNL     1     146.336 167.366 190.529  0.00  0.00    +0.037 HD
BRANCH  93  95
ATOM     95  C   UNL     1     146.255 165.245 190.443  0.00  0.00    -0.057 C 
ATOM     96  H   UNL     1     147.010 164.679 190.998  0.00  0.00    +0.024 HD
ATOM     97  H   UNL     1     146.630 165.407 189.429  0.00  0.00    +0.024 HD
ATOM     98  H   UNL     1     145.359 164.615 190.367  0.00  0.00    +0.024 HD
ENDBRANCH  93  95
BRANCH  93  99
ATOM     99  C   UNL     1     146.644 166.565 192.502  0.00  0.00    -0.065 C 
ATOM    100  C   UNL     1     147.784 165.898 192.737  0.00  0.00    -0.005 C 
ATOM    101  H   UNL     1     146.149 167.152 193.272  0.00  0.00    +0.059 HD
ATOM    102  H   UNL     1     148.232 165.329 191.923  0.00  0.00    +0.078 HD
BRANCH 100 103
ATOM    103  N   UNL     1     148.495 165.843 193.925  0.00  0.00    -0.284 N 
ATOM    104  C   UNL     1     147.957 166.030 195.195  0.00  0.00    +0.206 C 
ATOM    105  O   UNL     1     148.579 166.001 196.252  0.00  0.00    -0.279 OA
ATOM    106  H   UNL     1     146.874 166.219 195.199  0.00  0.00    +0.126 HD
BRANCH 103 107
ATOM    107  C   UNL     1     149.927 165.570 193.833  0.00  0.00    +0.007 C 
ATOM    108  H   UNL     1     150.117 165.009 192.911  0.00  0.00    +0.043 HD
ATOM    109  H   UNL     1     150.520 166.487 193.811  0.00  0.00    +0.043 HD
ATOM    110  H   UNL     1     150.238 164.973 194.697  0.00  0.00    +0.043 HD
ENDBRANCH 103 107
ENDBRANCH 100 103
ENDBRANCH  93  99
ENDBRANCH  91  93
BRANCH  91 111
ATOM    111  O   UNL     1     144.108 167.157 192.651  0.00  0.00    -0.379 OA
BRANCH 111 112
ATOM    112  C   UNL     1     142.719 167.130 192.963  0.00  0.00    +0.037 C 
ATOM    113  H   UNL     1     142.447 166.102 193.218  0.00  0.00    +0.052 HD
ATOM    114  H   UNL     1     142.502 167.769 193.823  0.00  0.00    +0.052 HD
ATOM    115  H   UNL     1     142.123 167.445 192.100  0.00  0.00    +0.052 HD
ENDBRANCH 111 112
ENDBRANCH  91 111
ENDBRANCH  85  91
ENDBRANCH  83  85
ENDBRANCH  80  83
ENDBRANCH  77  80
ENDBRANCH  71  77
ENDBRANCH  69  71
BRANCH  69 116
ATOM    116  O   UNL     1     138.993 169.952 190.779  0.00  0.00    -0.379 OA
BRANCH 116 117
ATOM    117  C   UNL     1     137.820 170.759 190.818  0.00  0.00    +0.037 C 
ATOM    118  H   UNL     1     137.834 171.348 191.741  0.00  0.00    +0.052 HD
ATOM    119  H   UNL     1     136.919 170.138 190.812  0.00  0.00    +0.052 HD
ATOM    120  H   UNL     1     137.808 171.440 189.965  0.00  0.00    +0.052 HD
ENDBRANCH 116 117
ENDBRANCH  69 116
ENDBRANCH  66  69
ENDBRANCH   8  66
BRANCH  31 121
ATOM    121  O   UNL     1     147.957 168.887 187.935  0.00  0.00    -0.391 OA
ATOM    122  H   UNL     1     147.675 168.654 188.848  0.00  0.00    +0.210 HD
ENDBRANCH  31 121
BRANCH  29 123
ATOM    123  O   UNL     1     149.527 165.171 185.925  0.00  0.00    -0.373 OA
BRANCH 123 124
ATOM    124  C   UNL     1     149.212 163.787 185.992  0.00  0.00    +0.037 C 
ATOM    125  H   UNL     1     149.331 163.460 187.029  0.00  0.00    +0.052 HD
ATOM    126  H   UNL     1     148.180 163.604 185.684  0.00  0.00    +0.052 HD
ATOM    127  H   UNL     1     149.901 163.213 185.368  0.00  0.00    +0.052 HD
ENDBRANCH 123 124
ENDBRANCH  29 123
BRANCH  10 128
ATOM    128  O   UNL     1     142.260 174.683 193.006  0.00  0.00    -0.379 OA
BRANCH 128 129
ATOM    129  C   UNL     1     142.044 176.087 193.065  0.00  0.00    +0.037 C 
ATOM    130  H   UNL     1     141.571 176.374 194.007  0.00  0.00    +0.052 HD
ATOM    131  H   UNL     1     141.372 176.360 192.246  0.00  0.00    +0.052 HD
ATOM    132  H   UNL     1     142.986 176.628 192.934  0.00  0.00    +0.052 HD
ENDBRANCH 128 129
ENDBRANCH  10 128
BRANCH   3 133
ATOM    133  O   UNL     1     143.190 172.022 185.223  0.00  0.00    -0.447 OA
BRANCH 133 134
ATOM    134  C   UNL     1     142.534 171.315 184.274  0.00  0.00    +0.398 C 
ATOM    135  O   UNL     1     142.678 171.409 183.068  0.00  0.00    -0.227 OA
ATOM    136  N   UNL     1     141.659 170.469 184.859  0.00  0.00    -0.295 N 
ATOM    137  H   UNL     1     141.623 170.407 185.863  0.00  0.00    +0.148 HD
ATOM    138  H   UNL     1     141.111 169.852 184.279  0.00  0.00    +0.148 HD
ENDBRANCH 133 134
ENDBRANCH   3 133
TORSDOF 29
ENDMDL
MODEL 2
REMARK VINA RESULT:      -5.0      3.479      9.619
REMARK  Name = Kabiramide C_conf2
REMARK  29 active torsions:
REMARK  status: ('A' for Active; 'I' for Inactive)
REMARK    1  A    between atoms: C_1  and  C_2
REMARK    2  A    between atoms: C_4  and  O_64
REMARK    3  A    between atoms: C_9  and  C_41
REMARK    4  A    between atoms: C_10  and  C_40
REMARK    5  A    between atoms: C_11  and  O_38
REMARK    6  A    between atoms: C_30  and  O_36
REMARK    7  A    between atoms: C_31  and  C_35
REMARK    8  A    between atoms: C_32  and  O_34
REMARK    9  A    between atoms: O_36  and  C_37
REMARK   10  A    between atoms: O_38  and  C_39
REMARK   11  A    between atoms: C_41  and  C_42
REMARK   12  A    between atoms: C_42  and  C_43
REMARK   13  A    between atoms: C_42  and  O_62
REMARK   14  A    between atoms: C_43  and  C_44
REMARK   15  A    between atoms: C_43  and  C_45
REMARK   16  A    between atoms: C_45  and  C_46
REMARK   17  A    between atoms: C_46  and  C_47
REMARK   18  A    between atoms: C_47  and  C_49
REMARK   19  A    between atoms: C_49  and  C_50
REMARK   20  A    between atoms: C_49  and  C_51
REMARK   21  A    between atoms: C_51  and  C_52
REMARK   22  A    between atoms: C_51  and  O_60
REMARK   23  A    between atoms: C_52  and  C_53
REMARK   24  A    between atoms: C_52  and  C_54
REMARK   25  A    between atoms: C_55  and  N_56
REMARK   26  A    between atoms: N_56  and  C_57
REMARK   27  A    between atoms: O_60  and  C_61
REMARK   28  A    between atoms: O_62  and  C_63
REMARK   29  A    between atoms: O_64  and  C_65
REMARK                            x       y       z     vdW  Elec       q    Type
REMARK                         _______ _______ _______ _____ _____    ______ ____
ROOT
ATOM      1  C   UNL     1     143.820 167.133 191.031  0.00  0.00    -0.038 C 
ATOM      2  C   UNL     1     143.287 165.740 190.634  0.00  0.00    -0.012 C 
ATOM      3  C   UNL     1     143.929 165.050 189.411  0.00  0.00    +0.115 C 
ATOM      4  C   UNL     1     145.419 164.754 189.620  0.00  0.00    +0.082 C 
ATOM      5  C   UNL     1     146.052 164.138 188.390  0.00  0.00    +0.311 C 
ATOM      6  O   UNL     1     145.476 163.429 187.577  0.00  0.00    -0.251 OA
ATOM      7  O   UNL     1     147.391 164.428 188.349  0.00  0.00    -0.461 OA
ATOM      8  C   UNL     1     148.104 163.957 187.184  0.00  0.00    +0.110 C 
ATOM      9  C   UNL     1     149.636 163.861 187.491  0.00  0.00    +0.020 C 
ATOM     10  C   UNL     1     149.974 162.734 188.530  0.00  0.00    +0.068 C 
ATOM     11  C   UNL     1     149.541 163.020 189.987  0.00  0.00    -0.008 C 
ATOM     12  C   UNL     1     150.164 164.264 190.575  0.00  0.00    -0.077 C 
ATOM     13  C   UNL     1     149.442 165.362 190.825  0.00  0.00    -0.003 C 
ATOM     14  C   UNL     1     149.978 166.583 191.303  0.00  0.00    +0.220 A 
ATOM     15  N   UNL     1     149.380 167.743 191.105  0.00  0.00    -0.205 NA
ATOM     16  C   UNL     1     150.103 168.661 191.818  0.00  0.00    +0.164 A 
ATOM     17  C   UNL     1     151.183 168.050 192.391  0.00  0.00    +0.125 A 
ATOM     18  O   UNL     1     151.136 166.724 192.054  0.00  0.00    -0.443 OA
ATOM     19  C   UNL     1     149.626 170.133 191.966  0.00  0.00    +0.250 A 
ATOM     20  N   UNL     1     148.559 170.551 191.318  0.00  0.00    -0.203 NA
ATOM     21  C   UNL     1     148.269 171.762 191.880  0.00  0.00    +0.164 A 
ATOM     22  C   UNL     1     149.254 172.113 192.764  0.00  0.00    +0.125 A 
ATOM     23  O   UNL     1     150.160 171.083 192.808  0.00  0.00    -0.442 OA
ATOM     24  C   UNL     1     146.913 172.463 191.597  0.00  0.00    +0.249 A 
ATOM     25  N   UNL     1     146.064 171.939 190.730  0.00  0.00    -0.210 NA
ATOM     26  C   UNL     1     144.872 172.567 190.982  0.00  0.00    +0.109 A 
ATOM     27  C   UNL     1     145.098 173.588 191.881  0.00  0.00    +0.118 A 
ATOM     28  O   UNL     1     146.409 173.547 192.266  0.00  0.00    -0.442 OA
ATOM     29  C   UNL     1     143.605 172.115 190.308  0.00  0.00    +0.108 C 
ATOM     30  C   UNL     1     143.185 170.636 190.658  0.00  0.00    +0.014 C 
ATOM     31  C   UNL     1     144.213 169.588 190.119  0.00  0.00    +0.061 C 
ATOM     32  C   UNL     1     143.739 168.138 189.855  0.00  0.00    -0.024 C 
ATOM     33  H   UNL     1     144.871 167.018 191.320  0.00  0.00    +0.030 HD
ATOM     34  H   UNL     1     142.203 165.820 190.467  0.00  0.00    +0.030 HD
ATOM     35  H   UNL     1     143.381 165.062 191.492  0.00  0.00    +0.030 HD
ATOM     36  H   UNL     1     143.807 165.653 188.502  0.00  0.00    +0.074 HD
ATOM     37  H   UNL     1     145.564 164.047 190.445  0.00  0.00    +0.041 HD
ATOM     38  H   UNL     1     145.955 165.680 189.847  0.00  0.00    +0.041 HD
ATOM     39  H   UNL     1     147.765 162.936 186.956  0.00  0.00    +0.074 HD
ATOM     40  H   UNL     1     149.979 164.813 187.909  0.00  0.00    +0.036 HD
ATOM     41  H   UNL     1     149.478 161.812 188.194  0.00  0.00    +0.060 HD
ATOM     42  H   UNL     1     148.449 163.059 190.056  0.00  0.00    +0.033 HD
ATOM     43  H   UNL     1     149.837 162.186 190.635  0.00  0.00    +0.033 HD
ATOM     44  H   UNL     1     151.238 164.246 190.752  0.00  0.00    +0.057 HD
ATOM     45  H   UNL     1     148.381 165.381 190.600  0.00  0.00    +0.067 HD
ATOM     46  H   UNL     1     151.999 168.360 193.025  0.00  0.00    +0.105 HD
ATOM     47  H   UNL     1     149.437 172.947 193.425  0.00  0.00    +0.105 HD
ATOM     48  H   UNL     1     144.478 174.343 192.340  0.00  0.00    +0.105 HD
ATOM     49  H   UNL     1     143.763 172.166 189.221  0.00  0.00    +0.067 HD
ATOM     50  H   UNL     1     143.136 170.564 191.753  0.00  0.00    +0.035 HD
ATOM     51  H   UNL     1     144.594 169.957 189.156  0.00  0.00    +0.060 HD
ATOM     52  H   UNL     1     144.420 167.752 189.084  0.00  0.00    +0.029 HD
ATOM     53  H   UNL     1     142.751 168.112 189.384  0.00  0.00    +0.029 HD
ENDROOT
BRANCH   1  54
ATOM     54  C   UNL     1     143.063 167.607 192.275  0.00  0.00    -0.062 C 
ATOM     55  H   UNL     1     143.483 168.531 192.676  0.00  0.00    +0.023 HD
ATOM     56  H   UNL     1     142.004 167.771 192.059  0.00  0.00    +0.023 HD
ATOM     57  H   UNL     1     143.128 166.860 193.075  0.00  0.00    +0.023 HD
ENDBRANCH   1  54
BRANCH  30  58
ATOM     58  C   UNL     1     141.765 170.380 190.121  0.00  0.00    -0.057 C 
ATOM     59  H   UNL     1     141.215 171.313 189.974  0.00  0.00    +0.023 HD
ATOM     60  H   UNL     1     141.784 169.892 189.141  0.00  0.00    +0.023 HD
ATOM     61  H   UNL     1     141.195 169.742 190.806  0.00  0.00    +0.023 HD
ENDBRANCH  30  58
BRANCH   9  62
ATOM     62  C   UNL     1     150.447 163.622 186.199  0.00  0.00    -0.057 C 
ATOM     63  H   UNL     1     151.401 164.156 186.234  0.00  0.00    +0.023 HD
ATOM     64  H   UNL     1     149.901 163.956 185.312  0.00  0.00    +0.023 HD
ATOM     65  H   UNL     1     150.650 162.561 186.035  0.00  0.00    +0.023 HD
ENDBRANCH   9  62
BRANCH   8  66
ATOM     66  C   UNL     1     147.740 164.848 185.965  0.00  0.00    +0.011 C 
ATOM     67  H   UNL     1     146.847 164.429 185.486  0.00  0.00    +0.033 HD
ATOM     68  H   UNL     1     148.545 164.768 185.227  0.00  0.00    +0.033 HD
BRANCH  66  69
ATOM     69  C   UNL     1     147.455 166.333 186.292  0.00  0.00    +0.064 C 
ATOM     70  H   UNL     1     147.186 166.419 187.350  0.00  0.00    +0.060 HD
BRANCH  69  71
ATOM     71  C   UNL     1     148.727 167.197 186.042  0.00  0.00    -0.017 C 
ATOM     72  H   UNL     1     149.279 166.726 185.217  0.00  0.00    +0.032 HD
BRANCH  71  73
ATOM     73  C   UNL     1     148.389 168.633 185.625  0.00  0.00    -0.060 C 
ATOM     74  H   UNL     1     147.602 168.643 184.867  0.00  0.00    +0.023 HD
ATOM     75  H   UNL     1     149.263 169.148 185.213  0.00  0.00    +0.023 HD
ATOM     76  H   UNL     1     148.017 169.218 186.472  0.00  0.00    +0.023 HD
ENDBRANCH  71  73
BRANCH  71  77
ATOM     77  C   UNL     1     149.660 167.189 187.274  0.00  0.00    -0.041 C 
ATOM     78  H   UNL     1     149.423 168.033 187.934  0.00  0.00    +0.027 HD
ATOM     79  H   UNL     1     149.461 166.275 187.848  0.00  0.00    +0.027 HD
BRANCH  77  80
ATOM     80  C   UNL     1     151.148 167.172 186.906  0.00  0.00    +0.007 C 
ATOM     81  H   UNL     1     151.426 168.057 186.327  0.00  0.00    +0.034 HD
ATOM     82  H   UNL     1     151.356 166.307 186.265  0.00  0.00    +0.034 HD
BRANCH  80  83
ATOM     83  C   UNL     1     152.068 167.023 188.107  0.00  0.00    +0.139 C 
ATOM     84  O   UNL     1     152.133 167.904 188.965  0.00  0.00    -0.297 OA
BRANCH  83  85
ATOM     85  C   UNL     1     152.789 165.684 188.272  0.00  0.00    +0.041 C 
ATOM     86  H   UNL     1     152.025 164.898 188.234  0.00  0.00    +0.040 HD
BRANCH  85  87
ATOM     87  C   UNL     1     153.436 165.704 189.656  0.00  0.00    -0.053 C 
ATOM     88  H   UNL     1     154.478 166.030 189.615  0.00  0.00    +0.024 HD
ATOM     89  H   UNL     1     152.895 166.369 190.336  0.00  0.00    +0.024 HD
ATOM     90  H   UNL     1     153.434 164.706 190.107  0.00  0.00    +0.024 HD
ENDBRANCH  85  87
BRANCH  85  91
ATOM     91  C   UNL     1     153.785 165.466 187.108  0.00  0.00    +0.074 C 
ATOM     92  H   UNL     1     153.265 165.599 186.150  0.00  0.00    +0.061 HD
BRANCH  91  93
ATOM     93  C   UNL     1     155.002 166.443 187.119  0.00  0.00    +0.003 C 
ATOM     94  H   UNL     1     154.889 167.117 187.977  0.00  0.00    +0.037 HD
BRANCH  93  95
ATOM     95  C   UNL     1     155.014 167.330 185.867  0.00  0.00    -0.057 C 
ATOM     96  H   UNL     1     154.455 166.855 185.054  0.00  0.00    +0.024 HD
ATOM     97  H   UNL     1     156.030 167.526 185.511  0.00  0.00    +0.024 HD
ATOM     98  H   UNL     1     154.543 168.299 186.072  0.00  0.00    +0.024 HD
ENDBRANCH  93  95
BRANCH  93  99
ATOM     99  C   UNL     1     156.336 165.722 187.210  0.00  0.00    -0.065 C 
ATOM    100  C   UNL     1     157.350 165.932 186.358  0.00  0.00    -0.005 C 
ATOM    101  H   UNL     1     156.407 165.006 188.026  0.00  0.00    +0.059 HD
ATOM    102  H   UNL     1     157.218 166.664 185.561  0.00  0.00    +0.078 HD
BRANCH 100 103
ATOM    103  N   UNL     1     158.593 165.321 186.365  0.00  0.00    -0.284 N 
ATOM    104  C   UNL     1     158.882 164.089 186.946  0.00  0.00    +0.206 C 
ATOM    105  O   UNL     1     159.982 163.546 186.974  0.00  0.00    -0.279 OA
ATOM    106  H   UNL     1     158.015 163.600 187.411  0.00  0.00    +0.126 HD
BRANCH 103 107
ATOM    107  C   UNL     1     159.690 166.031 185.711  0.00  0.00    +0.007 C 
ATOM    108  H   UNL     1     160.315 165.300 185.185  0.00  0.00    +0.043 HD
ATOM    109  H   UNL     1     159.330 166.765 184.987  0.00  0.00    +0.043 HD
ATOM    110  H   UNL     1     160.288 166.548 186.468  0.00  0.00    +0.043 HD
ENDBRANCH 103 107
ENDBRANCH 100 103
ENDBRANCH  93  99
ENDBRANCH  91  93
BRANCH  91 111
ATOM    111  O   UNL     1     154.292 164.120 187.219  0.00  0.00    -0.379 OA
BRANCH 111 112
ATOM    112  C   UNL     1     154.058 163.334 186.055  0.00  0.00    +0.037 C 
ATOM    113  H   UNL     1     153.092 162.835 186.170  0.00  0.00    +0.052 HD
ATOM    114  H   UNL     1     154.018 163.963 185.162  0.00  0.00    +0.052 HD
ATOM    115  H   UNL     1     154.834 162.569 185.942  0.00  0.00    +0.052 HD
ENDBRANCH 111 112
ENDBRANCH  91 111
ENDBRANCH  85  91
ENDBRANCH  83  85
ENDBRANCH  80  83
ENDBRANCH  77  80
ENDBRANCH  71  77
ENDBRANCH  69  71
BRANCH  69 116
ATOM    116  O   UNL     1     146.381 166.779 185.458  0.00  0.00    -0.379 OA
BRANCH 116 117
ATOM    117  C   UNL     1     145.160 166.967 186.167  0.00  0.00    +0.037 C 
ATOM    118  H   UNL     1     145.308 166.651 187.204  0.00  0.00    +0.052 HD
ATOM    119  H   UNL     1     144.357 166.365 185.729  0.00  0.00    +0.052 HD
ATOM    120  H   UNL     1     144.881 168.023 186.155  0.00  0.00    +0.052 HD
ENDBRANCH 116 117
ENDBRANCH  69 116
ENDBRANCH  66  69
ENDBRANCH   8  66
BRANCH  31 121
ATOM    121  O   UNL     1     145.317 169.479 191.014  0.00  0.00    -0.391 OA
ATOM    122  H   UNL     1     146.105 169.836 190.546  0.00  0.00    +0.210 HD
ENDBRANCH  31 121
BRANCH  29 123
ATOM    123  O   UNL     1     142.524 173.000 190.676  0.00  0.00    -0.373 OA
BRANCH 123 124
ATOM    124  C   UNL     1     142.248 173.969 189.673  0.00  0.00    +0.037 C 
ATOM    125  H   UNL     1     142.779 173.677 188.763  0.00  0.00    +0.052 HD
ATOM    126  H   UNL     1     141.178 174.014 189.456  0.00  0.00    +0.052 HD
ATOM    127  H   UNL     1     142.614 174.949 189.987  0.00  0.00    +0.052 HD
ENDBRANCH 123 124
ENDBRANCH  29 123
BRANCH  10 128
ATOM    128  O   UNL     1     151.400 162.513 188.515  0.00  0.00    -0.379 OA
BRANCH 128 129
ATOM    129  C   UNL     1     151.776 161.166 188.771  0.00  0.00    +0.037 C 
ATOM    130  H   UNL     1     151.001 160.639 189.331  0.00  0.00    +0.052 HD
ATOM    131  H   UNL     1     152.687 161.178 189.375  0.00  0.00    +0.052 HD
ATOM    132  H   UNL     1     151.989 160.641 187.834  0.00  0.00    +0.052 HD
ENDBRANCH 128 129
ENDBRANCH  10 128
BRANCH   3 133
ATOM    133  O   UNL     1     143.252 163.781 189.233  0.00  0.00    -0.447 OA
BRANCH 133 134
ATOM    134  C   UNL     1     142.283 163.757 188.289  0.00  0.00    +0.398 C 
ATOM    135  O   UNL     1     141.291 163.050 188.283  0.00  0.00    -0.227 OA
ATOM    136  N   UNL     1     142.577 164.640 187.310  0.00  0.00    -0.295 N 
ATOM    137  H   UNL     1     143.391 165.227 187.399  0.00  0.00    +0.148 HD
ATOM    138  H   UNL     1     141.933 164.756 186.543  0.00  0.00    +0.148 HD
ENDBRANCH 133 134
ENDBRANCH   3 133
TORSDOF 29
ENDMDL
MODEL 3
REMARK VINA RESULT:      -4.9      3.496      9.574
REMARK  Name = Kabiramide C_conf2
REMARK  29 active torsions:
REMARK  status: ('A' for Active; 'I' for Inactive)
REMARK    1  A    between atoms: C_1  and  C_2
REMARK    2  A    between atoms: C_4  and  O_64
REMARK    3  A    between atoms: C_9  and  C_41
REMARK    4  A    between atoms: C_10  and  C_40
REMARK    5  A    between atoms: C_11  and  O_38
REMARK    6  A    between atoms: C_30  and  O_36
REMARK    7  A    between atoms: C_31  and  C_35
REMARK    8  A    between atoms: C_32  and  O_34
REMARK    9  A    between atoms: O_36  and  C_37
REMARK   10  A    between atoms: O_38  and  C_39
REMARK   11  A    between atoms: C_41  and  C_42
REMARK   12  A    between atoms: C_42  and  C_43
REMARK   13  A    between atoms: C_42  and  O_62
REMARK   14  A    between atoms: C_43  and  C_44
REMARK   15  A    between atoms: C_43  and  C_45
REMARK   16  A    between atoms: C_45  and  C_46
REMARK   17  A    between atoms: C_46  and  C_47
REMARK   18  A    between atoms: C_47  and  C_49
REMARK   19  A    between atoms: C_49  and  C_50
REMARK   20  A    between atoms: C_49  and  C_51
REMARK   21  A    between atoms: C_51  and  C_52
REMARK   22  A    between atoms: C_51  and  O_60
REMARK   23  A    between atoms: C_52  and  C_53
REMARK   24  A    between atoms: C_52  and  C_54
REMARK   25  A    between atoms: C_55  and  N_56
REMARK   26  A    between atoms: N_56  and  C_57
REMARK   27  A    between atoms: O_60  and  C_61
REMARK   28  A    between atoms: O_62  and  C_63
REMARK   29  A    between atoms: O_64  and  C_65
REMARK                            x       y       z     vdW  Elec       q    Type
REMARK                         _______ _______ _______ _____ _____    ______ ____
ROOT
ATOM      1  C   UNL     1     144.268 167.040 190.614  0.00  0.00    -0.038 C 
ATOM      2  C   UNL     1     143.719 165.632 190.301  0.00  0.00    -0.012 C 
ATOM      3  C   UNL     1     144.481 164.780 189.263  0.00  0.00    +0.115 C 
ATOM      4  C   UNL     1     145.911 164.453 189.709  0.00  0.00    +0.082 C 
ATOM      5  C   UNL     1     146.669 163.675 188.653  0.00  0.00    +0.311 C 
ATOM      6  O   UNL     1     146.169 162.900 187.851  0.00  0.00    -0.251 OA
ATOM      7  O   UNL     1     148.015 163.907 188.767  0.00  0.00    -0.461 OA
ATOM      8  C   UNL     1     148.851 163.276 187.771  0.00  0.00    +0.110 C 
ATOM      9  C   UNL     1     150.321 163.158 188.298  0.00  0.00    +0.020 C 
ATOM     10  C   UNL     1     150.455 162.146 189.490  0.00  0.00    +0.068 C 
ATOM     11  C   UNL     1     149.847 162.616 190.833  0.00  0.00    -0.008 C 
ATOM     12  C   UNL     1     150.452 163.895 191.362  0.00  0.00    -0.077 C 
ATOM     13  C   UNL     1     149.764 165.041 191.387  0.00  0.00    -0.003 C 
ATOM     14  C   UNL     1     150.296 166.288 191.798  0.00  0.00    +0.220 A 
ATOM     15  N   UNL     1     149.793 167.440 191.394  0.00  0.00    -0.205 NA
ATOM     16  C   UNL     1     150.464 168.405 192.095  0.00  0.00    +0.164 A 
ATOM     17  C   UNL     1     151.422 167.823 192.876  0.00  0.00    +0.125 A 
ATOM     18  O   UNL     1     151.349 166.471 192.683  0.00  0.00    -0.443 OA
ATOM     19  C   UNL     1     150.051 169.902 192.013  0.00  0.00    +0.250 A 
ATOM     20  N   UNL     1     149.104 170.282 191.181  0.00  0.00    -0.203 NA
ATOM     21  C   UNL     1     148.808 171.562 191.562  0.00  0.00    +0.164 A 
ATOM     22  C   UNL     1     149.683 171.974 192.530  0.00  0.00    +0.125 A 
ATOM     23  O   UNL     1     150.518 170.922 192.812  0.00  0.00    -0.442 OA
ATOM     24  C   UNL     1     147.541 172.276 191.018  0.00  0.00    +0.249 A 
ATOM     25  N   UNL     1     146.789 171.689 190.103  0.00  0.00    -0.210 NA
ATOM     26  C   UNL     1     145.609 172.387 190.117  0.00  0.00    +0.109 A 
ATOM     27  C   UNL     1     145.768 173.495 190.921  0.00  0.00    +0.118 A 
ATOM     28  O   UNL     1     147.011 173.449 191.487  0.00  0.00    -0.442 OA
ATOM     29  C   UNL     1     144.422 171.909 189.327  0.00  0.00    +0.108 C 
ATOM     30  C   UNL     1     143.879 170.498 189.775  0.00  0.00    +0.014 C 
ATOM     31  C   UNL     1     144.912 169.355 189.502  0.00  0.00    +0.061 C 
ATOM     32  C   UNL     1     144.400 167.904 189.335  0.00  0.00    -0.024 C 
ATOM     33  H   UNL     1     145.264 166.918 191.057  0.00  0.00    +0.030 HD
ATOM     34  H   UNL     1     142.673 165.734 189.978  0.00  0.00    +0.030 HD
ATOM     35  H   UNL     1     143.661 165.054 191.233  0.00  0.00    +0.030 HD
ATOM     36  H   UNL     1     144.514 165.279 188.285  0.00  0.00    +0.074 HD
ATOM     37  H   UNL     1     145.906 163.842 190.618  0.00  0.00    +0.041 HD
ATOM     38  H   UNL     1     146.461 165.378 189.905  0.00  0.00    +0.041 HD
ATOM     39  H   UNL     1     148.491 162.250 187.612  0.00  0.00    +0.074 HD
ATOM     40  H   UNL     1     150.656 164.139 188.651  0.00  0.00    +0.036 HD
ATOM     41  H   UNL     1     149.960 161.212 189.192  0.00  0.00    +0.060 HD
ATOM     42  H   UNL     1     148.760 162.704 190.744  0.00  0.00    +0.033 HD
ATOM     43  H   UNL     1     150.009 161.852 191.603  0.00  0.00    +0.033 HD
ATOM     44  H   UNL     1     151.490 163.856 191.687  0.00  0.00    +0.057 HD
ATOM     45  H   UNL     1     148.745 165.075 191.016  0.00  0.00    +0.067 HD
ATOM     46  H   UNL     1     152.162 168.174 193.580  0.00  0.00    +0.105 HD
ATOM     47  H   UNL     1     149.820 172.872 193.115  0.00  0.00    +0.105 HD
ATOM     48  H   UNL     1     145.134 174.322 191.204  0.00  0.00    +0.105 HD
ATOM     49  H   UNL     1     144.726 171.828 188.273  0.00  0.00    +0.067 HD
ATOM     50  H   UNL     1     143.681 170.555 190.853  0.00  0.00    +0.035 HD
ATOM     51  H   UNL     1     145.438 169.596 188.567  0.00  0.00    +0.060 HD
ATOM     52  H   UNL     1     145.157 167.405 188.714  0.00  0.00    +0.029 HD
ATOM     53  H   UNL     1     143.484 167.862 188.737  0.00  0.00    +0.029 HD
ENDROOT
BRANCH   1  54
ATOM     54  C   UNL     1     143.379 167.683 191.681  0.00  0.00    -0.062 C 
ATOM     55  H   UNL     1     142.384 167.233 191.703  0.00  0.00    +0.023 HD
ATOM     56  H   UNL     1     143.822 167.595 192.676  0.00  0.00    +0.023 HD
ATOM     57  H   UNL     1     143.235 168.750 191.473  0.00  0.00    +0.023 HD
ENDBRANCH   1  54
BRANCH  30  58
ATOM     58  C   UNL     1     142.532 170.236 189.077  0.00  0.00    -0.057 C 
ATOM     59  H   UNL     1     142.377 169.171 188.887  0.00  0.00    +0.023 HD
ATOM     60  H   UNL     1     141.687 170.551 189.697  0.00  0.00    +0.023 HD
ATOM     61  H   UNL     1     142.472 170.773 188.124  0.00  0.00    +0.023 HD
ENDBRANCH  30  58
BRANCH   9  62
ATOM     62  C   UNL     1     151.283 162.740 187.165  0.00  0.00    -0.057 C 
ATOM     63  H   UNL     1     150.734 162.546 186.238  0.00  0.00    +0.023 HD
ATOM     64  H   UNL     1     151.845 161.837 187.424  0.00  0.00    +0.023 HD
ATOM     65  H   UNL     1     152.037 163.506 186.966  0.00  0.00    +0.023 HD
ENDBRANCH   9  62
BRANCH   8  66
ATOM     66  C   UNL     1     148.702 164.034 186.424  0.00  0.00    +0.011 C 
ATOM     67  H   UNL     1     147.961 163.506 185.811  0.00  0.00    +0.033 HD
ATOM     68  H   UNL     1     149.651 163.961 185.881  0.00  0.00    +0.033 HD
BRANCH  66  69
ATOM     69  C   UNL     1     148.260 165.511 186.540  0.00  0.00    +0.064 C 
ATOM     70  H   UNL     1     148.147 165.767 187.599  0.00  0.00    +0.060 HD
BRANCH  69  71
ATOM     71  C   UNL     1     149.341 166.451 185.925  0.00  0.00    -0.017 C 
ATOM     72  H   UNL     1     149.479 166.141 184.880  0.00  0.00    +0.032 HD
BRANCH  71  73
ATOM     73  C   UNL     1     148.911 167.922 185.929  0.00  0.00    -0.060 C 
ATOM     74  H   UNL     1     149.694 168.555 186.353  0.00  0.00    +0.023 HD
ATOM     75  H   UNL     1     147.998 168.072 186.515  0.00  0.00    +0.023 HD
ATOM     76  H   UNL     1     148.726 168.288 184.914  0.00  0.00    +0.023 HD
ENDBRANCH  71  73
BRANCH  71  77
ATOM     77  C   UNL     1     150.703 166.275 186.634  0.00  0.00    -0.041 C 
ATOM     78  H   UNL     1     150.969 165.213 186.686  0.00  0.00    +0.027 HD
ATOM     79  H   UNL     1     151.472 166.763 186.022  0.00  0.00    +0.027 HD
BRANCH  77  80
ATOM     80  C   UNL     1     150.752 166.930 188.019  0.00  0.00    +0.007 C 
ATOM     81  H   UNL     1     150.125 166.392 188.736  0.00  0.00    +0.034 HD
ATOM     82  H   UNL     1     150.347 167.947 187.958  0.00  0.00    +0.034 HD
BRANCH  80  83
ATOM     83  C   UNL     1     152.161 167.082 188.568  0.00  0.00    +0.139 C 
ATOM     84  O   UNL     1     152.453 168.028 189.301  0.00  0.00    -0.297 OA
BRANCH  83  85
ATOM     85  C   UNL     1     153.145 165.944 188.292  0.00  0.00    +0.041 C 
ATOM     86  H   UNL     1     152.707 165.322 187.502  0.00  0.00    +0.040 HD
BRANCH  85  87
ATOM     87  C   UNL     1     153.250 165.135 189.584  0.00  0.00    -0.053 C 
ATOM     88  H   UNL     1     153.668 164.140 189.409  0.00  0.00    +0.024 HD
ATOM     89  H   UNL     1     153.879 165.645 190.320  0.00  0.00    +0.024 HD
ATOM     90  H   UNL     1     152.265 164.990 190.041  0.00  0.00    +0.024 HD
ENDBRANCH  85  87
BRANCH  85  91
ATOM     91  C   UNL     1     154.493 166.513 187.787  0.00  0.00    +0.074 C 
ATOM     92  H   UNL     1     155.087 166.859 188.643  0.00  0.00    +0.061 HD
BRANCH  91  93
ATOM     93  C   UNL     1     155.363 165.485 186.999  0.00  0.00    +0.003 C 
ATOM     94  H   UNL     1     155.796 166.000 186.132  0.00  0.00    +0.037 HD
BRANCH  93  95
ATOM     95  C   UNL     1     154.506 164.340 186.444  0.00  0.00    -0.057 C 
ATOM     96  H   UNL     1     153.659 164.736 185.873  0.00  0.00    +0.024 HD
ATOM     97  H   UNL     1     154.110 163.699 187.237  0.00  0.00    +0.024 HD
ATOM     98  H   UNL     1     155.094 163.706 185.769  0.00  0.00    +0.024 HD
ENDBRANCH  93  95
BRANCH  93  99
ATOM     99  C   UNL     1     156.476 164.886 187.843  0.00  0.00    -0.065 C 
ATOM    100  C   UNL     1     156.435 163.644 188.347  0.00  0.00    -0.005 C 
ATOM    101  H   UNL     1     157.318 165.552 188.016  0.00  0.00    +0.059 HD
ATOM    102  H   UNL     1     155.563 163.025 188.137  0.00  0.00    +0.078 HD
BRANCH 100 103
ATOM    103  N   UNL     1     157.398 163.022 189.125  0.00  0.00    -0.284 N 
ATOM    104  C   UNL     1     158.763 163.004 188.855  0.00  0.00    +0.206 C 
ATOM    105  O   UNL     1     159.623 162.442 189.527  0.00  0.00    -0.279 OA
ATOM    106  H   UNL     1     159.047 163.555 187.948  0.00  0.00    +0.126 HD
BRANCH 103 107
ATOM    107  C   UNL     1     156.939 162.325 190.324  0.00  0.00    +0.007 C 
ATOM    108  H   UNL     1     157.482 161.376 190.405  0.00  0.00    +0.043 HD
ATOM    109  H   UNL     1     157.117 162.906 191.231  0.00  0.00    +0.043 HD
ATOM    110  H   UNL     1     155.865 162.127 190.239  0.00  0.00    +0.043 HD
ENDBRANCH 103 107
ENDBRANCH 100 103
ENDBRANCH  93  99
ENDBRANCH  91  93
BRANCH  91 111
ATOM    111  O   UNL     1     154.195 167.616 186.906  0.00  0.00    -0.379 OA
BRANCH 111 112
ATOM    112  C   UNL     1     155.099 167.720 185.811  0.00  0.00    +0.037 C 
ATOM    113  H   UNL     1     156.118 167.643 186.202  0.00  0.00    +0.052 HD
ATOM    114  H   UNL     1     154.941 166.907 185.097  0.00  0.00    +0.052 HD
ATOM    115  H   UNL     1     154.991 168.688 185.311  0.00  0.00    +0.052 HD
ENDBRANCH 111 112
ENDBRANCH  91 111
ENDBRANCH  85  91
ENDBRANCH  83  85
ENDBRANCH  80  83
ENDBRANCH  77  80
ENDBRANCH  71  77
ENDBRANCH  69  71
BRANCH  69 116
ATOM    116  O   UNL     1     147.017 165.666 185.847  0.00  0.00    -0.379 OA
BRANCH 116 117
ATOM    117  C   UNL     1     146.795 164.662 184.861  0.00  0.00    +0.037 C 
ATOM    118  H   UNL     1     145.767 164.754 184.497  0.00  0.00    +0.052 HD
ATOM    119  H   UNL     1     146.928 163.661 185.285  0.00  0.00    +0.052 HD
ATOM    120  H   UNL     1     147.480 164.804 184.023  0.00  0.00    +0.052 HD
ENDBRANCH 116 117
ENDBRANCH  69 116
ENDBRANCH  66  69
ENDBRANCH   8  66
BRANCH  31 121
ATOM    121  O   UNL     1     145.879 169.308 190.548  0.00  0.00    -0.391 OA
ATOM    122  H   UNL     1     146.510 170.046 190.392  0.00  0.00    +0.210 HD
ENDBRANCH  31 121
BRANCH  29 123
ATOM    123  O   UNL     1     143.350 172.871 189.441  0.00  0.00    -0.373 OA
BRANCH 123 124
ATOM    124  C   UNL     1     143.236 173.699 188.292  0.00  0.00    +0.037 C 
ATOM    125  H   UNL     1     143.459 174.727 188.590  0.00  0.00    +0.052 HD
ATOM    126  H   UNL     1     143.946 173.396 187.519  0.00  0.00    +0.052 HD
ATOM    127  H   UNL     1     142.216 173.666 187.904  0.00  0.00    +0.052 HD
ENDBRANCH 123 124
ENDBRANCH  29 123
BRANCH  10 128
ATOM    128  O   UNL     1     151.856 161.870 189.698  0.00  0.00    -0.379 OA
BRANCH 128 129
ATOM    129  C   UNL     1     152.105 160.678 190.432  0.00  0.00    +0.037 C 
ATOM    130  H   UNL     1     151.892 159.793 189.830  0.00  0.00    +0.052 HD
ATOM    131  H   UNL     1     151.440 160.671 191.300  0.00  0.00    +0.052 HD
ATOM    132  H   UNL     1     153.139 160.654 190.788  0.00  0.00    +0.052 HD
ENDBRANCH 128 129
ENDBRANCH  10 128
BRANCH   3 133
ATOM    133  O   UNL     1     143.766 163.527 189.132  0.00  0.00    -0.447 OA
BRANCH 133 134
ATOM    134  C   UNL     1     142.809 163.489 188.177  0.00  0.00    +0.398 C 
ATOM    135  O   UNL     1     141.664 163.094 188.309  0.00  0.00    -0.227 OA
ATOM    136  N   UNL     1     143.310 163.953 187.011  0.00  0.00    -0.295 N 
ATOM    137  H   UNL     1     144.252 164.309 186.982  0.00  0.00    +0.148 HD
ATOM    138  H   UNL     1     142.706 164.011 186.206  0.00  0.00    +0.148 HD
ENDBRANCH 133 134
ENDBRANCH   3 133
TORSDOF 29
ENDMDL
MODEL 4
REMARK VINA RESULT:      -4.8     14.928     18.339
REMARK  Name = Kabiramide C_conf2
REMARK  29 active torsions:
REMARK  status: ('A' for Active; 'I' for Inactive)
REMARK    1  A    between atoms: C_1  and  C_2
REMARK    2  A    between atoms: C_4  and  O_64
REMARK    3  A    between atoms: C_9  and  C_41
REMARK    4  A    between atoms: C_10  and  C_40
REMARK    5  A    between atoms: C_11  and  O_38
REMARK    6  A    between atoms: C_30  and  O_36
REMARK    7  A    between atoms: C_31  and  C_35
REMARK    8  A    between atoms: C_32  and  O_34
REMARK    9  A    between atoms: O_36  and  C_37
REMARK   10  A    between atoms: O_38  and  C_39
REMARK   11  A    between atoms: C_41  and  C_42
REMARK   12  A    between atoms: C_42  and  C_43
REMARK   13  A    between atoms: C_42  and  O_62
REMARK   14  A    between atoms: C_43  and  C_44
REMARK   15  A    between atoms: C_43  and  C_45
REMARK   16  A    between atoms: C_45  and  C_46
REMARK   17  A    between atoms: C_46  and  C_47
REMARK   18  A    between atoms: C_47  and  C_49
REMARK   19  A    between atoms: C_49  and  C_50
REMARK   20  A    between atoms: C_49  and  C_51
REMARK   21  A    between atoms: C_51  and  C_52
REMARK   22  A    between atoms: C_51  and  O_60
REMARK   23  A    between atoms: C_52  and  C_53
REMARK   24  A    between atoms: C_52  and  C_54
REMARK   25  A    between atoms: C_55  and  N_56
REMARK   26  A    between atoms: N_56  and  C_57
REMARK   27  A    between atoms: O_60  and  C_61
REMARK   28  A    between atoms: O_62  and  C_63
REMARK   29  A    between atoms: O_64  and  C_65
REMARK                            x       y       z     vdW  Elec       q    Type
REMARK                         _______ _______ _______ _____ _____    ______ ____
ROOT
ATOM      1  C   UNL     1     131.640 157.337 195.938  0.00  0.00    -0.038 C 
ATOM      2  C   UNL     1     130.878 157.429 197.278  0.00  0.00    -0.012 C 
ATOM      3  C   UNL     1     131.273 158.563 198.249  0.00  0.00    +0.115 C 
ATOM      4  C   UNL     1     131.016 159.955 197.660  0.00  0.00    +0.082 C 
ATOM      5  C   UNL     1     131.468 161.057 198.595  0.00  0.00    +0.311 C 
ATOM      6  O   UNL     1     131.483 160.988 199.816  0.00  0.00    -0.251 OA
ATOM      7  O   UNL     1     131.795 162.181 197.882  0.00  0.00    -0.461 OA
ATOM      8  C   UNL     1     132.312 163.290 198.652  0.00  0.00    +0.110 C 
ATOM      9  C   UNL     1     132.133 164.627 197.857  0.00  0.00    +0.020 C 
ATOM     10  C   UNL     1     130.627 165.041 197.703  0.00  0.00    +0.068 C 
ATOM     11  C   UNL     1     129.794 164.171 196.731  0.00  0.00    -0.008 C 
ATOM     12  C   UNL     1     130.322 164.161 195.317  0.00  0.00    -0.077 C 
ATOM     13  C   UNL     1     130.889 163.073 194.785  0.00  0.00    -0.003 C 
ATOM     14  C   UNL     1     131.471 163.021 193.494  0.00  0.00    +0.220 A 
ATOM     15  N   UNL     1     132.401 162.140 193.173  0.00  0.00    -0.205 NA
ATOM     16  C   UNL     1     132.616 162.299 191.831  0.00  0.00    +0.164 A 
ATOM     17  C   UNL     1     131.852 163.331 191.362  0.00  0.00    +0.125 A 
ATOM     18  O   UNL     1     131.131 163.824 192.416  0.00  0.00    -0.443 OA
ATOM     19  C   UNL     1     133.538 161.331 191.036  0.00  0.00    +0.250 A 
ATOM     20  N   UNL     1     134.215 160.395 191.667  0.00  0.00    -0.203 NA
ATOM     21  C   UNL     1     134.676 159.577 190.674  0.00  0.00    +0.164 A 
ATOM     22  C   UNL     1     134.383 160.118 189.452  0.00  0.00    +0.125 A 
ATOM     23  O   UNL     1     133.673 161.274 189.667  0.00  0.00    -0.442 OA
ATOM     24  C   UNL     1     135.284 158.189 191.009  0.00  0.00    +0.249 A 
ATOM     25  N   UNL     1     135.451 157.825 192.269  0.00  0.00    -0.210 NA
ATOM     26  C   UNL     1     135.648 156.469 192.220  0.00  0.00    +0.109 A 
ATOM     27  C   UNL     1     135.773 156.094 190.899  0.00  0.00    +0.118 A 
ATOM     28  O   UNL     1     135.565 157.192 190.113  0.00  0.00    -0.442 OA
ATOM     29  C   UNL     1     135.704 155.652 193.482  0.00  0.00    +0.108 C 
ATOM     30  C   UNL     1     134.371 155.679 194.324  0.00  0.00    +0.014 C 
ATOM     31  C   UNL     1     134.061 157.104 194.892  0.00  0.00    +0.061 C 
ATOM     32  C   UNL     1     133.170 157.233 196.151  0.00  0.00    -0.024 C 
ATOM     33  H   UNL     1     131.427 158.252 195.371  0.00  0.00    +0.030 HD
ATOM     34  H   UNL     1     130.978 156.466 197.798  0.00  0.00    +0.030 HD
ATOM     35  H   UNL     1     129.803 157.519 197.074  0.00  0.00    +0.030 HD
ATOM     36  H   UNL     1     132.328 158.486 198.544  0.00  0.00    +0.074 HD
ATOM     37  H   UNL     1     129.947 160.108 197.475  0.00  0.00    +0.041 HD
ATOM     38  H   UNL     1     131.559 160.068 196.719  0.00  0.00    +0.041 HD
ATOM     39  H   UNL     1     131.713 163.387 199.569  0.00  0.00    +0.074 HD
ATOM     40  H   UNL     1     132.551 164.507 196.853  0.00  0.00    +0.036 HD
ATOM     41  H   UNL     1     130.164 164.991 198.698  0.00  0.00    +0.060 HD
ATOM     42  H   UNL     1     129.701 163.153 197.122  0.00  0.00    +0.033 HD
ATOM     43  H   UNL     1     128.767 164.551 196.679  0.00  0.00    +0.033 HD
ATOM     44  H   UNL     1     130.259 165.092 194.756  0.00  0.00    +0.057 HD
ATOM     45  H   UNL     1     130.987 162.166 195.372  0.00  0.00    +0.067 HD
ATOM     46  H   UNL     1     131.691 163.798 190.403  0.00  0.00    +0.105 HD
ATOM     47  H   UNL     1     134.536 159.829 188.422  0.00  0.00    +0.105 HD
ATOM     48  H   UNL     1     135.956 155.158 190.393  0.00  0.00    +0.105 HD
ATOM     49  H   UNL     1     136.504 156.062 194.115  0.00  0.00    +0.067 HD
ATOM     50  H   UNL     1     133.558 155.373 193.653  0.00  0.00    +0.035 HD
ATOM     51  H   UNL     1     135.019 157.576 195.153  0.00  0.00    +0.060 HD
ATOM     52  H   UNL     1     133.473 158.181 196.617  0.00  0.00    +0.029 HD
ATOM     53  H   UNL     1     133.411 156.472 196.900  0.00  0.00    +0.029 HD
ENDROOT
BRANCH   1  54
ATOM     54  C   UNL     1     131.067 156.168 195.133  0.00  0.00    -0.062 C 
ATOM     55  H   UNL     1     131.856 155.515 194.753  0.00  0.00    +0.023 HD
ATOM     56  H   UNL     1     130.380 155.568 195.734  0.00  0.00    +0.023 HD
ATOM     57  H   UNL     1     130.514 156.533 194.260  0.00  0.00    +0.023 HD
ENDBRANCH   1  54
BRANCH  30  58
ATOM     58  C   UNL     1     134.463 154.622 195.440  0.00  0.00    -0.057 C 
ATOM     59  H   UNL     1     134.423 153.607 195.038  0.00  0.00    +0.023 HD
ATOM     60  H   UNL     1     135.412 154.687 195.982  0.00  0.00    +0.023 HD
ATOM     61  H   UNL     1     133.650 154.744 196.164  0.00  0.00    +0.023 HD
ENDBRANCH  30  58
BRANCH   9  62
ATOM     62  C   UNL     1     132.911 165.779 198.529  0.00  0.00    -0.057 C 
ATOM     63  H   UNL     1     133.949 165.489 198.721  0.00  0.00    +0.023 HD
ATOM     64  H   UNL     1     132.458 166.072 199.481  0.00  0.00    +0.023 HD
ATOM     65  H   UNL     1     132.913 166.684 197.916  0.00  0.00    +0.023 HD
ENDBRANCH   9  62
BRANCH   8  66
ATOM     66  C   UNL     1     133.771 162.978 199.082  0.00  0.00    +0.011 C 
ATOM     67  H   UNL     1     134.428 163.744 198.651  0.00  0.00    +0.033 HD
ATOM     68  H   UNL     1     134.071 162.030 198.622  0.00  0.00    +0.033 HD
BRANCH  66  69
ATOM     69  C   UNL     1     134.018 162.938 200.608  0.00  0.00    +0.064 C 
ATOM     70  H   UNL     1     133.067 162.750 201.117  0.00  0.00    +0.060 HD
BRANCH  69  71
ATOM     71  C   UNL     1     135.001 161.784 200.968  0.00  0.00    -0.017 C 
ATOM     72  H   UNL     1     135.987 162.241 201.131  0.00  0.00    +0.032 HD
BRANCH  71  73
ATOM     73  C   UNL     1     134.601 161.052 202.253  0.00  0.00    -0.060 C 
ATOM     74  H   UNL     1     134.420 159.992 202.057  0.00  0.00    +0.023 HD
ATOM     75  H   UNL     1     133.691 161.476 202.690  0.00  0.00    +0.023 HD
ATOM     76  H   UNL     1     135.394 161.101 203.006  0.00  0.00    +0.023 HD
ENDBRANCH  71  73
BRANCH  71  77
ATOM     77  C   UNL     1     135.151 160.790 199.794  0.00  0.00    -0.041 C 
ATOM     78  H   UNL     1     134.726 161.219 198.878  0.00  0.00    +0.027 HD
ATOM     79  H   UNL     1     136.222 160.642 199.605  0.00  0.00    +0.027 HD
BRANCH  77  80
ATOM     80  C   UNL     1     134.553 159.410 200.090  0.00  0.00    +0.007 C 
ATOM     81  H   UNL     1     133.746 159.167 199.393  0.00  0.00    +0.034 HD
ATOM     82  H   UNL     1     134.105 159.413 201.091  0.00  0.00    +0.034 HD
BRANCH  80  83
ATOM     83  C   UNL     1     135.584 158.293 200.106  0.00  0.00    +0.139 C 
ATOM     84  O   UNL     1     136.787 158.544 200.016  0.00  0.00    -0.297 OA
BRANCH  83  85
ATOM     85  C   UNL     1     135.075 156.878 200.383  0.00  0.00    +0.041 C 
ATOM     86  H   UNL     1     134.017 156.963 200.661  0.00  0.00    +0.040 HD
BRANCH  85  87
ATOM     87  C   UNL     1     135.877 156.350 201.573  0.00  0.00    -0.053 C 
ATOM     88  H   UNL     1     136.921 156.164 201.311  0.00  0.00    +0.024 HD
ATOM     89  H   UNL     1     135.854 157.056 202.409  0.00  0.00    +0.024 HD
ATOM     90  H   UNL     1     135.467 155.402 201.936  0.00  0.00    +0.024 HD
ENDBRANCH  85  87
BRANCH  85  91
ATOM     91  C   UNL     1     135.187 156.010 199.108  0.00  0.00    +0.074 C 
ATOM     92  H   UNL     1     135.092 156.650 198.220  0.00  0.00    +0.061 HD
BRANCH  91  93
ATOM     93  C   UNL     1     136.534 155.233 198.981  0.00  0.00    +0.003 C 
ATOM     94  H   UNL     1     137.176 155.526 199.820  0.00  0.00    +0.037 HD
BRANCH  93  95
ATOM     95  C   UNL     1     137.283 155.623 197.701  0.00  0.00    -0.057 C 
ATOM     96  H   UNL     1     137.181 156.696 197.508  0.00  0.00    +0.024 HD
ATOM     97  H   UNL     1     136.912 155.084 196.825  0.00  0.00    +0.024 HD
ATOM     98  H   UNL     1     138.354 155.403 197.794  0.00  0.00    +0.024 HD
ENDBRANCH  93  95
BRANCH  93  99
ATOM     99  C   UNL     1     136.347 153.725 198.987  0.00  0.00    -0.065 C 
ATOM    100  C   UNL     1     136.775 152.930 199.979  0.00  0.00    -0.005 C 
ATOM    101  H   UNL     1     135.837 153.330 198.111  0.00  0.00    +0.059 HD
ATOM    102  H   UNL     1     137.278 153.386 200.831  0.00  0.00    +0.078 HD
BRANCH 100 103
ATOM    103  N   UNL     1     136.650 151.553 200.064  0.00  0.00    -0.284 N 
ATOM    104  C   UNL     1     136.643 150.676 198.984  0.00  0.00    +0.206 C 
ATOM    105  O   UNL     1     136.515 149.457 199.046  0.00  0.00    -0.279 OA
ATOM    106  H   UNL     1     136.762 151.167 198.008  0.00  0.00    +0.126 HD
BRANCH 103 107
ATOM    107  C   UNL     1     136.512 150.977 201.400  0.00  0.00    +0.007 C 
ATOM    108  H   UNL     1     135.447 150.821 201.604  0.00  0.00    +0.043 HD
ATOM    109  H   UNL     1     137.028 150.019 201.491  0.00  0.00    +0.043 HD
ATOM    110  H   UNL     1     136.929 151.670 202.138  0.00  0.00    +0.043 HD
ENDBRANCH 103 107
ENDBRANCH 100 103
ENDBRANCH  93  99
ENDBRANCH  91  93
BRANCH  91 111
ATOM    111  O   UNL     1     134.115 155.044 199.145  0.00  0.00    -0.379 OA
BRANCH 111 112
ATOM    112  C   UNL     1     132.919 155.555 199.724  0.00  0.00    +0.037 C 
ATOM    113  H   UNL     1     133.122 155.793 200.772  0.00  0.00    +0.052 HD
ATOM    114  H   UNL     1     132.601 156.470 199.217  0.00  0.00    +0.052 HD
ATOM    115  H   UNL     1     132.121 154.806 199.685  0.00  0.00    +0.052 HD
ENDBRANCH 111 112
ENDBRANCH  91 111
ENDBRANCH  85  91
ENDBRANCH  83  85
ENDBRANCH  80  83
ENDBRANCH  77  80
ENDBRANCH  71  77
ENDBRANCH  69  71
BRANCH  69 116
ATOM    116  O   UNL     1     134.566 164.199 201.008  0.00  0.00    -0.379 OA
BRANCH 116 117
ATOM    117  C   UNL     1     133.898 164.772 202.127  0.00  0.00    +0.037 C 
ATOM    118  H   UNL     1     134.613 165.388 202.681  0.00  0.00    +0.052 HD
ATOM    119  H   UNL     1     133.515 163.994 202.795  0.00  0.00    +0.052 HD
ATOM    120  H   UNL     1     133.076 165.405 201.786  0.00  0.00    +0.052 HD
ENDBRANCH 116 117
ENDBRANCH  69 116
ENDBRANCH  66  69
ENDBRANCH   8  66
BRANCH  31 121
ATOM    121  O   UNL     1     133.437 157.905 193.891  0.00  0.00    -0.391 OA
ATOM    122  H   UNL     1     132.605 157.449 193.633  0.00  0.00    +0.210 HD
ENDBRANCH  31 121
BRANCH  29 123
ATOM    123  O   UNL     1     136.012 154.280 193.153  0.00  0.00    -0.373 OA
BRANCH 123 124
ATOM    124  C   UNL     1     137.377 153.958 193.379  0.00  0.00    +0.037 C 
ATOM    125  H   UNL     1     137.571 152.972 192.949  0.00  0.00    +0.052 HD
ATOM    126  H   UNL     1     138.036 154.685 192.899  0.00  0.00    +0.052 HD
ATOM    127  H   UNL     1     137.581 153.912 194.451  0.00  0.00    +0.052 HD
ENDBRANCH 123 124
ENDBRANCH  29 123
BRANCH  10 128
ATOM    128  O   UNL     1     130.574 166.409 197.246  0.00  0.00    -0.379 OA
BRANCH 128 129
ATOM    129  C   UNL     1     129.347 167.066 197.536  0.00  0.00    +0.037 C 
ATOM    130  H   UNL     1     128.774 167.251 196.626  0.00  0.00    +0.052 HD
ATOM    131  H   UNL     1     129.581 168.030 197.997  0.00  0.00    +0.052 HD
ATOM    132  H   UNL     1     128.755 166.479 198.244  0.00  0.00    +0.052 HD
ENDBRANCH 128 129
ENDBRANCH  10 128
BRANCH   3 133
ATOM    133  O   UNL     1     130.440 158.425 199.426  0.00  0.00    -0.447 OA
BRANCH 133 134
ATOM    134  C   UNL     1     129.137 158.143 199.198  0.00  0.00    +0.398 C 
ATOM    135  O   UNL     1     128.322 158.864 198.649  0.00  0.00    -0.227 OA
ATOM    136  N   UNL     1     128.842 156.920 199.687  0.00  0.00    -0.295 N 
ATOM    137  H   UNL     1     129.573 156.355 200.087  0.00  0.00    +0.148 HD
ATOM    138  H   UNL     1     127.908 156.556 199.569  0.00  0.00    +0.148 HD
ENDBRANCH 133 134
ENDBRANCH   3 133
TORSDOF 29
ENDMDL
MODEL 5
REMARK VINA RESULT:      -4.8      2.472      9.397
REMARK  Name = Kabiramide C_conf2
REMARK  29 active torsions:
REMARK  status: ('A' for Active; 'I' for Inactive)
REMARK    1  A    between atoms: C_1  and  C_2
REMARK    2  A    between atoms: C_4  and  O_64
REMARK    3  A    between atoms: C_9  and  C_41
REMARK    4  A    between atoms: C_10  and  C_40
REMARK    5  A    between atoms: C_11  and  O_38
REMARK    6  A    between atoms: C_30  and  O_36
REMARK    7  A    between atoms: C_31  and  C_35
REMARK    8  A    between atoms: C_32  and  O_34
REMARK    9  A    between atoms: O_36  and  C_37
REMARK   10  A    between atoms: O_38  and  C_39
REMARK   11  A    between atoms: C_41  and  C_42
REMARK   12  A    between atoms: C_42  and  C_43
REMARK   13  A    between atoms: C_42  and  O_62
REMARK   14  A    between atoms: C_43  and  C_44
REMARK   15  A    between atoms: C_43  and  C_45
REMARK   16  A    between atoms: C_45  and  C_46
REMARK   17  A    between atoms: C_46  and  C_47
REMARK   18  A    between atoms: C_47  and  C_49
REMARK   19  A    between atoms: C_49  and  C_50
REMARK   20  A    between atoms: C_49  and  C_51
REMARK   21  A    between atoms: C_51  and  C_52
REMARK   22  A    between atoms: C_51  and  O_60
REMARK   23  A    between atoms: C_52  and  C_53
REMARK   24  A    between atoms: C_52  and  C_54
REMARK   25  A    between atoms: C_55  and  N_56
REMARK   26  A    between atoms: N_56  and  C_57
REMARK   27  A    between atoms: O_60  and  C_61
REMARK   28  A    between atoms: O_62  and  C_63
REMARK   29  A    between atoms: O_64  and  C_65
REMARK                            x       y       z     vdW  Elec       q    Type
REMARK                         _______ _______ _______ _____ _____    ______ ____
ROOT
ATOM      1  C   UNL     1     145.108 166.761 190.963  0.00  0.00    -0.038 C 
ATOM      2  C   UNL     1     145.167 165.262 190.601  0.00  0.00    -0.012 C 
ATOM      3  C   UNL     1     146.073 164.847 189.422  0.00  0.00    +0.115 C 
ATOM      4  C   UNL     1     147.553 165.153 189.682  0.00  0.00    +0.082 C 
ATOM      5  C   UNL     1     148.422 164.803 188.492  0.00  0.00    +0.311 C 
ATOM      6  O   UNL     1     148.195 163.909 187.689  0.00  0.00    -0.251 OA
ATOM      7  O   UNL     1     149.546 165.586 188.478  0.00  0.00    -0.461 OA
ATOM      8  C   UNL     1     150.430 165.400 187.350  0.00  0.00    +0.110 C 
ATOM      9  C   UNL     1     151.868 165.910 187.702  0.00  0.00    +0.020 C 
ATOM     10  C   UNL     1     152.573 165.024 188.789  0.00  0.00    +0.068 C 
ATOM     11  C   UNL     1     152.007 165.153 190.223  0.00  0.00    -0.008 C 
ATOM     12  C   UNL     1     152.080 166.554 190.783  0.00  0.00    -0.077 C 
ATOM     13  C   UNL     1     150.982 167.293 190.974  0.00  0.00    -0.003 C 
ATOM     14  C   UNL     1     150.987 168.637 191.423  0.00  0.00    +0.220 A 
ATOM     15  N   UNL     1     149.997 169.471 191.168  0.00  0.00    -0.205 NA
ATOM     16  C   UNL     1     150.283 170.613 191.867  0.00  0.00    +0.164 A 
ATOM     17  C   UNL     1     151.492 170.478 192.491  0.00  0.00    +0.125 A 
ATOM     18  O   UNL     1     151.972 169.231 192.200  0.00  0.00    -0.443 OA
ATOM     19  C   UNL     1     149.270 171.790 191.950  0.00  0.00    +0.250 A 
ATOM     20  N   UNL     1     148.151 171.749 191.259  0.00  0.00    -0.203 NA
ATOM     21  C   UNL     1     147.395 172.767 191.770  0.00  0.00    +0.164 A 
ATOM     22  C   UNL     1     148.134 173.490 192.667  0.00  0.00    +0.125 A 
ATOM     23  O   UNL     1     149.365 172.890 192.773  0.00  0.00    -0.442 OA
ATOM     24  C   UNL     1     145.886 172.883 191.426  0.00  0.00    +0.249 A 
ATOM     25  N   UNL     1     145.339 172.054 190.554  0.00  0.00    -0.210 NA
ATOM     26  C   UNL     1     143.987 172.178 190.751  0.00  0.00    +0.109 A 
ATOM     27  C   UNL     1     143.768 173.226 191.620  0.00  0.00    +0.118 A 
ATOM     28  O   UNL     1     144.978 173.703 192.041  0.00  0.00    -0.442 OA
ATOM     29  C   UNL     1     143.020 171.258 190.059  0.00  0.00    +0.108 C 
ATOM     30  C   UNL     1     143.188 169.739 190.450  0.00  0.00    +0.014 C 
ATOM     31  C   UNL     1     144.561 169.157 189.976  0.00  0.00    +0.061 C 
ATOM     32  C   UNL     1     144.692 167.631 189.751  0.00  0.00    -0.024 C 
ATOM     33  H   UNL     1     146.110 167.067 191.285  0.00  0.00    +0.030 HD
ATOM     34  H   UNL     1     144.144 164.914 190.402  0.00  0.00    +0.030 HD
ATOM     35  H   UNL     1     145.483 164.692 191.485  0.00  0.00    +0.030 HD
ATOM     36  H   UNL     1     145.763 165.336 188.489  0.00  0.00    +0.074 HD
ATOM     37  H   UNL     1     147.926 164.575 190.535  0.00  0.00    +0.041 HD
ATOM     38  H   UNL     1     147.682 166.219 189.891  0.00  0.00    +0.041 HD
ATOM     39  H   UNL     1     150.520 164.323 187.149  0.00  0.00    +0.074 HD
ATOM     40  H   UNL     1     151.801 166.930 188.095  0.00  0.00    +0.036 HD
ATOM     41  H   UNL     1     152.484 163.975 188.473  0.00  0.00    +0.060 HD
ATOM     42  H   UNL     1     150.983 164.769 190.260  0.00  0.00    +0.033 HD
ATOM     43  H   UNL     1     152.576 164.512 190.907  0.00  0.00    +0.033 HD
ATOM     44  H   UNL     1     153.070 166.955 190.990  0.00  0.00    +0.057 HD
ATOM     45  H   UNL     1     150.005 166.896 190.719  0.00  0.00    +0.067 HD
ATOM     46  H   UNL     1     152.100 171.094 193.136  0.00  0.00    +0.105 HD
ATOM     47  H   UNL     1     147.956 174.344 193.303  0.00  0.00    +0.105 HD
ATOM     48  H   UNL     1     142.888 173.693 192.034  0.00  0.00    +0.105 HD
ATOM     49  H   UNL     1     143.188 171.342 188.976  0.00  0.00    +0.067 HD
ATOM     50  H   UNL     1     143.128 169.678 191.544  0.00  0.00    +0.035 HD
ATOM     51  H   UNL     1     144.807 169.624 189.012  0.00  0.00    +0.060 HD
ATOM     52  H   UNL     1     145.499 167.521 189.013  0.00  0.00    +0.029 HD
ATOM     53  H   UNL     1     143.809 167.215 189.254  0.00  0.00    +0.029 HD
ENDROOT
BRANCH   1  54
ATOM     54  C   UNL     1     144.179 166.934 192.169  0.00  0.00    -0.062 C 
ATOM     55  H   UNL     1     144.151 166.035 192.788  0.00  0.00    +0.023 HD
ATOM     56  H   UNL     1     144.487 167.777 192.793  0.00  0.00    +0.023 HD
ATOM     57  H   UNL     1     143.150 167.121 191.840  0.00  0.00    +0.023 HD
ENDBRANCH   1  54
BRANCH  30  58
ATOM     58  C   UNL     1     141.998 168.943 189.884  0.00  0.00    -0.057 C 
ATOM     59  H   UNL     1     141.166 169.598 189.614  0.00  0.00    +0.023 HD
ATOM     60  H   UNL     1     142.266 168.414 188.963  0.00  0.00    +0.023 HD
ATOM     61  H   UNL     1     141.640 168.203 190.608  0.00  0.00    +0.023 HD
ENDBRANCH  30  58
BRANCH   9  62
ATOM     62  C   UNL     1     152.758 165.975 186.442  0.00  0.00    -0.057 C 
ATOM     63  H   UNL     1     153.810 166.109 186.714  0.00  0.00    +0.023 HD
ATOM     64  H   UNL     1     152.468 166.799 185.784  0.00  0.00    +0.023 HD
ATOM     65  H   UNL     1     152.671 165.071 185.834  0.00  0.00    +0.023 HD
ENDBRANCH   9  62
BRANCH   8  66
ATOM     66  C   UNL     1     149.799 166.055 186.091  0.00  0.00    +0.011 C 
ATOM     67  H   UNL     1     150.512 166.783 185.685  0.00  0.00    +0.033 HD
ATOM     68  H   UNL     1     148.923 166.634 186.406  0.00  0.00    +0.033 HD
BRANCH  66  69
ATOM     69  C   UNL     1     149.416 165.077 184.956  0.00  0.00    +0.064 C 
ATOM     70  H   UNL     1     149.120 164.119 185.397  0.00  0.00    +0.060 HD
BRANCH  69  71
ATOM     71  C   UNL     1     148.208 165.633 184.144  0.00  0.00    -0.017 C 
ATOM     72  H   UNL     1     147.981 166.629 184.548  0.00  0.00    +0.032 HD
BRANCH  71  73
ATOM     73  C   UNL     1     148.525 165.789 182.653  0.00  0.00    -0.060 C 
ATOM     74  H   UNL     1     147.887 165.139 182.049  0.00  0.00    +0.023 HD
ATOM     75  H   UNL     1     149.568 165.537 182.435  0.00  0.00    +0.023 HD
ATOM     76  H   UNL     1     148.345 166.813 182.310  0.00  0.00    +0.023 HD
ENDBRANCH  71  73
BRANCH  71  77
ATOM     77  C   UNL     1     146.948 164.762 184.349  0.00  0.00    -0.041 C 
ATOM     78  H   UNL     1     146.974 163.894 183.678  0.00  0.00    +0.027 HD
ATOM     79  H   UNL     1     146.967 164.369 185.373  0.00  0.00    +0.027 HD
BRANCH  77  80
ATOM     80  C   UNL     1     145.640 165.545 184.194  0.00  0.00    +0.007 C 
ATOM     81  H   UNL     1     144.779 164.873 184.116  0.00  0.00    +0.034 HD
ATOM     82  H   UNL     1     145.666 166.120 183.261  0.00  0.00    +0.034 HD
BRANCH  80  83
ATOM     83  C   UNL     1     145.408 166.564 185.298  0.00  0.00    +0.139 C 
ATOM     84  O   UNL     1     145.652 166.288 186.473  0.00  0.00    -0.297 OA
BRANCH  83  85
ATOM     85  C   UNL     1     145.004 167.976 184.870  0.00  0.00    +0.041 C 
ATOM     86  H   UNL     1     143.917 168.053 184.993  0.00  0.00    +0.040 HD
BRANCH  85  87
ATOM     87  C   UNL     1     145.363 168.103 183.389  0.00  0.00    -0.053 C 
ATOM     88  H   UNL     1     145.582 169.136 183.110  0.00  0.00    +0.024 HD
ATOM     89  H   UNL     1     146.233 167.488 183.139  0.00  0.00    +0.024 HD
ATOM     90  H   UNL     1     144.535 167.771 182.753  0.00  0.00    +0.024 HD
ENDBRANCH  85  87
BRANCH  85  91
ATOM     91  C   UNL     1     145.685 169.026 185.780  0.00  0.00    +0.074 C 
ATOM     92  H   UNL     1     146.083 168.531 186.676  0.00  0.00    +0.061 HD
BRANCH  91  93
ATOM     93  C   UNL     1     146.867 169.786 185.102  0.00  0.00    +0.003 C 
ATOM     94  H   UNL     1     146.876 169.522 184.038  0.00  0.00    +0.037 HD
BRANCH  93  95
ATOM     95  C   UNL     1     148.218 169.337 185.674  0.00  0.00    -0.057 C 
ATOM     96  H   UNL     1     148.943 170.157 185.637  0.00  0.00    +0.024 HD
ATOM     97  H   UNL     1     148.636 168.489 185.125  0.00  0.00    +0.024 HD
ATOM     98  H   UNL     1     148.114 169.033 186.723  0.00  0.00    +0.024 HD
ENDBRANCH  93  95
BRANCH  93  99
ATOM     99  C   UNL     1     146.760 171.295 185.251  0.00  0.00    -0.065 C 
ATOM    100  C   UNL     1     146.414 172.115 184.247  0.00  0.00    -0.005 C 
ATOM    101  H   UNL     1     146.994 171.667 186.245  0.00  0.00    +0.059 HD
ATOM    102  H   UNL     1     146.190 171.680 183.273  0.00  0.00    +0.078 HD
BRANCH 100 103
ATOM    103  N   UNL     1     146.295 173.494 184.293  0.00  0.00    -0.284 N 
ATOM    104  C   UNL     1     145.936 174.235 185.415  0.00  0.00    +0.206 C 
ATOM    105  O   UNL     1     145.811 175.454 185.463  0.00  0.00    -0.279 OA
ATOM    106  H   UNL     1     145.757 173.628 186.313  0.00  0.00    +0.126 HD
BRANCH 103 107
ATOM    107  C   UNL     1     146.566 174.228 183.059  0.00  0.00    +0.007 C 
ATOM    108  H   UNL     1     145.768 174.011 182.341  0.00  0.00    +0.043 HD
ATOM    109  H   UNL     1     146.602 175.308 183.222  0.00  0.00    +0.043 HD
ATOM    110  H   UNL     1     147.528 173.904 182.649  0.00  0.00    +0.043 HD
ENDBRANCH 103 107
ENDBRANCH 100 103
ENDBRANCH  93  99
ENDBRANCH  91  93
BRANCH  91 111
ATOM    111  O   UNL     1     144.682 169.996 186.147  0.00  0.00    -0.379 OA
BRANCH 111 112
ATOM    112  C   UNL     1     143.414 169.413 186.432  0.00  0.00    +0.037 C 
ATOM    113  H   UNL     1     143.191 168.683 185.648  0.00  0.00    +0.052 HD
ATOM    114  H   UNL     1     143.432 168.893 187.393  0.00  0.00    +0.052 HD
ATOM    115  H   UNL     1     142.629 170.177 186.430  0.00  0.00    +0.052 HD
ENDBRANCH 111 112
ENDBRANCH  91 111
ENDBRANCH  85  91
ENDBRANCH  83  85
ENDBRANCH  80  83
ENDBRANCH  77  80
ENDBRANCH  71  77
ENDBRANCH  69  71
BRANCH  69 116
ATOM    116  O   UNL     1     150.553 164.911 184.102  0.00  0.00    -0.379 OA
BRANCH 116 117
ATOM    117  C   UNL     1     151.073 163.586 184.109  0.00  0.00    +0.037 C 
ATOM    118  H   UNL     1     150.419 162.959 184.724  0.00  0.00    +0.052 HD
ATOM    119  H   UNL     1     152.081 163.563 184.533  0.00  0.00    +0.052 HD
ATOM    120  H   UNL     1     151.089 163.187 183.092  0.00  0.00    +0.052 HD
ENDBRANCH 116 117
ENDBRANCH  69 116
ENDBRANCH  66  69
ENDBRANCH   8  66
BRANCH  31 121
ATOM    121  O   UNL     1     145.586 169.502 190.904  0.00  0.00    -0.391 OA
ATOM    122  H   UNL     1     145.152 169.965 191.656  0.00  0.00    +0.210 HD
ENDBRANCH  31 121
BRANCH  29 123
ATOM    123  O   UNL     1     141.668 171.664 190.366  0.00  0.00    -0.373 OA
BRANCH 123 124
ATOM    124  C   UNL     1     141.074 172.417 189.317  0.00  0.00    +0.037 C 
ATOM    125  H   UNL     1     141.077 173.470 189.611  0.00  0.00    +0.052 HD
ATOM    126  H   UNL     1     141.641 172.311 188.389  0.00  0.00    +0.052 HD
ATOM    127  H   UNL     1     140.039 172.103 189.167  0.00  0.00    +0.052 HD
ENDBRANCH 123 124
ENDBRANCH  29 123
BRANCH  10 128
ATOM    128  O   UNL     1     153.974 165.370 188.821  0.00  0.00    -0.379 OA
BRANCH 128 129
ATOM    129  C   UNL     1     154.836 164.262 189.043  0.00  0.00    +0.037 C 
ATOM    130  H   UNL     1     154.895 164.013 190.105  0.00  0.00    +0.052 HD
ATOM    131  H   UNL     1     155.836 164.538 188.699  0.00  0.00    +0.052 HD
ATOM    132  H   UNL     1     154.500 163.393 188.469  0.00  0.00    +0.052 HD
ENDBRANCH 128 129
ENDBRANCH  10 128
BRANCH   3 133
ATOM    133  O   UNL     1     145.944 163.412 189.270  0.00  0.00    -0.447 OA
BRANCH 133 134
ATOM    134  C   UNL     1     144.932 162.990 188.478  0.00  0.00    +0.398 C 
ATOM    135  O   UNL     1     143.944 162.369 188.829  0.00  0.00    -0.227 OA
ATOM    136  N   UNL     1     145.173 163.350 187.199  0.00  0.00    -0.295 N 
ATOM    137  H   UNL     1     145.986 163.904 186.983  0.00  0.00    +0.148 HD
ATOM    138  H   UNL     1     144.492 163.128 186.489  0.00  0.00    +0.148 HD
ENDBRANCH 133 134
ENDBRANCH   3 133
TORSDOF 29
ENDMDL
MODEL 6
REMARK VINA RESULT:      -4.7      2.783      9.598
REMARK  Name = Kabiramide C_conf2
REMARK  29 active torsions:
REMARK  status: ('A' for Active; 'I' for Inactive)
REMARK    1  A    between atoms: C_1  and  C_2
REMARK    2  A    between atoms: C_4  and  O_64
REMARK    3  A    between atoms: C_9  and  C_41
REMARK    4  A    between atoms: C_10  and  C_40
REMARK    5  A    between atoms: C_11  and  O_38
REMARK    6  A    between atoms: C_30  and  O_36
REMARK    7  A    between atoms: C_31  and  C_35
REMARK    8  A    between atoms: C_32  and  O_34
REMARK    9  A    between atoms: O_36  and  C_37
REMARK   10  A    between atoms: O_38  and  C_39
REMARK   11  A    between atoms: C_41  and  C_42
REMARK   12  A    between atoms: C_42  and  C_43
REMARK   13  A    between atoms: C_42  and  O_62
REMARK   14  A    between atoms: C_43  and  C_44
REMARK   15  A    between atoms: C_43  and  C_45
REMARK   16  A    between atoms: C_45  and  C_46
REMARK   17  A    between atoms: C_46  and  C_47
REMARK   18  A    between atoms: C_47  and  C_49
REMARK   19  A    between atoms: C_49  and  C_50
REMARK   20  A    between atoms: C_49  and  C_51
REMARK   21  A    between atoms: C_51  and  C_52
REMARK   22  A    between atoms: C_51  and  O_60
REMARK   23  A    between atoms: C_52  and  C_53
REMARK   24  A    between atoms: C_52  and  C_54
REMARK   25  A    between atoms: C_55  and  N_56
REMARK   26  A    between atoms: N_56  and  C_57
REMARK   27  A    between atoms: O_60  and  C_61
REMARK   28  A    between atoms: O_62  and  C_63
REMARK   29  A    between atoms: O_64  and  C_65
REMARK                            x       y       z     vdW  Elec       q    Type
REMARK                         _______ _______ _______ _____ _____    ______ ____
ROOT
ATOM      1  C   UNL     1     143.369 167.415 191.168  0.00  0.00    -0.038 C 
ATOM      2  C   UNL     1     143.200 165.948 190.719  0.00  0.00    -0.012 C 
ATOM      3  C   UNL     1     143.937 165.504 189.436  0.00  0.00    +0.115 C 
ATOM      4  C   UNL     1     145.461 165.604 189.571  0.00  0.00    +0.082 C 
ATOM      5  C   UNL     1     146.169 165.229 188.286  0.00  0.00    +0.311 C 
ATOM      6  O   UNL     1     145.757 164.427 187.459  0.00  0.00    -0.251 OA
ATOM      7  O   UNL     1     147.381 165.865 188.208  0.00  0.00    -0.461 OA
ATOM      8  C   UNL     1     148.130 165.647 186.992  0.00  0.00    +0.110 C 
ATOM      9  C   UNL     1     149.648 165.948 187.233  0.00  0.00    +0.020 C 
ATOM     10  C   UNL     1     150.323 164.908 188.196  0.00  0.00    +0.068 C 
ATOM     11  C   UNL     1     149.907 165.010 189.683  0.00  0.00    -0.008 C 
ATOM     12  C   UNL     1     150.211 166.349 190.311  0.00  0.00    -0.077 C 
ATOM     13  C   UNL     1     149.240 167.205 190.647  0.00  0.00    -0.003 C 
ATOM     14  C   UNL     1     149.461 168.504 191.168  0.00  0.00    +0.220 A 
ATOM     15  N   UNL     1     148.570 169.471 191.057  0.00  0.00    -0.205 NA
ATOM     16  C   UNL     1     149.063 170.518 191.788  0.00  0.00    +0.164 A 
ATOM     17  C   UNL     1     150.293 170.191 192.285  0.00  0.00    +0.125 A 
ATOM     18  O   UNL     1     150.579 168.916 191.879  0.00  0.00    -0.443 OA
ATOM     19  C   UNL     1     148.224 171.804 192.033  0.00  0.00    +0.250 A 
ATOM     20  N   UNL     1     147.053 171.950 191.451  0.00  0.00    -0.203 NA
ATOM     21  C   UNL     1     146.485 173.018 192.088  0.00  0.00    +0.164 A 
ATOM     22  C   UNL     1     147.387 173.580 192.950  0.00  0.00    +0.125 A 
ATOM     23  O   UNL     1     148.534 172.826 192.903  0.00  0.00    -0.442 OA
ATOM     24  C   UNL     1     144.979 173.346 191.897  0.00  0.00    +0.249 A 
ATOM     25  N   UNL     1     144.254 172.652 191.036  0.00  0.00    -0.210 NA
ATOM     26  C   UNL     1     142.953 172.931 191.368  0.00  0.00    +0.109 A 
ATOM     27  C   UNL     1     142.950 173.937 192.311  0.00  0.00    +0.118 A 
ATOM     28  O   UNL     1     144.244 174.229 192.642  0.00  0.00    -0.442 OA
ATOM     29  C   UNL     1     141.816 172.188 190.722  0.00  0.00    +0.108 C 
ATOM     30  C   UNL     1     141.818 170.637 191.008  0.00  0.00    +0.014 C 
ATOM     31  C   UNL     1     143.056 169.921 190.374  0.00  0.00    +0.061 C 
ATOM     32  C   UNL     1     142.966 168.410 190.052  0.00  0.00    -0.024 C 
ATOM     33  H   UNL     1     144.427 167.570 191.409  0.00  0.00    +0.030 HD
ATOM     34  H   UNL     1     142.127 165.745 190.599  0.00  0.00    +0.030 HD
ATOM     35  H   UNL     1     143.514 165.284 191.535  0.00  0.00    +0.030 HD
ATOM     36  H   UNL     1     143.613 166.090 188.567  0.00  0.00    +0.074 HD
ATOM     37  H   UNL     1     145.829 164.927 190.350  0.00  0.00    +0.041 HD
ATOM     38  H   UNL     1     145.746 166.628 189.826  0.00  0.00    +0.041 HD
ATOM     39  H   UNL     1     148.060 164.583 186.723  0.00  0.00    +0.074 HD
ATOM     40  H   UNL     1     149.750 166.939 187.687  0.00  0.00    +0.036 HD
ATOM     41  H   UNL     1     150.070 163.903 187.831  0.00  0.00    +0.060 HD
ATOM     42  H   UNL     1     148.848 164.755 189.796  0.00  0.00    +0.033 HD
ATOM     43  H   UNL     1     150.445 164.258 190.272  0.00  0.00    +0.033 HD
ATOM     44  H   UNL     1     151.260 166.608 190.444  0.00  0.00    +0.057 HD
ATOM     45  H   UNL     1     148.202 166.952 190.465  0.00  0.00    +0.067 HD
ATOM     46  H   UNL     1     151.031 170.680 192.902  0.00  0.00    +0.105 HD
ATOM     47  H   UNL     1     147.379 174.405 193.647  0.00  0.00    +0.105 HD
ATOM     48  H   UNL     1     142.178 174.481 192.834  0.00  0.00    +0.105 HD
ATOM     49  H   UNL     1     141.899 172.323 189.633  0.00  0.00    +0.067 HD
ATOM     50  H   UNL     1     141.847 170.510 192.099  0.00  0.00    +0.035 HD
ATOM     51  H   UNL     1     143.276 170.418 189.418  0.00  0.00    +0.060 HD
ATOM     52  H   UNL     1     143.684 168.250 189.235  0.00  0.00    +0.029 HD
ATOM     53  H   UNL     1     141.996 168.143 189.619  0.00  0.00    +0.029 HD
ENDROOT
BRANCH   1  54
ATOM     54  C   UNL     1     142.580 167.620 192.465  0.00  0.00    -0.062 C 
ATOM     55  H   UNL     1     142.176 168.631 192.536  0.00  0.00    +0.023 HD
ATOM     56  H   UNL     1     141.754 166.909 192.545  0.00  0.00    +0.023 HD
ATOM     57  H   UNL     1     143.228 167.478 193.338  0.00  0.00    +0.023 HD
ENDBRANCH   1  54
BRANCH  30  58
ATOM     58  C   UNL     1     140.489 170.036 190.515  0.00  0.00    -0.057 C 
ATOM     59  H   UNL     1     140.325 169.034 190.919  0.00  0.00    +0.023 HD
ATOM     60  H   UNL     1     139.630 170.630 190.842  0.00  0.00    +0.023 HD
ATOM     61  H   UNL     1     140.466 169.980 189.421  0.00  0.00    +0.023 HD
ENDBRANCH  30  58
BRANCH   9  62
ATOM     62  C   UNL     1     150.425 165.986 185.900  0.00  0.00    -0.057 C 
ATOM     63  H   UNL     1     150.291 165.053 185.343  0.00  0.00    +0.023 HD
ATOM     64  H   UNL     1     151.497 166.136 186.060  0.00  0.00    +0.023 HD
ATOM     65  H   UNL     1     150.105 166.816 185.264  0.00  0.00    +0.023 HD
ENDBRANCH   9  62
BRANCH   8  66
ATOM     66  C   UNL     1     147.482 166.460 185.838  0.00  0.00    +0.011 C 
ATOM     67  H   UNL     1     146.513 166.006 185.598  0.00  0.00    +0.033 HD
ATOM     68  H   UNL     1     148.101 166.340 184.942  0.00  0.00    +0.033 HD
BRANCH  66  69
ATOM     69  C   UNL     1     147.248 167.959 186.134  0.00  0.00    +0.064 C 
ATOM     70  H   UNL     1     147.932 168.276 186.928  0.00  0.00    +0.060 HD
BRANCH  69  71
ATOM     71  C   UNL     1     147.544 168.815 184.866  0.00  0.00    -0.017 C 
ATOM     72  H   UNL     1     148.495 168.456 184.451  0.00  0.00    +0.032 HD
BRANCH  71  73
ATOM     73  C   UNL     1     146.467 168.658 183.787  0.00  0.00    -0.060 C 
ATOM     74  H   UNL     1     146.094 167.632 183.755  0.00  0.00    +0.023 HD
ATOM     75  H   UNL     1     146.854 168.909 182.793  0.00  0.00    +0.023 HD
ATOM     76  H   UNL     1     145.604 169.301 183.986  0.00  0.00    +0.023 HD
ENDBRANCH  71  73
BRANCH  71  77
ATOM     77  C   UNL     1     147.742 170.305 185.230  0.00  0.00    -0.041 C 
ATOM     78  H   UNL     1     147.732 170.433 186.320  0.00  0.00    +0.027 HD
ATOM     79  H   UNL     1     148.738 170.612 184.886  0.00  0.00    +0.027 HD
BRANCH  77  80
ATOM     80  C   UNL     1     146.728 171.232 184.552  0.00  0.00    +0.007 C 
ATOM     81  H   UNL     1     146.245 170.742 183.702  0.00  0.00    +0.034 HD
ATOM     82  H   UNL     1     147.247 172.109 184.148  0.00  0.00    +0.034 HD
BRANCH  80  83
ATOM     83  C   UNL     1     145.678 171.782 185.504  0.00  0.00    +0.139 C 
ATOM     84  O   UNL     1     144.609 171.193 185.672  0.00  0.00    -0.297 OA
BRANCH  83  85
ATOM     85  C   UNL     1     146.065 173.002 186.341  0.00  0.00    +0.041 C 
ATOM     86  H   UNL     1     147.158 173.084 186.308  0.00  0.00    +0.040 HD
BRANCH  85  87
ATOM     87  C   UNL     1     145.616 172.711 187.773  0.00  0.00    -0.053 C 
ATOM     88  H   UNL     1     146.456 172.705 188.470  0.00  0.00    +0.024 HD
ATOM     89  H   UNL     1     144.889 173.453 188.117  0.00  0.00    +0.024 HD
ATOM     90  H   UNL     1     145.137 171.728 187.843  0.00  0.00    +0.024 HD
ENDBRANCH  85  87
BRANCH  85  91
ATOM     91  C   UNL     1     145.451 174.285 185.732  0.00  0.00    +0.074 C 
ATOM     92  H   UNL     1     145.101 174.943 186.540  0.00  0.00    +0.061 HD
BRANCH  91  93
ATOM     93  C   UNL     1     146.442 175.112 184.854  0.00  0.00    +0.003 C 
ATOM     94  H   UNL     1     147.461 174.896 185.197  0.00  0.00    +0.037 HD
BRANCH  93  95
ATOM     95  C   UNL     1     146.228 176.619 185.043  0.00  0.00    -0.057 C 
ATOM     96  H   UNL     1     146.974 177.187 184.478  0.00  0.00    +0.024 HD
ATOM     97  H   UNL     1     146.300 176.917 186.094  0.00  0.00    +0.024 HD
ATOM     98  H   UNL     1     145.238 176.920 184.682  0.00  0.00    +0.024 HD
ENDBRANCH  93  95
BRANCH  93  99
ATOM     99  C   UNL     1     146.324 174.792 183.373  0.00  0.00    -0.065 C 
ATOM    100  C   UNL     1     147.372 174.766 182.537  0.00  0.00    -0.005 C 
ATOM    101  H   UNL     1     145.311 174.590 183.035  0.00  0.00    +0.059 HD
ATOM    102  H   UNL     1     148.364 174.976 182.937  0.00  0.00    +0.078 HD
BRANCH 100 103
ATOM    103  N   UNL     1     147.356 174.488 181.180  0.00  0.00    -0.284 N 
ATOM    104  C   UNL     1     147.487 173.223 180.614  0.00  0.00    +0.206 C 
ATOM    105  O   UNL     1     147.491 172.967 179.414  0.00  0.00    -0.279 OA
ATOM    106  H   UNL     1     147.595 172.413 181.350  0.00  0.00    +0.126 HD
BRANCH 103 107
ATOM    107  C   UNL     1     147.191 175.619 180.270  0.00  0.00    +0.007 C 
ATOM    108  H   UNL     1     148.163 176.110 180.144  0.00  0.00    +0.043 HD
ATOM    109  H   UNL     1     146.829 175.307 179.287  0.00  0.00    +0.043 HD
ATOM    110  H   UNL     1     146.475 176.327 180.698  0.00  0.00    +0.043 HD
ENDBRANCH 103 107
ENDBRANCH 100 103
ENDBRANCH  93  99
ENDBRANCH  91  93
BRANCH  91 111
ATOM    111  O   UNL     1     144.344 173.883 184.899  0.00  0.00    -0.379 OA
BRANCH 111 112
ATOM    112  C   UNL     1     143.107 174.471 185.286  0.00  0.00    +0.037 C 
ATOM    113  H   UNL     1     142.297 173.842 184.906  0.00  0.00    +0.052 HD
ATOM    114  H   UNL     1     143.024 174.522 186.375  0.00  0.00    +0.052 HD
ATOM    115  H   UNL     1     143.002 175.472 184.853  0.00  0.00    +0.052 HD
ENDBRANCH 111 112
ENDBRANCH  91 111
ENDBRANCH  85  91
ENDBRANCH  83  85
ENDBRANCH  80  83
ENDBRANCH  77  80
ENDBRANCH  71  77
ENDBRANCH  69  71
BRANCH  69 116
ATOM    116  O   UNL     1     145.886 168.131 186.540  0.00  0.00    -0.379 OA
BRANCH 116 117
ATOM    117  C   UNL     1     145.752 168.828 187.775  0.00  0.00    +0.037 C 
ATOM    118  H   UNL     1     144.938 168.370 188.346  0.00  0.00    +0.052 HD
ATOM    119  H   UNL     1     145.509 169.882 187.604  0.00  0.00    +0.052 HD
ATOM    120  H   UNL     1     146.676 168.748 188.351  0.00  0.00    +0.052 HD
ENDBRANCH 116 117
ENDBRANCH  69 116
ENDBRANCH  66  69
ENDBRANCH   8  66
BRANCH  31 121
ATOM    121  O   UNL     1     144.195 170.072 191.218  0.00  0.00    -0.391 OA
ATOM    122  H   UNL     1     144.669 170.881 190.921  0.00  0.00    +0.210 HD
ENDBRANCH  31 121
BRANCH  29 123
ATOM    123  O   UNL     1     140.561 172.738 191.178  0.00  0.00    -0.373 OA
BRANCH 123 124
ATOM    124  C   UNL     1     139.987 173.636 190.239  0.00  0.00    +0.037 C 
ATOM    125  H   UNL     1     140.296 174.651 190.504  0.00  0.00    +0.052 HD
ATOM    126  H   UNL     1     140.332 173.418 189.226  0.00  0.00    +0.052 HD
ATOM    127  H   UNL     1     138.896 173.585 190.287  0.00  0.00    +0.052 HD
ENDBRANCH 123 124
ENDBRANCH  29 123
BRANCH  10 128
ATOM    128  O   UNL     1     151.755 165.074 188.114  0.00  0.00    -0.379 OA
BRANCH 128 129
ATOM    129  C   UNL     1     152.491 163.937 188.545  0.00  0.00    +0.037 C 
ATOM    130  H   UNL     1     152.568 163.191 187.750  0.00  0.00    +0.052 HD
ATOM    131  H   UNL     1     151.956 163.487 189.386  0.00  0.00    +0.052 HD
ATOM    132  H   UNL     1     153.488 164.230 188.886  0.00  0.00    +0.052 HD
ENDBRANCH 128 129
ENDBRANCH  10 128
BRANCH   3 133
ATOM    133  O   UNL     1     143.608 164.109 189.217  0.00  0.00    -0.447 OA
BRANCH 133 134
ATOM    134  C   UNL     1     142.554 163.872 188.403  0.00  0.00    +0.398 C 
ATOM    135  O   UNL     1     141.648 163.082 188.598  0.00  0.00    -0.227 OA
ATOM    136  N   UNL     1     142.648 164.644 187.300  0.00  0.00    -0.295 N 
ATOM    137  H   UNL     1     143.398 165.312 187.222  0.00  0.00    +0.148 HD
ATOM    138  H   UNL     1     141.917 164.599 186.605  0.00  0.00    +0.148 HD
ENDBRANCH 133 134
ENDBRANCH   3 133
TORSDOF 29
ENDMDL
MODEL 7
REMARK VINA RESULT:      -4.7      2.143      8.843
REMARK  Name = Kabiramide C_conf2
REMARK  29 active torsions:
REMARK  status: ('A' for Active; 'I' for Inactive)
REMARK    1  A    between atoms: C_1  and  C_2
REMARK    2  A    between atoms: C_4  and  O_64
REMARK    3  A    between atoms: C_9  and  C_41
REMARK    4  A    between atoms: C_10  and  C_40
REMARK    5  A    between atoms: C_11  and  O_38
REMARK    6  A    between atoms: C_30  and  O_36
REMARK    7  A    between atoms: C_31  and  C_35
REMARK    8  A    between atoms: C_32  and  O_34
REMARK    9  A    between atoms: O_36  and  C_37
REMARK   10  A    between atoms: O_38  and  C_39
REMARK   11  A    between atoms: C_41  and  C_42
REMARK   12  A    between atoms: C_42  and  C_43
REMARK   13  A    between atoms: C_42  and  O_62
REMARK   14  A    between atoms: C_43  and  C_44
REMARK   15  A    between atoms: C_43  and  C_45
REMARK   16  A    between atoms: C_45  and  C_46
REMARK   17  A    between atoms: C_46  and  C_47
REMARK   18  A    between atoms: C_47  and  C_49
REMARK   19  A    between atoms: C_49  and  C_50
REMARK   20  A    between atoms: C_49  and  C_51
REMARK   21  A    between atoms: C_51  and  C_52
REMARK   22  A    between atoms: C_51  and  O_60
REMARK   23  A    between atoms: C_52  and  C_53
REMARK   24  A    between atoms: C_52  and  C_54
REMARK   25  A    between atoms: C_55  and  N_56
REMARK   26  A    between atoms: N_56  and  C_57
REMARK   27  A    between atoms: O_60  and  C_61
REMARK   28  A    between atoms: O_62  and  C_63
REMARK   29  A    between atoms: O_64  and  C_65
REMARK                            x       y       z     vdW  Elec       q    Type
REMARK                         _______ _______ _______ _____ _____    ______ ____
ROOT
ATOM      1  C   UNL     1     143.503 167.422 191.143  0.00  0.00    -0.038 C 
ATOM      2  C   UNL     1     143.304 165.958 190.695  0.00  0.00    -0.012 C 
ATOM      3  C   UNL     1     144.043 165.494 189.421  0.00  0.00    +0.115 C 
ATOM      4  C   UNL     1     145.567 165.559 189.569  0.00  0.00    +0.082 C 
ATOM      5  C   UNL     1     146.278 165.165 188.292  0.00  0.00    +0.311 C 
ATOM      6  O   UNL     1     145.856 164.370 187.464  0.00  0.00    -0.251 OA
ATOM      7  O   UNL     1     147.505 165.772 188.223  0.00  0.00    -0.461 OA
ATOM      8  C   UNL     1     148.260 165.534 187.015  0.00  0.00    +0.110 C 
ATOM      9  C   UNL     1     149.782 165.800 187.270  0.00  0.00    +0.020 C 
ATOM     10  C   UNL     1     150.424 164.748 188.242  0.00  0.00    +0.068 C 
ATOM     11  C   UNL     1     149.997 164.863 189.724  0.00  0.00    -0.008 C 
ATOM     12  C   UNL     1     150.326 166.196 190.352  0.00  0.00    -0.077 C 
ATOM     13  C   UNL     1     149.372 167.076 190.677  0.00  0.00    -0.003 C 
ATOM     14  C   UNL     1     149.618 168.370 191.197  0.00  0.00    +0.220 A 
ATOM     15  N   UNL     1     148.750 169.358 191.075  0.00  0.00    -0.205 NA
ATOM     16  C   UNL     1     149.261 170.395 191.808  0.00  0.00    +0.164 A 
ATOM     17  C   UNL     1     150.479 170.041 192.317  0.00  0.00    +0.125 A 
ATOM     18  O   UNL     1     150.739 168.758 191.917  0.00  0.00    -0.443 OA
ATOM     19  C   UNL     1     148.450 171.701 192.042  0.00  0.00    +0.250 A 
ATOM     20  N   UNL     1     147.288 171.872 191.448  0.00  0.00    -0.203 NA
ATOM     21  C   UNL     1     146.739 172.954 192.078  0.00  0.00    +0.164 A 
ATOM     22  C   UNL     1     147.646 173.498 192.946  0.00  0.00    +0.125 A 
ATOM     23  O   UNL     1     148.775 172.717 192.912  0.00  0.00    -0.442 OA
ATOM     24  C   UNL     1     145.243 173.316 191.871  0.00  0.00    +0.249 A 
ATOM     25  N   UNL     1     144.510 172.637 191.006  0.00  0.00    -0.210 NA
ATOM     26  C   UNL     1     143.213 172.947 191.325  0.00  0.00    +0.109 A 
ATOM     27  C   UNL     1     143.224 173.955 192.266  0.00  0.00    +0.118 A 
ATOM     28  O   UNL     1     144.521 174.218 192.607  0.00  0.00    -0.442 OA
ATOM     29  C   UNL     1     142.065 172.229 190.670  0.00  0.00    +0.108 C 
ATOM     30  C   UNL     1     142.028 170.679 190.961  0.00  0.00    +0.014 C 
ATOM     31  C   UNL     1     143.255 169.933 190.339  0.00  0.00    +0.061 C 
ATOM     32  C   UNL     1     143.133 168.423 190.020  0.00  0.00    -0.024 C 
ATOM     33  H   UNL     1     144.562 167.554 191.393  0.00  0.00    +0.030 HD
ATOM     34  H   UNL     1     142.227 165.780 190.566  0.00  0.00    +0.030 HD
ATOM     35  H   UNL     1     143.595 165.290 191.516  0.00  0.00    +0.030 HD
ATOM     36  H   UNL     1     143.740 166.085 188.547  0.00  0.00    +0.074 HD
ATOM     37  H   UNL     1     145.912 164.876 190.354  0.00  0.00    +0.041 HD
ATOM     38  H   UNL     1     145.873 166.577 189.824  0.00  0.00    +0.041 HD
ATOM     39  H   UNL     1     148.168 164.471 186.749  0.00  0.00    +0.074 HD
ATOM     40  H   UNL     1     149.903 166.790 187.722  0.00  0.00    +0.036 HD
ATOM     41  H   UNL     1     150.152 163.748 187.877  0.00  0.00    +0.060 HD
ATOM     42  H   UNL     1     148.932 164.633 189.828  0.00  0.00    +0.033 HD
ATOM     43  H   UNL     1     150.512 164.100 190.320  0.00  0.00    +0.033 HD
ATOM     44  H   UNL     1     151.379 166.432 190.494  0.00  0.00    +0.057 HD
ATOM     45  H   UNL     1     148.330 166.846 190.486  0.00  0.00    +0.067 HD
ATOM     46  H   UNL     1     151.222 170.515 192.940  0.00  0.00    +0.105 HD
ATOM     47  H   UNL     1     147.650 174.325 193.641  0.00  0.00    +0.105 HD
ATOM     48  H   UNL     1     142.460 174.519 192.779  0.00  0.00    +0.105 HD
ATOM     49  H   UNL     1     142.161 172.359 189.582  0.00  0.00    +0.067 HD
ATOM     50  H   UNL     1     142.044 170.554 192.051  0.00  0.00    +0.035 HD
ATOM     51  H   UNL     1     143.496 170.422 189.385  0.00  0.00    +0.060 HD
ATOM     52  H   UNL     1     143.854 168.245 189.211  0.00  0.00    +0.029 HD
ATOM     53  H   UNL     1     142.162 168.177 189.579  0.00  0.00    +0.029 HD
ENDROOT
BRANCH   1  54
ATOM     54  C   UNL     1     142.707 167.649 192.431  0.00  0.00    -0.062 C 
ATOM     55  H   UNL     1     141.919 166.903 192.556  0.00  0.00    +0.023 HD
ATOM     56  H   UNL     1     143.355 167.620 193.311  0.00  0.00    +0.023 HD
ATOM     57  H   UNL     1     142.213 168.627 192.413  0.00  0.00    +0.023 HD
ENDBRANCH   1  54
BRANCH  30  58
ATOM     58  C   UNL     1     140.691 170.108 190.456  0.00  0.00    -0.057 C 
ATOM     59  H   UNL     1     140.068 169.750 191.280  0.00  0.00    +0.023 HD
ATOM     60  H   UNL     1     140.092 170.869 189.945  0.00  0.00    +0.023 HD
ATOM     61  H   UNL     1     140.855 169.280 189.757  0.00  0.00    +0.023 HD
ENDBRANCH  30  58
BRANCH   9  62
ATOM     62  C   UNL     1     150.572 165.816 185.943  0.00  0.00    -0.057 C 
ATOM     63  H   UNL     1     149.917 165.586 185.097  0.00  0.00    +0.023 HD
ATOM     64  H   UNL     1     151.389 165.088 185.950  0.00  0.00    +0.023 HD
ATOM     65  H   UNL     1     151.045 166.785 185.762  0.00  0.00    +0.023 HD
ENDBRANCH   9  62
BRANCH   8  66
ATOM     66  C   UNL     1     147.642 166.358 185.853  0.00  0.00    +0.011 C 
ATOM     67  H   UNL     1     146.998 165.694 185.264  0.00  0.00    +0.033 HD
ATOM     68  H   UNL     1     148.451 166.669 185.182  0.00  0.00    +0.033 HD
BRANCH  66  69
ATOM     69  C   UNL     1     146.801 167.582 186.284  0.00  0.00    +0.064 C 
ATOM     70  H   UNL     1     146.228 167.322 187.180  0.00  0.00    +0.060 HD
BRANCH  69  71
ATOM     71  C   UNL     1     147.729 168.784 186.630  0.00  0.00    -0.017 C 
ATOM     72  H   UNL     1     148.701 168.365 186.924  0.00  0.00    +0.032 HD
BRANCH  71  73
ATOM     73  C   UNL     1     147.957 169.714 185.433  0.00  0.00    -0.060 C 
ATOM     74  H   UNL     1     147.072 170.324 185.240  0.00  0.00    +0.023 HD
ATOM     75  H   UNL     1     148.185 169.149 184.523  0.00  0.00    +0.023 HD
ATOM     76  H   UNL     1     148.784 170.408 185.617  0.00  0.00    +0.023 HD
ENDBRANCH  71  73
BRANCH  71  77
ATOM     77  C   UNL     1     147.191 169.575 187.845  0.00  0.00    -0.041 C 
ATOM     78  H   UNL     1     147.257 168.965 188.754  0.00  0.00    +0.027 HD
ATOM     79  H   UNL     1     147.840 170.445 188.001  0.00  0.00    +0.027 HD
BRANCH  77  80
ATOM     80  C   UNL     1     145.770 170.109 187.636  0.00  0.00    +0.007 C 
ATOM     81  H   UNL     1     145.106 169.806 188.451  0.00  0.00    +0.034 HD
ATOM     82  H   UNL     1     145.348 169.679 186.720  0.00  0.00    +0.034 HD
BRANCH  80  83
ATOM     83  C   UNL     1     145.709 171.616 187.445  0.00  0.00    +0.139 C 
ATOM     84  O   UNL     1     145.962 172.380 188.378  0.00  0.00    -0.297 OA
BRANCH  83  85
ATOM     85  C   UNL     1     145.468 172.130 186.025  0.00  0.00    +0.041 C 
ATOM     86  H   UNL     1     146.004 171.460 185.342  0.00  0.00    +0.040 HD
BRANCH  85  87
ATOM     87  C   UNL     1     146.082 173.529 185.957  0.00  0.00    -0.053 C 
ATOM     88  H   UNL     1     146.390 173.887 186.942  0.00  0.00    +0.024 HD
ATOM     89  H   UNL     1     146.955 173.545 185.298  0.00  0.00    +0.024 HD
ATOM     90  H   UNL     1     145.363 174.256 185.565  0.00  0.00    +0.024 HD
ENDBRANCH  85  87
BRANCH  85  91
ATOM     91  C   UNL     1     143.959 172.083 185.688  0.00  0.00    +0.074 C 
ATOM     92  H   UNL     1     143.683 172.979 185.115  0.00  0.00    +0.061 HD
BRANCH  91  93
ATOM     93  C   UNL     1     143.533 170.841 184.844  0.00  0.00    +0.003 C 
ATOM     94  H   UNL     1     144.439 170.390 184.422  0.00  0.00    +0.037 HD
BRANCH  93  95
ATOM     95  C   UNL     1     142.655 171.251 183.655  0.00  0.00    -0.057 C 
ATOM     96  H   UNL     1     143.255 171.752 182.888  0.00  0.00    +0.024 HD
ATOM     97  H   UNL     1     141.849 171.928 183.951  0.00  0.00    +0.024 HD
ATOM     98  H   UNL     1     142.193 170.371 183.191  0.00  0.00    +0.024 HD
ENDBRANCH  93  95
BRANCH  93  99
ATOM     99  C   UNL     1     142.781 169.803 185.661  0.00  0.00    -0.065 C 
ATOM    100  C   UNL     1     141.912 168.931 185.129  0.00  0.00    -0.005 C 
ATOM    101  H   UNL     1     142.998 169.825 186.726  0.00  0.00    +0.059 HD
ATOM    102  H   UNL     1     141.738 168.959 184.054  0.00  0.00    +0.078 HD
BRANCH 100 103
ATOM    103  N   UNL     1     141.184 167.959 185.796  0.00  0.00    -0.284 N 
ATOM    104  C   UNL     1     140.831 166.718 185.275  0.00  0.00    +0.206 C 
ATOM    105  O   UNL     1     140.173 165.856 185.850  0.00  0.00    -0.279 OA
ATOM    106  H   UNL     1     141.196 166.541 184.254  0.00  0.00    +0.126 HD
BRANCH 103 107
ATOM    107  C   UNL     1     140.751 168.267 187.157  0.00  0.00    +0.007 C 
ATOM    108  H   UNL     1     141.184 167.524 187.837  0.00  0.00    +0.043 HD
ATOM    109  H   UNL     1     141.073 169.260 187.477  0.00  0.00    +0.043 HD
ATOM    110  H   UNL     1     139.659 168.219 187.209  0.00  0.00    +0.043 HD
ENDBRANCH 103 107
ENDBRANCH 100 103
ENDBRANCH  93  99
ENDBRANCH  91  93
BRANCH  91 111
ATOM    111  O   UNL     1     143.237 172.044 186.936  0.00  0.00    -0.379 OA
BRANCH 111 112
ATOM    112  C   UNL     1     142.415 173.187 187.145  0.00  0.00    +0.037 C 
ATOM    113  H   UNL     1     141.732 173.276 186.295  0.00  0.00    +0.052 HD
ATOM    114  H   UNL     1     141.819 173.078 188.055  0.00  0.00    +0.052 HD
ATOM    115  H   UNL     1     143.023 174.096 187.200  0.00  0.00    +0.052 HD
ENDBRANCH 111 112
ENDBRANCH  91 111
ENDBRANCH  85  91
ENDBRANCH  83  85
ENDBRANCH  80  83
ENDBRANCH  77  80
ENDBRANCH  71  77
ENDBRANCH  69  71
BRANCH  69 116
ATOM    116  O   UNL     1     145.924 167.928 185.206  0.00  0.00    -0.379 OA
BRANCH 116 117
ATOM    117  C   UNL     1     145.015 166.886 184.865  0.00  0.00    +0.037 C 
ATOM    118  H   UNL     1     144.989 166.791 183.774  0.00  0.00    +0.052 HD
ATOM    119  H   UNL     1     144.006 167.115 185.221  0.00  0.00    +0.052 HD
ATOM    120  H   UNL     1     145.354 165.940 185.293  0.00  0.00    +0.052 HD
ENDBRANCH 116 117
ENDBRANCH  69 116
ENDBRANCH  66  69
ENDBRANCH   8  66
BRANCH  31 121
ATOM    121  O   UNL     1     144.390 170.060 191.193  0.00  0.00    -0.391 OA
ATOM    122  H   UNL     1     144.051 170.154 192.112  0.00  0.00    +0.210 HD
ENDBRANCH  31 121
BRANCH  29 123
ATOM    123  O   UNL     1     140.819 172.809 191.113  0.00  0.00    -0.373 OA
BRANCH 123 124
ATOM    124  C   UNL     1     140.279 173.726 190.171  0.00  0.00    +0.037 C 
ATOM    125  H   UNL     1     140.842 173.627 189.239  0.00  0.00    +0.052 HD
ATOM    126  H   UNL     1     139.228 173.509 189.970  0.00  0.00    +0.052 HD
ATOM    127  H   UNL     1     140.393 174.750 190.535  0.00  0.00    +0.052 HD
ENDBRANCH 123 124
ENDBRANCH  29 123
BRANCH  10 128
ATOM    128  O   UNL     1     151.860 164.880 188.172  0.00  0.00    -0.379 OA
BRANCH 128 129
ATOM    129  C   UNL     1     152.565 163.703 188.545  0.00  0.00    +0.037 C 
ATOM    130  H   UNL     1     152.198 162.832 187.997  0.00  0.00    +0.052 HD
ATOM    131  H   UNL     1     152.396 163.532 189.612  0.00  0.00    +0.052 HD
ATOM    132  H   UNL     1     153.639 163.829 188.381  0.00  0.00    +0.052 HD
ENDBRANCH 128 129
ENDBRANCH  10 128
BRANCH   3 133
ATOM    133  O   UNL     1     143.683 164.107 189.202  0.00  0.00    -0.447 OA
BRANCH 133 134
ATOM    134  C   UNL     1     142.633 163.892 188.378  0.00  0.00    +0.398 C 
ATOM    135  O   UNL     1     141.703 163.128 188.569  0.00  0.00    -0.227 OA
ATOM    136  N   UNL     1     142.760 164.652 187.269  0.00  0.00    -0.295 N 
ATOM    137  H   UNL     1     143.529 165.298 187.195  0.00  0.00    +0.148 HD
ATOM    138  H   UNL     1     142.036 164.621 186.567  0.00  0.00    +0.148 HD
ENDBRANCH 133 134
ENDBRANCH   3 133
TORSDOF 29
ENDMDL
MODEL 8
REMARK VINA RESULT:      -4.7      2.325      3.193
REMARK  Name = Kabiramide C_conf2
REMARK  29 active torsions:
REMARK  status: ('A' for Active; 'I' for Inactive)
REMARK    1  A    between atoms: C_1  and  C_2
REMARK    2  A    between atoms: C_4  and  O_64
REMARK    3  A    between atoms: C_9  and  C_41
REMARK    4  A    between atoms: C_10  and  C_40
REMARK    5  A    between atoms: C_11  and  O_38
REMARK    6  A    between atoms: C_30  and  O_36
REMARK    7  A    between atoms: C_31  and  C_35
REMARK    8  A    between atoms: C_32  and  O_34
REMARK    9  A    between atoms: O_36  and  C_37
REMARK   10  A    between atoms: O_38  and  C_39
REMARK   11  A    between atoms: C_41  and  C_42
REMARK   12  A    between atoms: C_42  and  C_43
REMARK   13  A    between atoms: C_42  and  O_62
REMARK   14  A    between atoms: C_43  and  C_44
REMARK   15  A    between atoms: C_43  and  C_45
REMARK   16  A    between atoms: C_45  and  C_46
REMARK   17  A    between atoms: C_46  and  C_47
REMARK   18  A    between atoms: C_47  and  C_49
REMARK   19  A    between atoms: C_49  and  C_50
REMARK   20  A    between atoms: C_49  and  C_51
REMARK   21  A    between atoms: C_51  and  C_52
REMARK   22  A    between atoms: C_51  and  O_60
REMARK   23  A    between atoms: C_52  and  C_53
REMARK   24  A    between atoms: C_52  and  C_54
REMARK   25  A    between atoms: C_55  and  N_56
REMARK   26  A    between atoms: N_56  and  C_57
REMARK   27  A    between atoms: O_60  and  C_61
REMARK   28  A    between atoms: O_62  and  C_63
REMARK   29  A    between atoms: O_64  and  C_65
REMARK                            x       y       z     vdW  Elec       q    Type
REMARK                         _______ _______ _______ _____ _____    ______ ____
ROOT
ATOM      1  C   UNL     1     146.338 170.332 186.099  0.00  0.00    -0.038 C 
ATOM      2  C   UNL     1     145.206 171.119 185.406  0.00  0.00    -0.012 C 
ATOM      3  C   UNL     1     143.852 171.222 186.141  0.00  0.00    +0.115 C 
ATOM      4  C   UNL     1     143.964 171.969 187.476  0.00  0.00    +0.082 C 
ATOM      5  C   UNL     1     142.644 172.005 188.217  0.00  0.00    +0.311 C 
ATOM      6  O   UNL     1     141.538 172.009 187.694  0.00  0.00    -0.251 OA
ATOM      7  O   UNL     1     142.860 172.105 189.567  0.00  0.00    -0.461 OA
ATOM      8  C   UNL     1     141.679 172.078 190.399  0.00  0.00    +0.110 C 
ATOM      9  C   UNL     1     141.986 172.724 191.792  0.00  0.00    +0.020 C 
ATOM     10  C   UNL     1     142.254 174.267 191.695  0.00  0.00    +0.068 C 
ATOM     11  C   UNL     1     143.596 174.670 191.039  0.00  0.00    -0.008 C 
ATOM     12  C   UNL     1     144.811 174.127 191.752  0.00  0.00    -0.077 C 
ATOM     13  C   UNL     1     145.573 173.169 191.214  0.00  0.00    -0.003 C 
ATOM     14  C   UNL     1     146.679 172.564 191.861  0.00  0.00    +0.220 A 
ATOM     15  N   UNL     1     147.111 171.358 191.543  0.00  0.00    -0.205 NA
ATOM     16  C   UNL     1     148.258 171.171 192.267  0.00  0.00    +0.164 A 
ATOM     17  C   UNL     1     148.472 172.253 193.075  0.00  0.00    +0.125 A 
ATOM     18  O   UNL     1     147.460 173.145 192.850  0.00  0.00    -0.443 OA
ATOM     19  C   UNL     1     149.158 169.921 192.055  0.00  0.00    +0.250 A 
ATOM     20  N   UNL     1     148.776 168.963 191.238  0.00  0.00    -0.203 NA
ATOM     21  C   UNL     1     149.890 168.189 191.073  0.00  0.00    +0.164 A 
ATOM     22  C   UNL     1     150.885 168.621 191.907  0.00  0.00    +0.125 A 
ATOM     23  O   UNL     1     150.417 169.725 192.576  0.00  0.00    -0.442 OA
ATOM     24  C   UNL     1     149.948 167.110 189.958  0.00  0.00    +0.249 A 
ATOM     25  N   UNL     1     148.880 166.863 189.219  0.00  0.00    -0.210 NA
ATOM     26  C   UNL     1     149.354 166.163 188.139  0.00  0.00    +0.109 A 
ATOM     27  C   UNL     1     150.679 165.856 188.366  0.00  0.00    +0.118 A 
ATOM     28  O   UNL     1     151.066 166.438 189.541  0.00  0.00    -0.442 OA
ATOM     29  C   UNL     1     148.459 165.845 186.973  0.00  0.00    +0.108 C 
ATOM     30  C   UNL     1     147.910 167.118 186.221  0.00  0.00    +0.014 C 
ATOM     31  C   UNL     1     146.954 167.968 187.121  0.00  0.00    +0.061 C 
ATOM     32  C   UNL     1     145.905 168.886 186.447  0.00  0.00    -0.024 C 
ATOM     33  H   UNL     1     146.586 170.856 187.030  0.00  0.00    +0.030 HD
ATOM     34  H   UNL     1     145.037 170.678 184.413  0.00  0.00    +0.030 HD
ATOM     35  H   UNL     1     145.554 172.139 185.196  0.00  0.00    +0.030 HD
ATOM     36  H   UNL     1     143.418 170.229 186.320  0.00  0.00    +0.074 HD
ATOM     37  H   UNL     1     144.272 173.008 187.315  0.00  0.00    +0.041 HD
ATOM     38  H   UNL     1     144.698 171.475 188.118  0.00  0.00    +0.041 HD
ATOM     39  H   UNL     1     140.905 172.701 189.928  0.00  0.00    +0.074 HD
ATOM     40  H   UNL     1     142.880 172.255 192.216  0.00  0.00    +0.036 HD
ATOM     41  H   UNL     1     141.435 174.712 191.114  0.00  0.00    +0.060 HD
ATOM     42  H   UNL     1     143.600 174.382 189.983  0.00  0.00    +0.033 HD
ATOM     43  H   UNL     1     143.696 175.762 191.037  0.00  0.00    +0.033 HD
ATOM     44  H   UNL     1     145.021 174.519 192.745  0.00  0.00    +0.057 HD
ATOM     45  H   UNL     1     145.324 172.754 190.243  0.00  0.00    +0.067 HD
ATOM     46  H   UNL     1     149.226 172.545 193.790  0.00  0.00    +0.105 HD
ATOM     47  H   UNL     1     151.907 168.332 192.106  0.00  0.00    +0.105 HD
ATOM     48  H   UNL     1     151.434 165.312 187.819  0.00  0.00    +0.105 HD
ATOM     49  H   UNL     1     147.593 165.285 187.354  0.00  0.00    +0.067 HD
ATOM     50  H   UNL     1     148.778 167.728 185.940  0.00  0.00    +0.035 HD
ATOM     51  H   UNL     1     146.381 167.272 187.752  0.00  0.00    +0.060 HD
ATOM     52  H   UNL     1     145.098 168.984 187.185  0.00  0.00    +0.029 HD
ATOM     53  H   UNL     1     145.432 168.400 185.588  0.00  0.00    +0.029 HD
ENDROOT
BRANCH   1  54
ATOM     54  C   UNL     1     147.583 170.385 185.209  0.00  0.00    -0.062 C 
ATOM     55  H   UNL     1     147.321 170.469 184.153  0.00  0.00    +0.023 HD
ATOM     56  H   UNL     1     148.227 171.227 185.475  0.00  0.00    +0.023 HD
ATOM     57  H   UNL     1     148.173 169.468 185.315  0.00  0.00    +0.023 HD
ENDBRANCH   1  54
BRANCH  30  58
ATOM     58  C   UNL     1     147.225 166.671 184.916  0.00  0.00    -0.057 C 
ATOM     59  H   UNL     1     146.212 166.303 185.097  0.00  0.00    +0.023 HD
ATOM     60  H   UNL     1     147.116 167.501 184.211  0.00  0.00    +0.023 HD
ATOM     61  H   UNL     1     147.800 165.880 184.422  0.00  0.00    +0.023 HD
ENDBRANCH  30  58
BRANCH   9  62
ATOM     62  C   UNL     1     140.834 172.469 192.787  0.00  0.00    -0.057 C 
ATOM     63  H   UNL     1     141.103 172.809 193.792  0.00  0.00    +0.023 HD
ATOM     64  H   UNL     1     140.576 171.406 192.844  0.00  0.00    +0.023 HD
ATOM     65  H   UNL     1     139.913 172.976 192.486  0.00  0.00    +0.023 HD
ENDBRANCH   9  62
BRANCH   8  66
ATOM     66  C   UNL     1     141.129 170.627 190.462  0.00  0.00    +0.011 C 
ATOM     67  H   UNL     1     140.195 170.586 189.888  0.00  0.00    +0.033 HD
ATOM     68  H   UNL     1     140.857 170.406 191.500  0.00  0.00    +0.033 HD
BRANCH  66  69
ATOM     69  C   UNL     1     142.076 169.536 189.911  0.00  0.00    +0.064 C 
ATOM     70  H   UNL     1     142.613 169.935 189.044  0.00  0.00    +0.060 HD
BRANCH  69  71
ATOM     71  C   UNL     1     143.125 169.132 190.990  0.00  0.00    -0.017 C 
ATOM     72  H   UNL     1     143.364 170.039 191.561  0.00  0.00    +0.032 HD
BRANCH  71  73
ATOM     73  C   UNL     1     142.586 168.084 191.970  0.00  0.00    -0.060 C 
ATOM     74  H   UNL     1     141.843 167.445 191.487  0.00  0.00    +0.023 HD
ATOM     75  H   UNL     1     142.116 168.552 192.841  0.00  0.00    +0.023 HD
ATOM     76  H   UNL     1     143.383 167.424 192.328  0.00  0.00    +0.023 HD
ENDBRANCH  71  73
BRANCH  71  77
ATOM     77  C   UNL     1     144.441 168.648 190.338  0.00  0.00    -0.041 C 
ATOM     78  H   UNL     1     144.419 168.834 189.257  0.00  0.00    +0.027 HD
ATOM     79  H   UNL     1     145.265 169.248 190.744  0.00  0.00    +0.027 HD
BRANCH  77  80
ATOM     80  C   UNL     1     144.762 167.181 190.643  0.00  0.00    +0.007 C 
ATOM     81  H   UNL     1     144.296 166.857 191.578  0.00  0.00    +0.034 HD
ATOM     82  H   UNL     1     145.843 167.064 190.782  0.00  0.00    +0.034 HD
BRANCH  80  83
ATOM     83  C   UNL     1     144.389 166.231 189.516  0.00  0.00    +0.139 C 
ATOM     84  O   UNL     1     143.924 166.659 188.458  0.00  0.00    -0.297 OA
BRANCH  83  85
ATOM     85  C   UNL     1     144.751 164.756 189.698  0.00  0.00    +0.041 C 
ATOM     86  H   UNL     1     144.261 164.414 190.618  0.00  0.00    +0.040 HD
BRANCH  85  87
ATOM     87  C   UNL     1     146.268 164.697 189.873  0.00  0.00    -0.053 C 
ATOM     88  H   UNL     1     146.678 163.736 189.553  0.00  0.00    +0.024 HD
ATOM     89  H   UNL     1     146.763 165.488 189.302  0.00  0.00    +0.024 HD
ATOM     90  H   UNL     1     146.550 164.828 190.924  0.00  0.00    +0.024 HD
ENDBRANCH  85  87
BRANCH  85  91
ATOM     91  C   UNL     1     144.215 163.923 188.510  0.00  0.00    +0.074 C 
ATOM     92  H   UNL     1     143.997 164.590 187.664  0.00  0.00    +0.061 HD
BRANCH  91  93
ATOM     93  C   UNL     1     145.206 162.831 187.999  0.00  0.00    +0.003 C 
ATOM     94  H   UNL     1     146.228 163.193 188.169  0.00  0.00    +0.037 HD
BRANCH  93  95
ATOM     95  C   UNL     1     145.066 162.616 186.486  0.00  0.00    -0.057 C 
ATOM     96  H   UNL     1     146.035 162.731 185.990  0.00  0.00    +0.024 HD
ATOM     97  H   UNL     1     144.366 163.324 186.033  0.00  0.00    +0.024 HD
ATOM     98  H   UNL     1     144.700 161.605 186.270  0.00  0.00    +0.024 HD
ENDBRANCH  93  95
BRANCH  93  99
ATOM     99  C   UNL     1     145.018 161.493 188.694  0.00  0.00    -0.065 C 
ATOM    100  C   UNL     1     145.963 160.912 189.448  0.00  0.00    -0.005 C 
ATOM    101  H   UNL     1     144.049 161.031 188.527  0.00  0.00    +0.059 HD
ATOM    102  H   UNL     1     146.915 161.427 189.579  0.00  0.00    +0.078 HD
BRANCH 100 103
ATOM    103  N   UNL     1     145.878 159.700 190.113  0.00  0.00    -0.284 N 
ATOM    104  C   UNL     1     144.958 158.693 189.838  0.00  0.00    +0.206 C 
ATOM    105  O   UNL     1     144.862 157.623 190.430  0.00  0.00    -0.279 OA
ATOM    106  H   UNL     1     144.275 158.925 189.008  0.00  0.00    +0.126 HD
BRANCH 103 107
ATOM    107  C   UNL     1     146.833 159.463 191.193  0.00  0.00    +0.007 C 
ATOM    108  H   UNL     1     147.537 160.302 191.227  0.00  0.00    +0.043 HD
ATOM    109  H   UNL     1     146.342 159.381 192.166  0.00  0.00    +0.043 HD
ATOM    110  H   UNL     1     147.379 158.534 190.997  0.00  0.00    +0.043 HD
ENDBRANCH 103 107
ENDBRANCH 100 103
ENDBRANCH  93  99
ENDBRANCH  91  93
BRANCH  91 111
ATOM    111  O   UNL     1     143.011 163.262 188.950  0.00  0.00    -0.379 OA
BRANCH 111 112
ATOM    112  C   UNL     1     141.859 163.635 188.201  0.00  0.00    +0.037 C 
ATOM    113  H   UNL     1     141.969 164.682 187.906  0.00  0.00    +0.052 HD
ATOM    114  H   UNL     1     141.771 163.028 187.296  0.00  0.00    +0.052 HD
ATOM    115  H   UNL     1     140.954 163.537 188.809  0.00  0.00    +0.052 HD
ENDBRANCH 111 112
ENDBRANCH  91 111
ENDBRANCH  85  91
ENDBRANCH  83  85
ENDBRANCH  80  83
ENDBRANCH  77  80
ENDBRANCH  71  77
ENDBRANCH  69  71
BRANCH  69 116
ATOM    116  O   UNL     1     141.287 168.401 189.539  0.00  0.00    -0.379 OA
BRANCH 116 117
ATOM    117  C   UNL     1     140.832 168.450 188.190  0.00  0.00    +0.037 C 
ATOM    118  H   UNL     1     141.665 168.185 187.532  0.00  0.00    +0.052 HD
ATOM    119  H   UNL     1     140.486 169.456 187.930  0.00  0.00    +0.052 HD
ATOM    120  H   UNL     1     140.023 167.731 188.043  0.00  0.00    +0.052 HD
ENDBRANCH 116 117
ENDBRANCH  69 116
ENDBRANCH  66  69
ENDBRANCH   8  66
BRANCH  31 121
ATOM    121  O   UNL     1     147.714 168.813 187.982  0.00  0.00    -0.391 OA
ATOM    122  H   UNL     1     148.092 169.529 187.424  0.00  0.00    +0.210 HD
ENDBRANCH  31 121
BRANCH  29 123
ATOM    123  O   UNL     1     149.178 165.026 186.025  0.00  0.00    -0.373 OA
BRANCH 123 124
ATOM    124  C   UNL     1     148.824 163.653 186.113  0.00  0.00    +0.037 C 
ATOM    125  H   UNL     1     148.656 163.411 187.166  0.00  0.00    +0.052 HD
ATOM    126  H   UNL     1     147.907 163.448 185.556  0.00  0.00    +0.052 HD
ATOM    127  H   UNL     1     149.640 163.028 185.742  0.00  0.00    +0.052 HD
ENDBRANCH 123 124
ENDBRANCH  29 123
BRANCH  10 128
ATOM    128  O   UNL     1     142.217 174.821 193.028  0.00  0.00    -0.379 OA
BRANCH 128 129
ATOM    129  C   UNL     1     141.995 176.224 193.062  0.00  0.00    +0.037 C 
ATOM    130  H   UNL     1     141.474 176.519 193.976  0.00  0.00    +0.052 HD
ATOM    131  H   UNL     1     141.365 176.488 192.208  0.00  0.00    +0.052 HD
ATOM    132  H   UNL     1     142.941 176.766 192.974  0.00  0.00    +0.052 HD
ENDBRANCH 128 129
ENDBRANCH  10 128
BRANCH   3 133
ATOM    133  O   UNL     1     142.960 171.982 185.288  0.00  0.00    -0.447 OA
BRANCH 133 134
ATOM    134  C   UNL     1     142.260 171.266 184.379  0.00  0.00    +0.398 C 
ATOM    135  O   UNL     1     142.373 171.320 183.167  0.00  0.00    -0.227 OA
ATOM    136  N   UNL     1     141.378 170.463 185.012  0.00  0.00    -0.295 N 
ATOM    137  H   UNL     1     141.368 170.431 186.019  0.00  0.00    +0.148 HD
ATOM    138  H   UNL     1     140.797 169.844 184.466  0.00  0.00    +0.148 HD
ENDBRANCH 133 134
ENDBRANCH   3 133
TORSDOF 29
ENDMDL
MODEL 9
REMARK VINA RESULT:      -4.6      3.157      8.936
REMARK  Name = Kabiramide C_conf2
REMARK  29 active torsions:
REMARK  status: ('A' for Active; 'I' for Inactive)
REMARK    1  A    between atoms: C_1  and  C_2
REMARK    2  A    between atoms: C_4  and  O_64
REMARK    3  A    between atoms: C_9  and  C_41
REMARK    4  A    between atoms: C_10  and  C_40
REMARK    5  A    between atoms: C_11  and  O_38
REMARK    6  A    between atoms: C_30  and  O_36
REMARK    7  A    between atoms: C_31  and  C_35
REMARK    8  A    between atoms: C_32  and  O_34
REMARK    9  A    between atoms: O_36  and  C_37
REMARK   10  A    between atoms: O_38  and  C_39
REMARK   11  A    between atoms: C_41  and  C_42
REMARK   12  A    between atoms: C_42  and  C_43
REMARK   13  A    between atoms: C_42  and  O_62
REMARK   14  A    between atoms: C_43  and  C_44
REMARK   15  A    between atoms: C_43  and  C_45
REMARK   16  A    between atoms: C_45  and  C_46
REMARK   17  A    between atoms: C_46  and  C_47
REMARK   18  A    between atoms: C_47  and  C_49
REMARK   19  A    between atoms: C_49  and  C_50
REMARK   20  A    between atoms: C_49  and  C_51
REMARK   21  A    between atoms: C_51  and  C_52
REMARK   22  A    between atoms: C_51  and  O_60
REMARK   23  A    between atoms: C_52  and  C_53
REMARK   24  A    between atoms: C_52  and  C_54
REMARK   25  A    between atoms: C_55  and  N_56
REMARK   26  A    between atoms: N_56  and  C_57
REMARK   27  A    between atoms: O_60  and  C_61
REMARK   28  A    between atoms: O_62  and  C_63
REMARK   29  A    between atoms: O_64  and  C_65
REMARK                            x       y       z     vdW  Elec       q    Type
REMARK                         _______ _______ _______ _____ _____    ______ ____
ROOT
ATOM      1  C   UNL     1     143.707 166.362 187.010  0.00  0.00    -0.038 C 
ATOM      2  C   UNL     1     143.461 164.932 186.485  0.00  0.00    -0.012 C 
ATOM      3  C   UNL     1     144.693 164.106 186.055  0.00  0.00    +0.115 C 
ATOM      4  C   UNL     1     145.656 163.838 187.218  0.00  0.00    +0.082 C 
ATOM      5  C   UNL     1     146.891 163.086 186.769  0.00  0.00    +0.311 C 
ATOM      6  O   UNL     1     146.935 162.287 185.844  0.00  0.00    -0.251 OA
ATOM      7  O   UNL     1     147.947 163.372 187.594  0.00  0.00    -0.461 OA
ATOM      8  C   UNL     1     149.210 162.770 187.233  0.00  0.00    +0.110 C 
ATOM      9  C   UNL     1     150.156 162.713 188.481  0.00  0.00    +0.020 C 
ATOM     10  C   UNL     1     149.646 161.714 189.579  0.00  0.00    +0.068 C 
ATOM     11  C   UNL     1     148.389 162.166 190.358  0.00  0.00    -0.008 C 
ATOM     12  C   UNL     1     148.567 163.470 191.098  0.00  0.00    -0.077 C 
ATOM     13  C   UNL     1     147.942 164.589 190.713  0.00  0.00    -0.003 C 
ATOM     14  C   UNL     1     148.124 165.858 191.315  0.00  0.00    +0.220 A 
ATOM     15  N   UNL     1     147.889 166.986 190.672  0.00  0.00    -0.205 NA
ATOM     16  C   UNL     1     148.037 167.982 191.600  0.00  0.00    +0.164 A 
ATOM     17  C   UNL     1     148.429 167.442 192.793  0.00  0.00    +0.125 A 
ATOM     18  O   UNL     1     148.516 166.087 192.627  0.00  0.00    -0.443 OA
ATOM     19  C   UNL     1     147.691 169.460 191.266  0.00  0.00    +0.250 A 
ATOM     20  N   UNL     1     147.342 169.798 190.043  0.00  0.00    -0.203 NA
ATOM     21  C   UNL     1     146.847 171.066 190.166  0.00  0.00    +0.164 A 
ATOM     22  C   UNL     1     147.037 171.519 191.444  0.00  0.00    +0.125 A 
ATOM     23  O   UNL     1     147.613 170.502 192.164  0.00  0.00    -0.442 OA
ATOM     24  C   UNL     1     146.064 171.727 189.000  0.00  0.00    +0.249 A 
ATOM     25  N   UNL     1     145.953 171.105 187.839  0.00  0.00    -0.210 NA
ATOM     26  C   UNL     1     144.937 171.756 187.187  0.00  0.00    +0.109 A 
ATOM     27  C   UNL     1     144.596 172.874 187.918  0.00  0.00    +0.118 A 
ATOM     28  O   UNL     1     145.328 172.880 189.073  0.00  0.00    -0.442 OA
ATOM     29  C   UNL     1     144.391 171.227 185.889  0.00  0.00    +0.108 C 
ATOM     30  C   UNL     1     143.735 169.798 186.005  0.00  0.00    +0.014 C 
ATOM     31  C   UNL     1     144.783 168.696 186.370  0.00  0.00    +0.061 C 
ATOM     32  C   UNL     1     144.490 167.224 185.989  0.00  0.00    -0.024 C 
ATOM     33  H   UNL     1     144.301 166.283 187.929  0.00  0.00    +0.030 HD
ATOM     34  H   UNL     1     142.760 164.990 185.640  0.00  0.00    +0.030 HD
ATOM     35  H   UNL     1     142.920 164.357 187.249  0.00  0.00    +0.030 HD
ATOM     36  H   UNL     1     145.240 164.600 185.241  0.00  0.00    +0.074 HD
ATOM     37  H   UNL     1     145.172 163.232 187.992  0.00  0.00    +0.041 HD
ATOM     38  H   UNL     1     145.979 164.785 187.658  0.00  0.00    +0.041 HD
ATOM     39  H   UNL     1     149.028 161.729 186.930  0.00  0.00    +0.074 HD
ATOM     40  H   UNL     1     150.212 163.708 188.934  0.00  0.00    +0.036 HD
ATOM     41  H   UNL     1     149.424 160.759 189.083  0.00  0.00    +0.060 HD
ATOM     42  H   UNL     1     147.525 162.210 189.687  0.00  0.00    +0.033 HD
ATOM     43  H   UNL     1     148.126 161.413 191.111  0.00  0.00    +0.033 HD
ATOM     44  H   UNL     1     149.258 163.475 191.939  0.00  0.00    +0.057 HD
ATOM     45  H   UNL     1     147.292 164.580 189.844  0.00  0.00    +0.067 HD
ATOM     46  H   UNL     1     148.652 167.826 193.777  0.00  0.00    +0.105 HD
ATOM     47  H   UNL     1     146.804 172.424 191.985  0.00  0.00    +0.105 HD
ATOM     48  H   UNL     1     143.885 173.676 187.786  0.00  0.00    +0.105 HD
ATOM     49  H   UNL     1     145.224 171.152 185.176  0.00  0.00    +0.067 HD
ATOM     50  H   UNL     1     142.977 169.853 186.797  0.00  0.00    +0.035 HD
ATOM     51  H   UNL     1     145.727 168.952 185.870  0.00  0.00    +0.060 HD
ATOM     52  H   UNL     1     145.478 166.753 185.895  0.00  0.00    +0.029 HD
ATOM     53  H   UNL     1     144.052 167.142 184.989  0.00  0.00    +0.029 HD
ENDROOT
BRANCH   1  54
ATOM     54  C   UNL     1     142.359 166.975 187.400  0.00  0.00    -0.062 C 
ATOM     55  H   UNL     1     142.456 167.658 188.247  0.00  0.00    +0.023 HD
ATOM     56  H   UNL     1     141.911 167.519 186.565  0.00  0.00    +0.023 HD
ATOM     57  H   UNL     1     141.653 166.194 187.706  0.00  0.00    +0.023 HD
ENDBRANCH   1  54
BRANCH  30  58
ATOM     58  C   UNL     1     142.998 169.479 184.692  0.00  0.00    -0.057 C 
ATOM     59  H   UNL     1     142.381 170.319 184.360  0.00  0.00    +0.023 HD
ATOM     60  H   UNL     1     143.697 169.285 183.871  0.00  0.00    +0.023 HD
ATOM     61  H   UNL     1     142.356 168.598 184.805  0.00  0.00    +0.023 HD
ENDBRANCH  30  58
BRANCH   9  62
ATOM     62  C   UNL     1     151.593 162.328 188.069  0.00  0.00    -0.057 C 
ATOM     63  H   UNL     1     151.694 162.305 186.980  0.00  0.00    +0.023 HD
ATOM     64  H   UNL     1     151.876 161.345 188.459  0.00  0.00    +0.023 HD
ATOM     65  H   UNL     1     152.334 163.025 188.471  0.00  0.00    +0.023 HD
ENDBRANCH   9  62
BRANCH   8  66
ATOM     66  C   UNL     1     149.800 163.514 186.004  0.00  0.00    +0.011 C 
ATOM     67  H   UNL     1     149.196 163.260 185.125  0.00  0.00    +0.033 HD
ATOM     68  H   UNL     1     150.802 163.116 185.808  0.00  0.00    +0.033 HD
BRANCH  66  69
ATOM     69  C   UNL     1     149.847 165.055 186.123  0.00  0.00    +0.064 C 
ATOM     70  H   UNL     1     149.216 165.367 186.962  0.00  0.00    +0.060 HD
BRANCH  69  71
ATOM     71  C   UNL     1     151.303 165.533 186.405  0.00  0.00    -0.017 C 
ATOM     72  H   UNL     1     151.703 164.893 187.204  0.00  0.00    +0.032 HD
BRANCH  71  73
ATOM     73  C   UNL     1     152.216 165.389 185.182  0.00  0.00    -0.060 C 
ATOM     74  H   UNL     1     152.788 164.459 185.230  0.00  0.00    +0.023 HD
ATOM     75  H   UNL     1     152.926 166.220 185.110  0.00  0.00    +0.023 HD
ATOM     76  H   UNL     1     151.638 165.355 184.253  0.00  0.00    +0.023 HD
ENDBRANCH  71  73
BRANCH  71  77
ATOM     77  C   UNL     1     151.322 166.985 186.936  0.00  0.00    -0.041 C 
ATOM     78  H   UNL     1     152.204 167.516 186.556  0.00  0.00    +0.027 HD
ATOM     79  H   UNL     1     150.444 167.507 186.536  0.00  0.00    +0.027 HD
BRANCH  77  80
ATOM     80  C   UNL     1     151.237 167.072 188.463  0.00  0.00    +0.007 C 
ATOM     81  H   UNL     1     150.576 166.301 188.870  0.00  0.00    +0.034 HD
ATOM     82  H   UNL     1     150.800 168.035 188.752  0.00  0.00    +0.034 HD
BRANCH  80  83
ATOM     83  C   UNL     1     152.592 167.014 189.151  0.00  0.00    +0.139 C 
ATOM     84  O   UNL     1     153.606 167.419 188.581  0.00  0.00    -0.297 OA
BRANCH  83  85
ATOM     85  C   UNL     1     152.612 166.573 190.615  0.00  0.00    +0.041 C 
ATOM     86  H   UNL     1     153.659 166.583 190.942  0.00  0.00    +0.040 HD
BRANCH  85  87
ATOM     87  C   UNL     1     152.077 165.142 190.648  0.00  0.00    -0.053 C 
ATOM     88  H   UNL     1     152.443 164.551 189.806  0.00  0.00    +0.024 HD
ATOM     89  H   UNL     1     152.365 164.634 191.574  0.00  0.00    +0.024 HD
ATOM     90  H   UNL     1     150.983 165.128 190.595  0.00  0.00    +0.024 HD
ENDBRANCH  85  87
BRANCH  85  91
ATOM     91  C   UNL     1     151.811 167.570 191.486  0.00  0.00    +0.074 C 
ATOM     92  H   UNL     1     150.739 167.341 191.412  0.00  0.00    +0.061 HD
BRANCH  91  93
ATOM     93  C   UNL     1     152.191 167.545 192.999  0.00  0.00    +0.003 C 
ATOM     94  H   UNL     1     151.851 168.484 193.451  0.00  0.00    +0.037 HD
BRANCH  93  95
ATOM     95  C   UNL     1     153.712 167.495 193.190  0.00  0.00    -0.057 C 
ATOM     96  H   UNL     1     154.213 167.300 192.236  0.00  0.00    +0.024 HD
ATOM     97  H   UNL     1     154.014 166.717 193.896  0.00  0.00    +0.024 HD
ATOM     98  H   UNL     1     154.088 168.452 193.572  0.00  0.00    +0.024 HD
ENDBRANCH  93  95
BRANCH  93  99
ATOM     99  C   UNL     1     151.575 166.371 193.741  0.00  0.00    -0.065 C 
ATOM    100  C   UNL     1     151.289 166.392 195.052  0.00  0.00    -0.005 C 
ATOM    101  H   UNL     1     151.387 165.496 193.123  0.00  0.00    +0.059 HD
ATOM    102  H   UNL     1     151.501 167.299 195.616  0.00  0.00    +0.078 HD
BRANCH 100 103
ATOM    103  N   UNL     1     150.733 165.371 195.806  0.00  0.00    -0.284 N 
ATOM    104  C   UNL     1     151.304 164.119 196.014  0.00  0.00    +0.206 C 
ATOM    105  O   UNL     1     150.813 163.203 196.665  0.00  0.00    -0.279 OA
ATOM    106  H   UNL     1     152.282 163.988 195.530  0.00  0.00    +0.126 HD
BRANCH 103 107
ATOM    107  C   UNL     1     149.438 165.633 196.429  0.00  0.00    +0.007 C 
ATOM    108  H   UNL     1     148.854 164.706 196.423  0.00  0.00    +0.043 HD
ATOM    109  H   UNL     1     149.540 165.972 197.463  0.00  0.00    +0.043 HD
ATOM    110  H   UNL     1     148.910 166.404 195.858  0.00  0.00    +0.043 HD
ENDBRANCH 103 107
ENDBRANCH 100 103
ENDBRANCH  93  99
ENDBRANCH  91  93
BRANCH  91 111
ATOM    111  O   UNL     1     152.074 168.896 190.981  0.00  0.00    -0.379 OA
BRANCH 111 112
ATOM    112  C   UNL     1     151.365 169.914 191.679  0.00  0.00    +0.037 C 
ATOM    113  H   UNL     1     150.427 169.487 192.044  0.00  0.00    +0.052 HD
ATOM    114  H   UNL     1     151.940 170.271 192.537  0.00  0.00    +0.052 HD
ATOM    115  H   UNL     1     151.130 170.749 191.010  0.00  0.00    +0.052 HD
ENDBRANCH 111 112
ENDBRANCH  91 111
ENDBRANCH  85  91
ENDBRANCH  83  85
ENDBRANCH  80  83
ENDBRANCH  77  80
ENDBRANCH  71  77
ENDBRANCH  69  71
BRANCH  69 116
ATOM    116  O   UNL     1     149.371 165.616 184.895  0.00  0.00    -0.379 OA
BRANCH 116 117
ATOM    117  C   UNL     1     148.085 166.216 185.013  0.00  0.00    +0.037 C 
ATOM    118  H   UNL     1     148.145 167.243 184.638  0.00  0.00    +0.052 HD
ATOM    119  H   UNL     1     147.760 166.244 186.057  0.00  0.00    +0.052 HD
ATOM    120  H   UNL     1     147.360 165.663 184.412  0.00  0.00    +0.052 HD
ENDBRANCH 116 117
ENDBRANCH  69 116
ENDBRANCH  66  69
ENDBRANCH   8  66
BRANCH  31 121
ATOM    121  O   UNL     1     145.021 168.693 187.776  0.00  0.00    -0.391 OA
ATOM    122  H   UNL     1     145.726 168.030 187.949  0.00  0.00    +0.210 HD
ENDBRANCH  31 121
BRANCH  29 123
ATOM    123  O   UNL     1     143.402 172.146 185.374  0.00  0.00    -0.373 OA
BRANCH 123 124
ATOM    124  C   UNL     1     143.926 173.003 184.369  0.00  0.00    +0.037 C 
ATOM    125  H   UNL     1     143.851 174.033 184.726  0.00  0.00    +0.052 HD
ATOM    126  H   UNL     1     144.976 172.777 184.170  0.00  0.00    +0.052 HD
ATOM    127  H   UNL     1     143.338 172.912 183.453  0.00  0.00    +0.052 HD
ENDBRANCH 123 124
ENDBRANCH  29 123
BRANCH  10 128
ATOM    128  O   UNL     1     150.713 161.495 190.526  0.00  0.00    -0.379 OA
BRANCH 128 129
ATOM    129  C   UNL     1     150.938 160.126 190.833  0.00  0.00    +0.037 C 
ATOM    130  H   UNL     1     150.821 159.936 191.902  0.00  0.00    +0.052 HD
ATOM    131  H   UNL     1     151.967 159.881 190.553  0.00  0.00    +0.052 HD
ATOM    132  H   UNL     1     150.262 159.486 190.258  0.00  0.00    +0.052 HD
ENDBRANCH 128 129
ENDBRANCH  10 128
BRANCH   3 133
ATOM    133  O   UNL     1     144.205 162.824 185.587  0.00  0.00    -0.447 OA
BRANCH 133 134
ATOM    134  C   UNL     1     143.219 162.263 186.324  0.00  0.00    +0.398 C 
ATOM    135  O   UNL     1     143.306 161.866 187.473  0.00  0.00    -0.227 OA
ATOM    136  N   UNL     1     142.088 162.186 185.591  0.00  0.00    -0.295 N 
ATOM    137  H   UNL     1     142.070 162.576 184.662  0.00  0.00    +0.148 HD
ATOM    138  H   UNL     1     141.253 161.811 186.014  0.00  0.00    +0.148 HD
ENDBRANCH 133 134
ENDBRANCH   3 133
TORSDOF 29
ENDMDL
MODEL 10
REMARK VINA RESULT:      -4.6      2.219      3.471
REMARK  Name = Kabiramide C_conf2
REMARK  29 active torsions:
REMARK  status: ('A' for Active; 'I' for Inactive)
REMARK    1  A    between atoms: C_1  and  C_2
REMARK    2  A    between atoms: C_4  and  O_64
REMARK    3  A    between atoms: C_9  and  C_41
REMARK    4  A    between atoms: C_10  and  C_40
REMARK    5  A    between atoms: C_11  and  O_38
REMARK    6  A    between atoms: C_30  and  O_36
REMARK    7  A    between atoms: C_31  and  C_35
REMARK    8  A    between atoms: C_32  and  O_34
REMARK    9  A    between atoms: O_36  and  C_37
REMARK   10  A    between atoms: O_38  and  C_39
REMARK   11  A    between atoms: C_41  and  C_42
REMARK   12  A    between atoms: C_42  and  C_43
REMARK   13  A    between atoms: C_42  and  O_62
REMARK   14  A    between atoms: C_43  and  C_44
REMARK   15  A    between atoms: C_43  and  C_45
REMARK   16  A    between atoms: C_45  and  C_46
REMARK   17  A    between atoms: C_46  and  C_47
REMARK   18  A    between atoms: C_47  and  C_49
REMARK   19  A    between atoms: C_49  and  C_50
REMARK   20  A    between atoms: C_49  and  C_51
REMARK   21  A    between atoms: C_51  and  C_52
REMARK   22  A    between atoms: C_51  and  O_60
REMARK   23  A    between atoms: C_52  and  C_53
REMARK   24  A    between atoms: C_52  and  C_54
REMARK   25  A    between atoms: C_55  and  N_56
REMARK   26  A    between atoms: N_56  and  C_57
REMARK   27  A    between atoms: O_60  and  C_61
REMARK   28  A    between atoms: O_62  and  C_63
REMARK   29  A    between atoms: O_64  and  C_65
REMARK                            x       y       z     vdW  Elec       q    Type
REMARK                         _______ _______ _______ _____ _____    ______ ____
ROOT
ATOM      1  C   UNL     1     146.967 169.035 186.342  0.00  0.00    -0.038 C 
ATOM      2  C   UNL     1     145.720 169.400 185.510  0.00  0.00    -0.012 C 
ATOM      3  C   UNL     1     144.368 169.491 186.251  0.00  0.00    +0.115 C 
ATOM      4  C   UNL     1     144.355 170.597 187.313  0.00  0.00    +0.082 C 
ATOM      5  C   UNL     1     143.048 170.632 188.077  0.00  0.00    +0.311 C 
ATOM      6  O   UNL     1     141.957 170.310 187.628  0.00  0.00    -0.251 OA
ATOM      7  O   UNL     1     143.245 171.147 189.332  0.00  0.00    -0.461 OA
ATOM      8  C   UNL     1     142.085 171.171 190.194  0.00  0.00    +0.110 C 
ATOM      9  C   UNL     1     142.281 172.229 191.332  0.00  0.00    +0.020 C 
ATOM     10  C   UNL     1     142.288 173.702 190.791  0.00  0.00    +0.068 C 
ATOM     11  C   UNL     1     143.544 174.109 189.984  0.00  0.00    -0.008 C 
ATOM     12  C   UNL     1     144.833 173.993 190.762  0.00  0.00    -0.077 C 
ATOM     13  C   UNL     1     145.744 173.056 190.480  0.00  0.00    -0.003 C 
ATOM     14  C   UNL     1     146.935 172.846 191.217  0.00  0.00    +0.220 A 
ATOM     15  N   UNL     1     147.562 171.685 191.232  0.00  0.00    -0.205 NA
ATOM     16  C   UNL     1     148.724 171.898 191.923  0.00  0.00    +0.164 A 
ATOM     17  C   UNL     1     148.756 173.185 192.382  0.00  0.00    +0.125 A 
ATOM     18  O   UNL     1     147.609 173.802 191.963  0.00  0.00    -0.443 OA
ATOM     19  C   UNL     1     149.820 170.799 192.028  0.00  0.00    +0.250 A 
ATOM     20  N   UNL     1     149.602 169.599 191.534  0.00  0.00    -0.203 NA
ATOM     21  C   UNL     1     150.830 168.998 191.540  0.00  0.00    +0.164 A 
ATOM     22  C   UNL     1     151.740 169.804 192.170  0.00  0.00    +0.125 A 
ATOM     23  O   UNL     1     151.095 170.964 192.522  0.00  0.00    -0.442 OA
ATOM     24  C   UNL     1     151.066 167.670 190.773  0.00  0.00    +0.249 A 
ATOM     25  N   UNL     1     150.054 167.054 190.186  0.00  0.00    -0.210 NA
ATOM     26  C   UNL     1     150.638 166.160 189.326  0.00  0.00    +0.109 A 
ATOM     27  C   UNL     1     151.995 166.146 189.566  0.00  0.00    +0.118 A 
ATOM     28  O   UNL     1     152.280 167.094 190.509  0.00  0.00    -0.442 OA
ATOM     29  C   UNL     1     149.807 165.384 188.341  0.00  0.00    +0.108 C 
ATOM     30  C   UNL     1     149.053 166.283 187.288  0.00  0.00    +0.014 C 
ATOM     31  C   UNL     1     147.969 167.191 187.958  0.00  0.00    +0.061 C 
ATOM     32  C   UNL     1     146.782 167.699 187.103  0.00  0.00    -0.024 C 
ATOM     33  H   UNL     1     147.126 169.836 187.074  0.00  0.00    +0.030 HD
ATOM     34  H   UNL     1     145.627 168.673 184.690  0.00  0.00    +0.030 HD
ATOM     35  H   UNL     1     145.893 170.359 185.005  0.00  0.00    +0.030 HD
ATOM     36  H   UNL     1     144.106 168.535 186.722  0.00  0.00    +0.074 HD
ATOM     37  H   UNL     1     144.485 171.582 186.852  0.00  0.00    +0.041 HD
ATOM     38  H   UNL     1     145.161 170.431 188.033  0.00  0.00    +0.041 HD
ATOM     39  H   UNL     1     141.218 171.502 189.604  0.00  0.00    +0.074 HD
ATOM     40  H   UNL     1     143.241 172.049 191.827  0.00  0.00    +0.036 HD
ATOM     41  H   UNL     1     141.406 173.825 190.148  0.00  0.00    +0.060 HD
ATOM     42  H   UNL     1     143.595 173.536 189.053  0.00  0.00    +0.033 HD
ATOM     43  H   UNL     1     143.461 175.156 189.670  0.00  0.00    +0.033 HD
ATOM     44  H   UNL     1     144.975 174.682 191.593  0.00  0.00    +0.057 HD
ATOM     45  H   UNL     1     145.567 172.347 189.678  0.00  0.00    +0.067 HD
ATOM     46  H   UNL     1     149.451 173.785 192.948  0.00  0.00    +0.105 HD
ATOM     47  H   UNL     1     152.795 169.751 192.392  0.00  0.00    +0.105 HD
ATOM     48  H   UNL     1     152.830 165.596 189.158  0.00  0.00    +0.105 HD
ATOM     49  H   UNL     1     149.046 164.825 188.905  0.00  0.00    +0.067 HD
ATOM     50  H   UNL     1     149.807 166.918 186.805  0.00  0.00    +0.035 HD
ATOM     51  H   UNL     1     147.521 166.623 188.785  0.00  0.00    +0.060 HD
ATOM     52  H   UNL     1     145.970 167.874 187.822  0.00  0.00    +0.029 HD
ATOM     53  H   UNL     1     146.396 166.919 186.439  0.00  0.00    +0.029 HD
ENDROOT
BRANCH   1  54
ATOM     54  C   UNL     1     148.186 169.030 185.414  0.00  0.00    -0.062 C 
ATOM     55  H   UNL     1     148.000 169.598 184.500  0.00  0.00    +0.023 HD
ATOM     56  H   UNL     1     149.066 169.446 185.909  0.00  0.00    +0.023 HD
ATOM     57  H   UNL     1     148.430 168.007 185.103  0.00  0.00    +0.023 HD
ENDBRANCH   1  54
BRANCH  30  58
ATOM     58  C   UNL     1     148.452 165.379 186.197  0.00  0.00    -0.057 C 
ATOM     59  H   UNL     1     147.628 164.773 186.583  0.00  0.00    +0.023 HD
ATOM     60  H   UNL     1     148.027 165.963 185.375  0.00  0.00    +0.023 HD
ATOM     61  H   UNL     1     149.212 164.709 185.779  0.00  0.00    +0.023 HD
ENDBRANCH  30  58
BRANCH   9  62
ATOM     62  C   UNL     1     141.188 172.088 192.413  0.00  0.00    -0.057 C 
ATOM     63  H   UNL     1     141.001 173.048 192.905  0.00  0.00    +0.023 HD
ATOM     64  H   UNL     1     141.470 171.361 193.181  0.00  0.00    +0.023 HD
ATOM     65  H   UNL     1     140.245 171.723 191.996  0.00  0.00    +0.023 HD
ENDBRANCH   9  62
BRANCH   8  66
ATOM     66  C   UNL     1     141.785 169.730 190.689  0.00  0.00    +0.011 C 
ATOM     67  H   UNL     1     141.636 169.088 189.813  0.00  0.00    +0.033 HD
ATOM     68  H   UNL     1     140.827 169.741 191.222  0.00  0.00    +0.033 HD
BRANCH  66  69
ATOM     69  C   UNL     1     142.883 169.091 191.570  0.00  0.00    +0.064 C 
ATOM     70  H   UNL     1     142.704 169.363 192.616  0.00  0.00    +0.060 HD
BRANCH  69  71
ATOM     71  C   UNL     1     142.835 167.537 191.456  0.00  0.00    -0.017 C 
ATOM     72  H   UNL     1     143.862 167.197 191.270  0.00  0.00    +0.032 HD
BRANCH  71  73
ATOM     73  C   UNL     1     142.341 166.869 192.744  0.00  0.00    -0.060 C 
ATOM     74  H   UNL     1     142.933 167.195 193.603  0.00  0.00    +0.023 HD
ATOM     75  H   UNL     1     142.406 165.778 192.682  0.00  0.00    +0.023 HD
ATOM     76  H   UNL     1     141.301 167.135 192.960  0.00  0.00    +0.023 HD
ENDBRANCH  71  73
BRANCH  71  77
ATOM     77  C   UNL     1     141.982 167.092 190.246  0.00  0.00    -0.041 C 
ATOM     78  H   UNL     1     140.915 167.147 190.494  0.00  0.00    +0.027 HD
ATOM     79  H   UNL     1     142.152 167.803 189.428  0.00  0.00    +0.027 HD
BRANCH  77  80
ATOM     80  C   UNL     1     142.360 165.704 189.718  0.00  0.00    +0.007 C 
ATOM     81  H   UNL     1     141.481 165.059 189.629  0.00  0.00    +0.034 HD
ATOM     82  H   UNL     1     143.032 165.212 190.431  0.00  0.00    +0.034 HD
BRANCH  80  83
ATOM     83  C   UNL     1     143.118 165.741 188.401  0.00  0.00    +0.139 C 
ATOM     84  O   UNL     1     143.399 166.814 187.865  0.00  0.00    -0.297 OA
BRANCH  83  85
ATOM     85  C   UNL     1     143.635 164.409 187.856  0.00  0.00    +0.041 C 
ATOM     86  H   UNL     1     143.318 164.343 186.808  0.00  0.00    +0.040 HD
BRANCH  85  87
ATOM     87  C   UNL     1     142.951 163.310 188.669  0.00  0.00    -0.053 C 
ATOM     88  H   UNL     1     143.673 162.610 189.095  0.00  0.00    +0.024 HD
ATOM     89  H   UNL     1     142.360 163.733 189.487  0.00  0.00    +0.024 HD
ATOM     90  H   UNL     1     142.270 162.722 188.044  0.00  0.00    +0.024 HD
ENDBRANCH  85  87
BRANCH  85  91
ATOM     91  C   UNL     1     145.181 164.372 187.912  0.00  0.00    +0.074 C 
ATOM     92  H   UNL     1     145.578 165.382 187.739  0.00  0.00    +0.061 HD
BRANCH  91  93
ATOM     93  C   UNL     1     145.758 163.870 189.272  0.00  0.00    +0.003 C 
ATOM     94  H   UNL     1     144.960 163.336 189.803  0.00  0.00    +0.037 HD
BRANCH  93  95
ATOM     95  C   UNL     1     146.171 165.044 190.169  0.00  0.00    -0.057 C 
ATOM     96  H   UNL     1     145.383 165.803 190.195  0.00  0.00    +0.024 HD
ATOM     97  H   UNL     1     147.092 165.522 189.824  0.00  0.00    +0.024 HD
ATOM     98  H   UNL     1     146.340 164.706 191.198  0.00  0.00    +0.024 HD
ENDBRANCH  93  95
BRANCH  93  99
ATOM     99  C   UNL     1     146.956 162.952 189.100  0.00  0.00    -0.065 C 
ATOM    100  C   UNL     1     147.048 161.741 189.669  0.00  0.00    -0.005 C 
ATOM    101  H   UNL     1     147.749 163.358 188.477  0.00  0.00    +0.059 HD
ATOM    102  H   UNL     1     146.219 161.389 190.283  0.00  0.00    +0.078 HD
BRANCH 100 103
ATOM    103  N   UNL     1     148.099 160.844 189.569  0.00  0.00    -0.284 N 
ATOM    104  C   UNL     1     148.396 160.072 188.449  0.00  0.00    +0.206 C 
ATOM    105  O   UNL     1     149.313 159.262 188.355  0.00  0.00    -0.279 OA
ATOM    106  H   UNL     1     147.718 160.236 187.600  0.00  0.00    +0.126 HD
BRANCH 103 107
ATOM    107  C   UNL     1     148.964 160.696 190.737  0.00  0.00    +0.007 C 
ATOM    108  H   UNL     1     148.849 159.679 191.130  0.00  0.00    +0.043 HD
ATOM    109  H   UNL     1     150.017 160.858 190.493  0.00  0.00    +0.043 HD
ATOM    110  H   UNL     1     148.666 161.421 191.502  0.00  0.00    +0.043 HD
ENDBRANCH 103 107
ENDBRANCH 100 103
ENDBRANCH  93  99
ENDBRANCH  91  93
BRANCH  91 111
ATOM    111  O   UNL     1     145.630 163.474 186.876  0.00  0.00    -0.379 OA
BRANCH 111 112
ATOM    112  C   UNL     1     145.101 163.787 185.592  0.00  0.00    +0.037 C 
ATOM    113  H   UNL     1     145.355 164.826 185.363  0.00  0.00    +0.052 HD
ATOM    114  H   UNL     1     145.540 163.146 184.823  0.00  0.00    +0.052 HD
ATOM    115  H   UNL     1     144.010 163.686 185.589  0.00  0.00    +0.052 HD
ENDBRANCH 111 112
ENDBRANCH  91 111
ENDBRANCH  85  91
ENDBRANCH  83  85
ENDBRANCH  80  83
ENDBRANCH  77  80
ENDBRANCH  71  77
ENDBRANCH  69  71
BRANCH  69 116
ATOM    116  O   UNL     1     144.155 169.580 191.131  0.00  0.00    -0.379 OA
BRANCH 116 117
ATOM    117  C   UNL     1     145.010 168.556 190.633  0.00  0.00    +0.037 C 
ATOM    118  H   UNL     1     144.395 167.695 190.353  0.00  0.00    +0.052 HD
ATOM    119  H   UNL     1     145.728 168.240 191.396  0.00  0.00    +0.052 HD
ATOM    120  H   UNL     1     145.541 168.913 189.747  0.00  0.00    +0.052 HD
ENDBRANCH 116 117
ENDBRANCH  69 116
ENDBRANCH  66  69
ENDBRANCH   8  66
BRANCH  31 121
ATOM    121  O   UNL     1     148.578 168.357 188.507  0.00  0.00    -0.391 OA
ATOM    122  H   UNL     1     148.892 168.904 187.752  0.00  0.00    +0.210 HD
ENDBRANCH  31 121
BRANCH  29 123
ATOM    123  O   UNL     1     150.652 164.453 187.628  0.00  0.00    -0.373 OA
BRANCH 123 124
ATOM    124  C   UNL     1     150.570 163.134 188.150  0.00  0.00    +0.037 C 
ATOM    125  H   UNL     1     150.897 162.439 187.371  0.00  0.00    +0.052 HD
ATOM    126  H   UNL     1     151.219 163.015 189.020  0.00  0.00    +0.052 HD
ATOM    127  H   UNL     1     149.536 162.896 188.412  0.00  0.00    +0.052 HD
ENDBRANCH 123 124
ENDBRANCH  29 123
BRANCH  10 128
ATOM    128  O   UNL     1     142.160 174.600 191.914  0.00  0.00    -0.379 OA
BRANCH 128 129
ATOM    129  C   UNL     1     141.624 175.872 191.576  0.00  0.00    +0.037 C 
ATOM    130  H   UNL     1     141.643 176.034 190.496  0.00  0.00    +0.052 HD
ATOM    131  H   UNL     1     142.245 176.638 192.048  0.00  0.00    +0.052 HD
ATOM    132  H   UNL     1     140.603 175.972 191.955  0.00  0.00    +0.052 HD
ENDBRANCH 128 129
ENDBRANCH  10 128
BRANCH   3 133
ATOM    133  O   UNL     1     143.362 169.823 185.262  0.00  0.00    -0.447 OA
BRANCH 133 134
ATOM    134  C   UNL     1     142.791 168.775 184.624  0.00  0.00    +0.398 C 
ATOM    135  O   UNL     1     142.937 168.469 183.454  0.00  0.00    -0.227 OA
ATOM    136  N   UNL     1     142.001 168.095 185.482  0.00  0.00    -0.295 N 
ATOM    137  H   UNL     1     141.962 168.374 186.450  0.00  0.00    +0.148 HD
ATOM    138  H   UNL     1     141.524 167.267 185.160  0.00  0.00    +0.148 HD
ENDBRANCH 133 134
ENDBRANCH   3 133
TORSDOF 29
ENDMDL
