MODEL 1
REMARK VINA RESULT:      -5.2      0.000      0.000
REMARK  Name = Kabiramide C_conf3
REMARK  29 active torsions:
REMARK  status: ('A' for Active; 'I' for Inactive)
REMARK    1  A    between atoms: C_1  and  C_2
REMARK    2  A    between atoms: C_4  and  O_64
REMARK    3  A    between atoms: C_9  and  C_41
REMARK    4  A    between atoms: C_10  and  C_40
REMARK    5  A    between atoms: C_11  and  O_38
REMARK    6  A    between atoms: C_30  and  O_36
REMARK    7  A    between atoms: C_31  and  C_35
REMARK    8  A    between atoms: C_32  and  O_34
REMARK    9  A    between atoms: O_36  and  C_37
REMARK   10  A    between atoms: O_38  and  C_39
REMARK   11  A    between atoms: C_41  and  C_42
REMARK   12  A    between atoms: C_42  and  C_43
REMARK   13  A    between atoms: C_42  and  O_62
REMARK   14  A    between atoms: C_43  and  C_44
REMARK   15  A    between atoms: C_43  and  C_45
REMARK   16  A    between atoms: C_45  and  C_46
REMARK   17  A    between atoms: C_46  and  C_47
REMARK   18  A    between atoms: C_47  and  C_49
REMARK   19  A    between atoms: C_49  and  C_50
REMARK   20  A    between atoms: C_49  and  C_51
REMARK   21  A    between atoms: C_51  and  C_52
REMARK   22  A    between atoms: C_51  and  O_60
REMARK   23  A    between atoms: C_52  and  C_53
REMARK   24  A    between atoms: C_52  and  C_54
REMARK   25  A    between atoms: C_55  and  N_56
REMARK   26  A    between atoms: N_56  and  C_57
REMARK   27  A    between atoms: O_60  and  C_61
REMARK   28  A    between atoms: O_62  and  C_63
REMARK   29  A    between atoms: O_64  and  C_65
REMARK                            x       y       z     vdW  Elec       q    Type
REMARK                         _______ _______ _______ _____ _____    ______ ____
ROOT
ATOM      1  C   UNL     1     146.912 161.097 187.719  0.00  0.00    -0.038 C 
ATOM      2  C   UNL     1     148.295 161.035 187.013  0.00  0.00    -0.012 C 
ATOM      3  C   UNL     1     149.430 160.302 187.761  0.00  0.00    +0.115 C 
ATOM      4  C   UNL     1     150.783 160.410 187.035  0.00  0.00    +0.082 C 
ATOM      5  C   UNL     1     151.562 161.696 187.201  0.00  0.00    +0.311 C 
ATOM      6  O   UNL     1     152.788 161.745 187.172  0.00  0.00    -0.251 OA
ATOM      7  O   UNL     1     150.754 162.766 187.353  0.00  0.00    -0.461 OA
ATOM      8  C   UNL     1     151.317 164.099 187.430  0.00  0.00    +0.110 C 
ATOM      9  C   UNL     1     151.115 164.561 188.916  0.00  0.00    +0.020 C 
ATOM     10  C   UNL     1     152.173 163.885 189.840  0.00  0.00    +0.068 C 
ATOM     11  C   UNL     1     151.810 163.731 191.350  0.00  0.00    -0.008 C 
ATOM     12  C   UNL     1     150.500 164.288 191.816  0.00  0.00    -0.077 C 
ATOM     13  C   UNL     1     150.340 165.141 192.842  0.00  0.00    -0.003 C 
ATOM     14  C   UNL     1     149.042 165.647 193.127  0.00  0.00    +0.220 A 
ATOM     15  N   UNL     1     147.998 165.557 192.322  0.00  0.00    -0.205 NA
ATOM     16  C   UNL     1     146.970 166.185 192.976  0.00  0.00    +0.164 A 
ATOM     17  C   UNL     1     147.407 166.642 194.184  0.00  0.00    +0.125 A 
ATOM     18  O   UNL     1     148.725 166.307 194.299  0.00  0.00    -0.443 OA
ATOM     19  C   UNL     1     145.534 166.306 192.394  0.00  0.00    +0.250 A 
ATOM     20  N   UNL     1     145.194 165.751 191.243  0.00  0.00    -0.203 NA
ATOM     21  C   UNL     1     143.864 166.042 191.102  0.00  0.00    +0.164 A 
ATOM     22  C   UNL     1     143.438 166.796 192.164  0.00  0.00    +0.125 A 
ATOM     23  O   UNL     1     144.500 166.971 193.007  0.00  0.00    -0.442 OA
ATOM     24  C   UNL     1     142.982 165.563 189.911  0.00  0.00    +0.249 A 
ATOM     25  N   UNL     1     143.430 164.791 188.940  0.00  0.00    -0.210 NA
ATOM     26  C   UNL     1     142.355 164.574 188.118  0.00  0.00    +0.109 A 
ATOM     27  C   UNL     1     141.270 165.250 188.629  0.00  0.00    +0.118 A 
ATOM     28  O   UNL     1     141.653 165.884 189.773  0.00  0.00    -0.442 OA
ATOM     29  C   UNL     1     142.418 163.736 186.871  0.00  0.00    +0.108 C 
ATOM     30  C   UNL     1     143.839 163.307 186.401  0.00  0.00    +0.014 C 
ATOM     31  C   UNL     1     144.621 162.387 187.398  0.00  0.00    +0.061 C 
ATOM     32  C   UNL     1     145.950 161.884 186.784  0.00  0.00    -0.024 C 
ATOM     33  H   UNL     1     147.027 161.662 188.655  0.00  0.00    +0.030 HD
ATOM     34  H   UNL     1     148.591 162.073 186.842  0.00  0.00    +0.030 HD
ATOM     35  H   UNL     1     148.179 160.576 186.025  0.00  0.00    +0.030 HD
ATOM     36  H   UNL     1     149.158 159.237 187.765  0.00  0.00    +0.074 HD
ATOM     37  H   UNL     1     150.662 160.224 185.963  0.00  0.00    +0.041 HD
ATOM     38  H   UNL     1     151.440 159.625 187.431  0.00  0.00    +0.041 HD
ATOM     39  H   UNL     1     152.383 164.113 187.195  0.00  0.00    +0.074 HD
ATOM     40  H   UNL     1     150.122 164.199 189.205  0.00  0.00    +0.036 HD
ATOM     41  H   UNL     1     152.363 162.871 189.471  0.00  0.00    +0.060 HD
ATOM     42  H   UNL     1     152.622 164.117 191.982  0.00  0.00    +0.033 HD
ATOM     43  H   UNL     1     151.770 162.653 191.556  0.00  0.00    +0.033 HD
ATOM     44  H   UNL     1     149.613 163.958 191.270  0.00  0.00    +0.057 HD
ATOM     45  H   UNL     1     151.172 165.486 193.438  0.00  0.00    +0.067 HD
ATOM     46  H   UNL     1     146.963 167.170 195.013  0.00  0.00    +0.105 HD
ATOM     47  H   UNL     1     142.499 167.235 192.460  0.00  0.00    +0.105 HD
ATOM     48  H   UNL     1     140.242 165.377 188.331  0.00  0.00    +0.105 HD
ATOM     49  H   UNL     1     141.983 164.366 186.080  0.00  0.00    +0.067 HD
ATOM     50  H   UNL     1     143.677 162.695 185.502  0.00  0.00    +0.035 HD
ATOM     51  H   UNL     1     144.851 162.924 188.322  0.00  0.00    +0.060 HD
ATOM     52  H   UNL     1     146.511 162.748 186.414  0.00  0.00    +0.029 HD
ATOM     53  H   UNL     1     145.716 161.255 185.914  0.00  0.00    +0.029 HD
ENDROOT
BRANCH   1  54
ATOM     54  C   UNL     1     146.386 159.702 188.061  0.00  0.00    -0.062 C 
ATOM     55  H   UNL     1     147.191 159.049 188.415  0.00  0.00    +0.023 HD
ATOM     56  H   UNL     1     145.918 159.234 187.193  0.00  0.00    +0.023 HD
ATOM     57  H   UNL     1     145.611 159.738 188.835  0.00  0.00    +0.023 HD
ENDBRANCH   1  54
BRANCH  30  58
ATOM     58  C   UNL     1     144.641 164.540 185.963  0.00  0.00    -0.057 C 
ATOM     59  H   UNL     1     144.199 165.021 185.080  0.00  0.00    +0.023 HD
ATOM     60  H   UNL     1     144.650 165.302 186.752  0.00  0.00    +0.023 HD
ATOM     61  H   UNL     1     145.681 164.285 185.720  0.00  0.00    +0.023 HD
ENDBRANCH  30  58
BRANCH   9  62
ATOM     62  C   UNL     1     151.139 166.088 189.068  0.00  0.00    -0.057 C 
ATOM     63  H   UNL     1     152.135 166.434 189.370  0.00  0.00    +0.023 HD
ATOM     64  H   UNL     1     150.415 166.431 189.817  0.00  0.00    +0.023 HD
ATOM     65  H   UNL     1     150.904 166.597 188.127  0.00  0.00    +0.023 HD
ENDBRANCH   9  62
BRANCH   8  66
ATOM     66  C   UNL     1     150.538 164.957 186.410  0.00  0.00    +0.011 C 
ATOM     67  H   UNL     1     151.078 165.004 185.458  0.00  0.00    +0.033 HD
ATOM     68  H   UNL     1     150.513 165.980 186.812  0.00  0.00    +0.033 HD
BRANCH  66  69
ATOM     69  C   UNL     1     149.070 164.587 186.077  0.00  0.00    +0.064 C 
ATOM     70  H   UNL     1     149.013 163.513 186.308  0.00  0.00    +0.060 HD
BRANCH  69  71
ATOM     71  C   UNL     1     147.996 165.285 186.963  0.00  0.00    -0.017 C 
ATOM     72  H   UNL     1     147.046 165.277 186.412  0.00  0.00    +0.032 HD
BRANCH  71  73
ATOM     73  C   UNL     1     147.778 164.610 188.322  0.00  0.00    -0.060 C 
ATOM     74  H   UNL     1     148.654 164.727 188.963  0.00  0.00    +0.023 HD
ATOM     75  H   UNL     1     147.567 163.549 188.232  0.00  0.00    +0.023 HD
ATOM     76  H   UNL     1     146.921 165.056 188.838  0.00  0.00    +0.023 HD
ENDBRANCH  71  73
BRANCH  71  77
ATOM     77  C   UNL     1     148.417 166.770 187.178  0.00  0.00    -0.041 C 
ATOM     78  H   UNL     1     149.351 166.966 186.634  0.00  0.00    +0.027 HD
ATOM     79  H   UNL     1     148.641 166.924 188.239  0.00  0.00    +0.027 HD
BRANCH  77  80
ATOM     80  C   UNL     1     147.383 167.821 186.759  0.00  0.00    +0.007 C 
ATOM     81  H   UNL     1     147.865 168.786 186.604  0.00  0.00    +0.034 HD
ATOM     82  H   UNL     1     146.952 167.507 185.803  0.00  0.00    +0.034 HD
BRANCH  80  83
ATOM     83  C   UNL     1     146.228 167.956 187.740  0.00  0.00    +0.139 C 
ATOM     84  O   UNL     1     145.373 167.070 187.858  0.00  0.00    -0.297 OA
BRANCH  83  85
ATOM     85  C   UNL     1     146.108 169.231 188.580  0.00  0.00    +0.041 C 
ATOM     86  H   UNL     1     145.051 169.521 188.544  0.00  0.00    +0.040 HD
BRANCH  85  87
ATOM     87  C   UNL     1     146.879 170.388 187.941  0.00  0.00    -0.053 C 
ATOM     88  H   UNL     1     146.286 170.855 187.149  0.00  0.00    +0.024 HD
ATOM     89  H   UNL     1     147.107 171.155 188.689  0.00  0.00    +0.024 HD
ATOM     90  H   UNL     1     147.824 170.063 187.493  0.00  0.00    +0.024 HD
ENDBRANCH  85  87
BRANCH  85  91
ATOM     91  C   UNL     1     146.500 168.997 190.058  0.00  0.00    +0.074 C 
ATOM     92  H   UNL     1     146.507 167.909 190.227  0.00  0.00    +0.061 HD
BRANCH  91  93
ATOM     93  C   UNL     1     147.900 169.565 190.437  0.00  0.00    +0.003 C 
ATOM     94  H   UNL     1     148.274 170.166 189.598  0.00  0.00    +0.037 HD
BRANCH  93  95
ATOM     95  C   UNL     1     148.925 168.466 190.739  0.00  0.00    -0.057 C 
ATOM     96  H   UNL     1     148.890 168.170 191.793  0.00  0.00    +0.024 HD
ATOM     97  H   UNL     1     148.754 167.575 190.134  0.00  0.00    +0.024 HD
ATOM     98  H   UNL     1     149.942 168.810 190.520  0.00  0.00    +0.024 HD
ENDBRANCH  93  95
BRANCH  93  99
ATOM     99  C   UNL     1     147.813 170.467 191.659  0.00  0.00    -0.065 C 
ATOM    100  C   UNL     1     148.226 171.744 191.651  0.00  0.00    -0.005 C 
ATOM    101  H   UNL     1     147.406 170.004 192.552  0.00  0.00    +0.059 HD
ATOM    102  H   UNL     1     148.638 172.150 190.725  0.00  0.00    +0.078 HD
BRANCH 100 103
ATOM    103  N   UNL     1     148.213 172.640 192.707  0.00  0.00    -0.284 N 
ATOM    104  C   UNL     1     147.090 173.282 193.212  0.00  0.00    +0.206 C 
ATOM    105  O   UNL     1     147.055 173.979 194.215  0.00  0.00    -0.279 OA
ATOM    106  H   UNL     1     146.180 173.108 192.620  0.00  0.00    +0.126 HD
BRANCH 103 107
ATOM    107  C   UNL     1     149.469 172.846 193.416  0.00  0.00    +0.007 C 
ATOM    108  H   UNL     1     150.088 171.943 193.419  0.00  0.00    +0.043 HD
ATOM    109  H   UNL     1     149.277 173.134 194.456  0.00  0.00    +0.043 HD
ATOM    110  H   UNL     1     150.017 173.644 192.905  0.00  0.00    +0.043 HD
ENDBRANCH 103 107
ENDBRANCH 100 103
ENDBRANCH  93  99
ENDBRANCH  91  93
BRANCH  91 111
ATOM    111  O   UNL     1     145.498 169.613 190.888  0.00  0.00    -0.379 OA
BRANCH 111 112
ATOM    112  C   UNL     1     144.217 169.678 190.270  0.00  0.00    +0.037 C 
ATOM    113  H   UNL     1     144.323 169.359 189.233  0.00  0.00    +0.052 HD
ATOM    114  H   UNL     1     143.519 169.004 190.774  0.00  0.00    +0.052 HD
ATOM    115  H   UNL     1     143.828 170.700 190.284  0.00  0.00    +0.052 HD
ENDBRANCH 111 112
ENDBRANCH  91 111
ENDBRANCH  85  91
ENDBRANCH  83  85
ENDBRANCH  80  83
ENDBRANCH  77  80
ENDBRANCH  71  77
ENDBRANCH  69  71
BRANCH  69 116
ATOM    116  O   UNL     1     148.772 164.791 184.696  0.00  0.00    -0.379 OA
BRANCH 116 117
ATOM    117  C   UNL     1     149.937 165.010 183.907  0.00  0.00    +0.037 C 
ATOM    118  H   UNL     1     150.443 165.905 184.278  0.00  0.00    +0.052 HD
ATOM    119  H   UNL     1     149.663 165.177 182.861  0.00  0.00    +0.052 HD
ATOM    120  H   UNL     1     150.624 164.161 183.985  0.00  0.00    +0.052 HD
ENDBRANCH 116 117
ENDBRANCH  69 116
ENDBRANCH  66  69
ENDBRANCH   8  66
BRANCH  31 121
ATOM    121  O   UNL     1     143.842 161.242 187.752  0.00  0.00    -0.391 OA
ATOM    122  H   UNL     1     143.733 160.673 186.958  0.00  0.00    +0.210 HD
ENDBRANCH  31 121
BRANCH  29 123
ATOM    123  O   UNL     1     141.584 162.572 187.038  0.00  0.00    -0.373 OA
BRANCH 123 124
ATOM    124  C   UNL     1     140.963 162.169 185.818  0.00  0.00    +0.037 C 
ATOM    125  H   UNL     1     139.914 162.469 185.812  0.00  0.00    +0.052 HD
ATOM    126  H   UNL     1     141.011 161.079 185.752  0.00  0.00    +0.052 HD
ATOM    127  H   UNL     1     141.485 162.594 184.958  0.00  0.00    +0.052 HD
ENDBRANCH 123 124
ENDBRANCH  29 123
BRANCH  10 128
ATOM    128  O   UNL     1     153.405 164.630 189.720  0.00  0.00    -0.379 OA
BRANCH 128 129
ATOM    129  C   UNL     1     154.489 163.846 189.233  0.00  0.00    +0.037 C 
ATOM    130  H   UNL     1     154.171 163.244 188.378  0.00  0.00    +0.052 HD
ATOM    131  H   UNL     1     154.899 163.205 190.016  0.00  0.00    +0.052 HD
ATOM    132  H   UNL     1     155.274 164.527 188.907  0.00  0.00    +0.052 HD
ENDBRANCH 128 129
ENDBRANCH  10 128
BRANCH   3 133
ATOM    133  O   UNL     1     149.507 160.769 189.120  0.00  0.00    -0.447 OA
BRANCH 133 134
ATOM    134  C   UNL     1     149.481 159.815 190.077  0.00  0.00    +0.398 C 
ATOM    135  O   UNL     1     150.099 158.761 190.061  0.00  0.00    -0.227 OA
ATOM    136  N   UNL     1     148.646 160.172 191.073  0.00  0.00    -0.295 N 
ATOM    137  H   UNL     1     148.476 159.529 191.826  0.00  0.00    +0.148 HD
ATOM    138  H   UNL     1     148.067 160.998 190.975  0.00  0.00    +0.148 HD
ENDBRANCH 133 134
ENDBRANCH   3 133
TORSDOF 29
ENDMDL
MODEL 2
REMARK VINA RESULT:      -5.0      2.430      5.974
REMARK  Name = Kabiramide C_conf3
REMARK  29 active torsions:
REMARK  status: ('A' for Active; 'I' for Inactive)
REMARK    1  A    between atoms: C_1  and  C_2
REMARK    2  A    between atoms: C_4  and  O_64
REMARK    3  A    between atoms: C_9  and  C_41
REMARK    4  A    between atoms: C_10  and  C_40
REMARK    5  A    between atoms: C_11  and  O_38
REMARK    6  A    between atoms: C_30  and  O_36
REMARK    7  A    between atoms: C_31  and  C_35
REMARK    8  A    between atoms: C_32  and  O_34
REMARK    9  A    between atoms: O_36  and  C_37
REMARK   10  A    between atoms: O_38  and  C_39
REMARK   11  A    between atoms: C_41  and  C_42
REMARK   12  A    between atoms: C_42  and  C_43
REMARK   13  A    between atoms: C_42  and  O_62
REMARK   14  A    between atoms: C_43  and  C_44
REMARK   15  A    between atoms: C_43  and  C_45
REMARK   16  A    between atoms: C_45  and  C_46
REMARK   17  A    between atoms: C_46  and  C_47
REMARK   18  A    between atoms: C_47  and  C_49
REMARK   19  A    between atoms: C_49  and  C_50
REMARK   20  A    between atoms: C_49  and  C_51
REMARK   21  A    between atoms: C_51  and  C_52
REMARK   22  A    between atoms: C_51  and  O_60
REMARK   23  A    between atoms: C_52  and  C_53
REMARK   24  A    between atoms: C_52  and  C_54
REMARK   25  A    between atoms: C_55  and  N_56
REMARK   26  A    between atoms: N_56  and  C_57
REMARK   27  A    between atoms: O_60  and  C_61
REMARK   28  A    between atoms: O_62  and  C_63
REMARK   29  A    between atoms: O_64  and  C_65
REMARK                            x       y       z     vdW  Elec       q    Type
REMARK                         _______ _______ _______ _____ _____    ______ ____
ROOT
ATOM      1  C   UNL     1     151.282 164.112 185.429  0.00  0.00    -0.038 C 
ATOM      2  C   UNL     1     152.685 163.623 185.885  0.00  0.00    -0.012 C 
ATOM      3  C   UNL     1     153.192 162.295 185.283  0.00  0.00    +0.115 C 
ATOM      4  C   UNL     1     154.530 161.840 185.895  0.00  0.00    +0.082 C 
ATOM      5  C   UNL     1     154.482 161.161 187.246  0.00  0.00    +0.311 C 
ATOM      6  O   UNL     1     155.293 160.308 187.596  0.00  0.00    -0.251 OA
ATOM      7  O   UNL     1     153.474 161.622 188.014  0.00  0.00    -0.461 OA
ATOM      8  C   UNL     1     153.326 161.159 189.379  0.00  0.00    +0.110 C 
ATOM      9  C   UNL     1     152.042 160.257 189.387  0.00  0.00    +0.020 C 
ATOM     10  C   UNL     1     152.362 158.859 188.774  0.00  0.00    +0.068 C 
ATOM     11  C   UNL     1     151.171 158.059 188.160  0.00  0.00    -0.008 C 
ATOM     12  C   UNL     1     149.803 158.660 188.247  0.00  0.00    -0.077 C 
ATOM     13  C   UNL     1     148.716 158.049 188.747  0.00  0.00    -0.003 C 
ATOM     14  C   UNL     1     147.493 158.770 188.834  0.00  0.00    +0.220 A 
ATOM     15  N   UNL     1     147.373 160.080 188.702  0.00  0.00    -0.205 NA
ATOM     16  C   UNL     1     146.040 160.348 188.876  0.00  0.00    +0.164 A 
ATOM     17  C   UNL     1     145.364 159.186 189.102  0.00  0.00    +0.125 A 
ATOM     18  O   UNL     1     146.273 158.168 189.079  0.00  0.00    -0.443 OA
ATOM     19  C   UNL     1     145.438 161.778 188.790  0.00  0.00    +0.250 A 
ATOM     20  N   UNL     1     146.174 162.832 188.479  0.00  0.00    -0.203 NA
ATOM     21  C   UNL     1     145.289 163.876 188.466  0.00  0.00    +0.164 A 
ATOM     22  C   UNL     1     144.038 163.429 188.799  0.00  0.00    +0.125 A 
ATOM     23  O   UNL     1     144.115 162.081 189.007  0.00  0.00    -0.442 OA
ATOM     24  C   UNL     1     145.669 165.343 188.106  0.00  0.00    +0.249 A 
ATOM     25  N   UNL     1     146.880 165.711 187.737  0.00  0.00    -0.210 NA
ATOM     26  C   UNL     1     146.795 167.055 187.482  0.00  0.00    +0.109 A 
ATOM     27  C   UNL     1     145.503 167.465 187.724  0.00  0.00    +0.118 A 
ATOM     28  O   UNL     1     144.772 166.384 188.121  0.00  0.00    -0.442 OA
ATOM     29  C   UNL     1     147.960 167.891 187.029  0.00  0.00    +0.108 C 
ATOM     30  C   UNL     1     149.359 167.211 187.090  0.00  0.00    +0.014 C 
ATOM     31  C   UNL     1     149.534 165.960 186.165  0.00  0.00    +0.061 C 
ATOM     32  C   UNL     1     150.995 165.449 186.171  0.00  0.00    -0.024 C 
ATOM     33  H   UNL     1     150.538 163.370 185.749  0.00  0.00    +0.030 HD
ATOM     34  H   UNL     1     152.630 163.526 186.972  0.00  0.00    +0.030 HD
ATOM     35  H   UNL     1     153.427 164.403 185.677  0.00  0.00    +0.030 HD
ATOM     36  H   UNL     1     153.384 162.493 184.219  0.00  0.00    +0.074 HD
ATOM     37  H   UNL     1     155.228 162.680 185.963  0.00  0.00    +0.041 HD
ATOM     38  H   UNL     1     154.974 161.099 185.218  0.00  0.00    +0.041 HD
ATOM     39  H   UNL     1     154.181 160.565 189.710  0.00  0.00    +0.074 HD
ATOM     40  H   UNL     1     151.323 160.763 188.734  0.00  0.00    +0.036 HD
ATOM     41  H   UNL     1     153.088 158.990 187.964  0.00  0.00    +0.060 HD
ATOM     42  H   UNL     1     151.151 157.035 188.558  0.00  0.00    +0.033 HD
ATOM     43  H   UNL     1     151.386 157.950 187.088  0.00  0.00    +0.033 HD
ATOM     44  H   UNL     1     149.698 159.678 187.861  0.00  0.00    +0.057 HD
ATOM     45  H   UNL     1     148.747 157.036 189.120  0.00  0.00    +0.067 HD
ATOM     46  H   UNL     1     144.335 158.916 189.280  0.00  0.00    +0.105 HD
ATOM     47  H   UNL     1     143.068 163.888 188.909  0.00  0.00    +0.105 HD
ATOM     48  H   UNL     1     144.979 168.406 187.670  0.00  0.00    +0.105 HD
ATOM     49  H   UNL     1     147.979 168.752 187.715  0.00  0.00    +0.067 HD
ATOM     50  H   UNL     1     150.065 167.962 186.706  0.00  0.00    +0.035 HD
ATOM     51  H   UNL     1     148.883 165.145 186.490  0.00  0.00    +0.060 HD
ATOM     52  H   UNL     1     151.308 165.304 187.209  0.00  0.00    +0.029 HD
ATOM     53  H   UNL     1     151.639 166.230 185.745  0.00  0.00    +0.029 HD
ENDROOT
BRANCH   1  54
ATOM     54  C   UNL     1     151.197 164.255 183.909  0.00  0.00    -0.062 C 
ATOM     55  H   UNL     1     150.393 164.940 183.618  0.00  0.00    +0.023 HD
ATOM     56  H   UNL     1     151.017 163.289 183.432  0.00  0.00    +0.023 HD
ATOM     57  H   UNL     1     152.134 164.629 183.483  0.00  0.00    +0.023 HD
ENDBRANCH   1  54
BRANCH  30  58
ATOM     58  C   UNL     1     149.748 166.940 188.550  0.00  0.00    -0.057 C 
ATOM     59  H   UNL     1     148.944 167.219 189.244  0.00  0.00    +0.023 HD
ATOM     60  H   UNL     1     149.934 165.871 188.714  0.00  0.00    +0.023 HD
ATOM     61  H   UNL     1     150.650 167.493 188.842  0.00  0.00    +0.023 HD
ENDBRANCH  30  58
BRANCH   9  62
ATOM     62  C   UNL     1     151.422 160.123 190.784  0.00  0.00    -0.057 C 
ATOM     63  H   UNL     1     151.519 161.061 191.344  0.00  0.00    +0.023 HD
ATOM     64  H   UNL     1     151.901 159.326 191.365  0.00  0.00    +0.023 HD
ATOM     65  H   UNL     1     150.352 159.897 190.737  0.00  0.00    +0.023 HD
ENDBRANCH   9  62
BRANCH   8  66
ATOM     66  C   UNL     1     153.191 162.425 190.254  0.00  0.00    +0.011 C 
ATOM     67  H   UNL     1     154.159 162.691 190.693  0.00  0.00    +0.033 HD
ATOM     68  H   UNL     1     152.524 162.162 191.088  0.00  0.00    +0.033 HD
BRANCH  66  69
ATOM     69  C   UNL     1     152.610 163.718 189.626  0.00  0.00    +0.064 C 
ATOM     70  H   UNL     1     152.536 163.477 188.554  0.00  0.00    +0.060 HD
BRANCH  69  71
ATOM     71  C   UNL     1     151.172 164.091 190.092  0.00  0.00    -0.017 C 
ATOM     72  H   UNL     1     151.039 165.171 189.946  0.00  0.00    +0.032 HD
BRANCH  71  73
ATOM     73  C   UNL     1     150.063 163.355 189.333  0.00  0.00    -0.060 C 
ATOM     74  H   UNL     1     149.195 163.184 189.973  0.00  0.00    +0.023 HD
ATOM     75  H   UNL     1     150.388 162.394 188.946  0.00  0.00    +0.023 HD
ATOM     76  H   UNL     1     149.734 163.943 188.471  0.00  0.00    +0.023 HD
ENDBRANCH  71  73
BRANCH  71  77
ATOM     77  C   UNL     1     151.050 163.790 191.617  0.00  0.00    -0.041 C 
ATOM     78  H   UNL     1     151.912 164.224 192.143  0.00  0.00    +0.027 HD
ATOM     79  H   UNL     1     151.111 162.708 191.770  0.00  0.00    +0.027 HD
BRANCH  77  80
ATOM     80  C   UNL     1     149.769 164.292 192.292  0.00  0.00    +0.007 C 
ATOM     81  H   UNL     1     149.235 164.976 191.632  0.00  0.00    +0.034 HD
ATOM     82  H   UNL     1     149.121 163.428 192.470  0.00  0.00    +0.034 HD
BRANCH  80  83
ATOM     83  C   UNL     1     150.016 164.944 193.645  0.00  0.00    +0.139 C 
ATOM     84  O   UNL     1     150.480 164.304 194.596  0.00  0.00    -0.297 OA
BRANCH  83  85
ATOM     85  C   UNL     1     149.655 166.420 193.838  0.00  0.00    +0.041 C 
ATOM     86  H   UNL     1     150.450 166.849 194.460  0.00  0.00    +0.040 HD
BRANCH  85  87
ATOM     87  C   UNL     1     148.366 166.572 194.649  0.00  0.00    -0.053 C 
ATOM     88  H   UNL     1     147.559 165.981 194.203  0.00  0.00    +0.024 HD
ATOM     89  H   UNL     1     148.515 166.221 195.675  0.00  0.00    +0.024 HD
ATOM     90  H   UNL     1     148.022 167.611 194.695  0.00  0.00    +0.024 HD
ENDBRANCH  85  87
BRANCH  85  91
ATOM     91  C   UNL     1     149.612 167.193 192.499  0.00  0.00    +0.074 C 
ATOM     92  H   UNL     1     149.657 166.447 191.690  0.00  0.00    +0.061 HD
BRANCH  91  93
ATOM     93  C   UNL     1     148.327 168.052 192.308  0.00  0.00    +0.003 C 
ATOM     94  H   UNL     1     147.771 168.068 193.254  0.00  0.00    +0.037 HD
BRANCH  93  95
ATOM     95  C   UNL     1     147.403 167.506 191.213  0.00  0.00    -0.057 C 
ATOM     96  H   UNL     1     146.526 168.148 191.078  0.00  0.00    +0.024 HD
ATOM     97  H   UNL     1     147.915 167.429 190.252  0.00  0.00    +0.024 HD
ATOM     98  H   UNL     1     147.050 166.500 191.467  0.00  0.00    +0.024 HD
ENDBRANCH  93  95
BRANCH  93  99
ATOM     99  C   UNL     1     148.678 169.487 191.944  0.00  0.00    -0.065 C 
ATOM    100  C   UNL     1     148.274 170.541 192.672  0.00  0.00    -0.005 C 
ATOM    101  H   UNL     1     149.267 169.610 191.042  0.00  0.00    +0.059 HD
ATOM    102  H   UNL     1     147.672 170.355 193.564  0.00  0.00    +0.078 HD
BRANCH 100 103
ATOM    103  N   UNL     1     148.517 171.881 192.420  0.00  0.00    -0.284 N 
ATOM    104  C   UNL     1     148.577 172.472 191.165  0.00  0.00    +0.206 C 
ATOM    105  O   UNL     1     148.673 173.670 190.943  0.00  0.00    -0.279 OA
ATOM    106  H   UNL     1     148.524 171.752 190.336  0.00  0.00    +0.126 HD
BRANCH 103 107
ATOM    107  C   UNL     1     148.615 172.765 193.575  0.00  0.00    +0.007 C 
ATOM    108  H   UNL     1     149.491 173.418 193.514  0.00  0.00    +0.043 HD
ATOM    109  H   UNL     1     148.688 172.178 194.498  0.00  0.00    +0.043 HD
ATOM    110  H   UNL     1     147.715 173.386 193.600  0.00  0.00    +0.043 HD
ENDBRANCH 103 107
ENDBRANCH 100 103
ENDBRANCH  93  99
ENDBRANCH  91  93
BRANCH  91 111
ATOM    111  O   UNL     1     150.768 168.048 192.440  0.00  0.00    -0.379 OA
BRANCH 111 112
ATOM    112  C   UNL     1     151.845 167.489 191.695  0.00  0.00    +0.037 C 
ATOM    113  H   UNL     1     151.824 167.918 190.693  0.00  0.00    +0.052 HD
ATOM    114  H   UNL     1     152.800 167.740 192.164  0.00  0.00    +0.052 HD
ATOM    115  H   UNL     1     151.742 166.403 191.613  0.00  0.00    +0.052 HD
ENDBRANCH 111 112
ENDBRANCH  91 111
ENDBRANCH  85  91
ENDBRANCH  83  85
ENDBRANCH  80  83
ENDBRANCH  77  80
ENDBRANCH  71  77
ENDBRANCH  69  71
BRANCH  69 116
ATOM    116  O   UNL     1     153.485 164.832 189.801  0.00  0.00    -0.379 OA
BRANCH 116 117
ATOM    117  C   UNL     1     154.642 164.760 188.973  0.00  0.00    +0.037 C 
ATOM    118  H   UNL     1     154.347 164.360 188.001  0.00  0.00    +0.052 HD
ATOM    119  H   UNL     1     155.384 164.087 189.413  0.00  0.00    +0.052 HD
ATOM    120  H   UNL     1     155.077 165.755 188.826  0.00  0.00    +0.052 HD
ENDBRANCH 116 117
ENDBRANCH  69 116
ENDBRANCH  66  69
ENDBRANCH   8  66
BRANCH  31 121
ATOM    121  O   UNL     1     149.185 166.274 184.814  0.00  0.00    -0.391 OA
ATOM    122  H   UNL     1     148.206 166.321 184.742  0.00  0.00    +0.210 HD
ENDBRANCH  31 121
BRANCH  29 123
ATOM    123  O   UNL     1     147.706 168.375 185.695  0.00  0.00    -0.373 OA
BRANCH 123 124
ATOM    124  C   UNL     1     147.989 169.767 185.560  0.00  0.00    +0.037 C 
ATOM    125  H   UNL     1     148.713 169.929 184.760  0.00  0.00    +0.052 HD
ATOM    126  H   UNL     1     148.426 170.121 186.497  0.00  0.00    +0.052 HD
ATOM    127  H   UNL     1     147.075 170.332 185.366  0.00  0.00    +0.052 HD
ENDBRANCH 123 124
ENDBRANCH  29 123
BRANCH  10 128
ATOM    128  O   UNL     1     152.993 158.062 189.801  0.00  0.00    -0.379 OA
BRANCH 128 129
ATOM    129  C   UNL     1     153.262 156.727 189.386  0.00  0.00    +0.037 C 
ATOM    130  H   UNL     1     152.495 156.047 189.764  0.00  0.00    +0.052 HD
ATOM    131  H   UNL     1     154.251 156.401 189.714  0.00  0.00    +0.052 HD
ATOM    132  H   UNL     1     153.242 156.704 188.297  0.00  0.00    +0.052 HD
ENDBRANCH 128 129
ENDBRANCH  10 128
BRANCH   3 133
ATOM    133  O   UNL     1     152.175 161.282 185.394  0.00  0.00    -0.447 OA
BRANCH 133 134
ATOM    134  C   UNL     1     152.082 160.420 184.359  0.00  0.00    +0.398 C 
ATOM    135  O   UNL     1     151.949 160.718 183.181  0.00  0.00    -0.227 OA
ATOM    136  N   UNL     1     152.135 159.147 184.802  0.00  0.00    -0.295 N 
ATOM    137  H   UNL     1     152.013 158.394 184.148  0.00  0.00    +0.148 HD
ATOM    138  H   UNL     1     152.121 158.959 185.797  0.00  0.00    +0.148 HD
ENDBRANCH 133 134
ENDBRANCH   3 133
TORSDOF 29
ENDMDL
MODEL 3
REMARK VINA RESULT:      -5.0      2.634      6.017
REMARK  Name = Kabiramide C_conf3
REMARK  29 active torsions:
REMARK  status: ('A' for Active; 'I' for Inactive)
REMARK    1  A    between atoms: C_1  and  C_2
REMARK    2  A    between atoms: C_4  and  O_64
REMARK    3  A    between atoms: C_9  and  C_41
REMARK    4  A    between atoms: C_10  and  C_40
REMARK    5  A    between atoms: C_11  and  O_38
REMARK    6  A    between atoms: C_30  and  O_36
REMARK    7  A    between atoms: C_31  and  C_35
REMARK    8  A    between atoms: C_32  and  O_34
REMARK    9  A    between atoms: O_36  and  C_37
REMARK   10  A    between atoms: O_38  and  C_39
REMARK   11  A    between atoms: C_41  and  C_42
REMARK   12  A    between atoms: C_42  and  C_43
REMARK   13  A    between atoms: C_42  and  O_62
REMARK   14  A    between atoms: C_43  and  C_44
REMARK   15  A    between atoms: C_43  and  C_45
REMARK   16  A    between atoms: C_45  and  C_46
REMARK   17  A    between atoms: C_46  and  C_47
REMARK   18  A    between atoms: C_47  and  C_49
REMARK   19  A    between atoms: C_49  and  C_50
REMARK   20  A    between atoms: C_49  and  C_51
REMARK   21  A    between atoms: C_51  and  C_52
REMARK   22  A    between atoms: C_51  and  O_60
REMARK   23  A    between atoms: C_52  and  C_53
REMARK   24  A    between atoms: C_52  and  C_54
REMARK   25  A    between atoms: C_55  and  N_56
REMARK   26  A    between atoms: N_56  and  C_57
REMARK   27  A    between atoms: O_60  and  C_61
REMARK   28  A    between atoms: O_62  and  C_63
REMARK   29  A    between atoms: O_64  and  C_65
REMARK                            x       y       z     vdW  Elec       q    Type
REMARK                         _______ _______ _______ _____ _____    ______ ____
ROOT
ATOM      1  C   UNL     1     150.860 164.800 184.993  0.00  0.00    -0.038 C 
ATOM      2  C   UNL     1     152.342 165.254 185.099  0.00  0.00    -0.012 C 
ATOM      3  C   UNL     1     153.391 164.395 184.360  0.00  0.00    +0.115 C 
ATOM      4  C   UNL     1     154.834 164.857 184.634  0.00  0.00    +0.082 C 
ATOM      5  C   UNL     1     155.466 164.430 185.941  0.00  0.00    +0.311 C 
ATOM      6  O   UNL     1     156.672 164.237 186.071  0.00  0.00    -0.251 OA
ATOM      7  O   UNL     1     154.560 164.316 186.933  0.00  0.00    -0.461 OA
ATOM      8  C   UNL     1     154.990 164.009 188.283  0.00  0.00    +0.110 C 
ATOM      9  C   UNL     1     154.504 162.544 188.562  0.00  0.00    +0.020 C 
ATOM     10  C   UNL     1     155.443 161.520 187.854  0.00  0.00    +0.068 C 
ATOM     11  C   UNL     1     154.845 160.121 187.510  0.00  0.00    -0.008 C 
ATOM     12  C   UNL     1     153.435 159.839 187.927  0.00  0.00    -0.077 C 
ATOM     13  C   UNL     1     153.034 158.778 188.648  0.00  0.00    -0.003 C 
ATOM     14  C   UNL     1     151.670 158.677 189.035  0.00  0.00    +0.220 A 
ATOM     15  N   UNL     1     150.787 159.659 188.970  0.00  0.00    -0.205 NA
ATOM     16  C   UNL     1     149.616 159.136 189.454  0.00  0.00    +0.164 A 
ATOM     17  C   UNL     1     149.805 157.830 189.800  0.00  0.00    +0.125 A 
ATOM     18  O   UNL     1     151.108 157.519 189.539  0.00  0.00    -0.443 OA
ATOM     19  C   UNL     1     148.294 159.946 189.549  0.00  0.00    +0.250 A 
ATOM     20  N   UNL     1     148.199 161.189 189.106  0.00  0.00    -0.203 NA
ATOM     21  C   UNL     1     146.892 161.532 189.325  0.00  0.00    +0.164 A 
ATOM     22  C   UNL     1     146.233 160.492 189.927  0.00  0.00    +0.125 A 
ATOM     23  O   UNL     1     147.120 159.462 190.074  0.00  0.00    -0.442 OA
ATOM     24  C   UNL     1     146.266 162.901 188.929  0.00  0.00    +0.249 A 
ATOM     25  N   UNL     1     146.932 163.850 188.299  0.00  0.00    -0.210 NA
ATOM     26  C   UNL     1     146.032 164.866 188.108  0.00  0.00    +0.109 A 
ATOM     27  C   UNL     1     144.825 164.490 188.653  0.00  0.00    +0.118 A 
ATOM     28  O   UNL     1     144.957 163.238 189.178  0.00  0.00    -0.442 OA
ATOM     29  C   UNL     1     146.372 166.160 187.421  0.00  0.00    +0.108 C 
ATOM     30  C   UNL     1     147.882 166.412 187.139  0.00  0.00    +0.014 C 
ATOM     31  C   UNL     1     148.558 165.390 186.164  0.00  0.00    +0.061 C 
ATOM     32  C   UNL     1     150.008 165.807 185.818  0.00  0.00    -0.024 C 
ATOM     33  H   UNL     1     150.770 163.807 185.457  0.00  0.00    +0.030 HD
ATOM     34  H   UNL     1     152.577 165.266 186.166  0.00  0.00    +0.030 HD
ATOM     35  H   UNL     1     152.432 166.288 184.747  0.00  0.00    +0.030 HD
ATOM     36  H   UNL     1     153.210 164.545 183.287  0.00  0.00    +0.074 HD
ATOM     37  H   UNL     1     154.911 165.947 184.562  0.00  0.00    +0.041 HD
ATOM     38  H   UNL     1     155.477 164.432 183.853  0.00  0.00    +0.041 HD
ATOM     39  H   UNL     1     156.076 164.051 188.391  0.00  0.00    +0.074 HD
ATOM     40  H   UNL     1     153.510 162.472 188.107  0.00  0.00    +0.036 HD
ATOM     41  H   UNL     1     155.775 161.949 186.902  0.00  0.00    +0.060 HD
ATOM     42  H   UNL     1     155.505 159.320 187.874  0.00  0.00    +0.033 HD
ATOM     43  H   UNL     1     154.859 160.033 186.415  0.00  0.00    +0.033 HD
ATOM     44  H   UNL     1     152.682 160.563 187.604  0.00  0.00    +0.057 HD
ATOM     45  H   UNL     1     153.723 158.014 188.976  0.00  0.00    +0.067 HD
ATOM     46  H   UNL     1     149.186 157.044 190.202  0.00  0.00    +0.105 HD
ATOM     47  H   UNL     1     145.225 160.324 190.271  0.00  0.00    +0.105 HD
ATOM     48  H   UNL     1     143.854 164.950 188.747  0.00  0.00    +0.105 HD
ATOM     49  H   UNL     1     146.027 166.949 188.107  0.00  0.00    +0.067 HD
ATOM     50  H   UNL     1     147.924 167.382 186.622  0.00  0.00    +0.035 HD
ATOM     51  H   UNL     1     148.585 164.391 186.608  0.00  0.00    +0.060 HD
ATOM     52  H   UNL     1     150.551 165.985 186.752  0.00  0.00    +0.029 HD
ATOM     53  H   UNL     1     149.975 166.763 185.277  0.00  0.00    +0.029 HD
ENDROOT
BRANCH   1  54
ATOM     54  C   UNL     1     150.400 164.696 183.539  0.00  0.00    -0.062 C 
ATOM     55  H   UNL     1     149.791 163.800 183.377  0.00  0.00    +0.023 HD
ATOM     56  H   UNL     1     151.253 164.663 182.858  0.00  0.00    +0.023 HD
ATOM     57  H   UNL     1     149.810 165.569 183.236  0.00  0.00    +0.023 HD
ENDBRANCH   1  54
BRANCH  30  58
ATOM     58  C   UNL     1     148.643 166.578 188.461  0.00  0.00    -0.057 C 
ATOM     59  H   UNL     1     148.188 165.991 189.269  0.00  0.00    +0.023 HD
ATOM     60  H   UNL     1     149.675 166.216 188.367  0.00  0.00    +0.023 HD
ATOM     61  H   UNL     1     148.676 167.626 188.785  0.00  0.00    +0.023 HD
ENDBRANCH  30  58
BRANCH   9  62
ATOM     62  C   UNL     1     154.377 162.239 190.061  0.00  0.00    -0.057 C 
ATOM     63  H   UNL     1     153.395 161.809 190.289  0.00  0.00    +0.023 HD
ATOM     64  H   UNL     1     154.506 163.142 190.669  0.00  0.00    +0.023 HD
ATOM     65  H   UNL     1     155.123 161.509 190.394  0.00  0.00    +0.023 HD
ENDBRANCH   9  62
BRANCH   8  66
ATOM     66  C   UNL     1     154.327 165.061 189.199  0.00  0.00    +0.011 C 
ATOM     67  H   UNL     1     155.037 165.857 189.444  0.00  0.00    +0.033 HD
ATOM     68  H   UNL     1     154.084 164.549 190.141  0.00  0.00    +0.033 HD
BRANCH  66  69
ATOM     69  C   UNL     1     153.019 165.751 188.732  0.00  0.00    +0.064 C 
ATOM     70  H   UNL     1     152.967 165.512 187.659  0.00  0.00    +0.060 HD
BRANCH  69  71
ATOM     71  C   UNL     1     151.713 165.192 189.371  0.00  0.00    -0.017 C 
ATOM     72  H   UNL     1     150.933 165.959 189.269  0.00  0.00    +0.032 HD
BRANCH  71  73
ATOM     73  C   UNL     1     151.211 163.896 188.724  0.00  0.00    -0.060 C 
ATOM     74  H   UNL     1     151.907 163.074 188.901  0.00  0.00    +0.023 HD
ATOM     75  H   UNL     1     151.071 163.992 187.651  0.00  0.00    +0.023 HD
ATOM     76  H   UNL     1     150.240 163.611 189.142  0.00  0.00    +0.023 HD
ENDBRANCH  71  73
BRANCH  71  77
ATOM     77  C   UNL     1     151.964 164.955 190.890  0.00  0.00    -0.041 C 
ATOM     78  H   UNL     1     152.103 165.923 191.392  0.00  0.00    +0.027 HD
ATOM     79  H   UNL     1     152.905 164.409 191.012  0.00  0.00    +0.027 HD
BRANCH  77  80
ATOM     80  C   UNL     1     150.869 164.180 191.631  0.00  0.00    +0.007 C 
ATOM     81  H   UNL     1     149.953 164.160 191.041  0.00  0.00    +0.034 HD
ATOM     82  H   UNL     1     151.209 163.147 191.752  0.00  0.00    +0.034 HD
BRANCH  80  83
ATOM     83  C   UNL     1     150.589 164.718 193.027  0.00  0.00    +0.139 C 
ATOM     84  O   UNL     1     149.909 164.081 193.840  0.00  0.00    -0.297 OA
BRANCH  83  85
ATOM     85  C   UNL     1     151.141 166.091 193.422  0.00  0.00    +0.041 C 
ATOM     86  H   UNL     1     152.016 166.263 192.784  0.00  0.00    +0.040 HD
BRANCH  85  87
ATOM     87  C   UNL     1     151.669 166.081 194.859  0.00  0.00    -0.053 C 
ATOM     88  H   UNL     1     151.854 165.056 195.194  0.00  0.00    +0.024 HD
ATOM     89  H   UNL     1     152.612 166.633 194.923  0.00  0.00    +0.024 HD
ATOM     90  H   UNL     1     150.965 166.534 195.566  0.00  0.00    +0.024 HD
ENDBRANCH  85  87
BRANCH  85  91
ATOM     91  C   UNL     1     150.122 167.227 193.170  0.00  0.00    +0.074 C 
ATOM     92  H   UNL     1     150.135 167.881 194.055  0.00  0.00    +0.061 HD
BRANCH  91  93
ATOM     93  C   UNL     1     150.437 168.090 191.912  0.00  0.00    +0.003 C 
ATOM     94  H   UNL     1     150.360 167.454 191.021  0.00  0.00    +0.037 HD
BRANCH  93  95
ATOM     95  C   UNL     1     151.842 168.703 191.949  0.00  0.00    -0.057 C 
ATOM     96  H   UNL     1     152.612 167.939 191.801  0.00  0.00    +0.024 HD
ATOM     97  H   UNL     1     151.971 169.465 191.178  0.00  0.00    +0.024 HD
ATOM     98  H   UNL     1     152.030 169.190 192.913  0.00  0.00    +0.024 HD
ENDBRANCH  93  95
BRANCH  93  99
ATOM     99  C   UNL     1     149.438 169.228 191.765  0.00  0.00    -0.065 C 
ATOM    100  C   UNL     1     149.778 170.518 191.919  0.00  0.00    -0.005 C 
ATOM    101  H   UNL     1     148.420 168.929 191.541  0.00  0.00    +0.059 HD
ATOM    102  H   UNL     1     150.817 170.756 192.156  0.00  0.00    +0.078 HD
BRANCH 100 103
ATOM    103  N   UNL     1     148.949 171.623 191.829  0.00  0.00    -0.284 N 
ATOM    104  C   UNL     1     149.155 172.845 192.455  0.00  0.00    +0.206 C 
ATOM    105  O   UNL     1     148.491 173.857 192.285  0.00  0.00    -0.279 OA
ATOM    106  H   UNL     1     150.006 172.846 193.150  0.00  0.00    +0.126 HD
BRANCH 103 107
ATOM    107  C   UNL     1     147.816 171.529 190.916  0.00  0.00    +0.007 C 
ATOM    108  H   UNL     1     148.094 171.807 189.894  0.00  0.00    +0.043 HD
ATOM    109  H   UNL     1     147.007 172.190 191.243  0.00  0.00    +0.043 HD
ATOM    110  H   UNL     1     147.471 170.491 190.915  0.00  0.00    +0.043 HD
ENDBRANCH 103 107
ENDBRANCH 100 103
ENDBRANCH  93  99
ENDBRANCH  91  93
BRANCH  91 111
ATOM    111  O   UNL     1     148.819 166.632 193.022  0.00  0.00    -0.379 OA
BRANCH 111 112
ATOM    112  C   UNL     1     147.924 166.966 194.078  0.00  0.00    +0.037 C 
ATOM    113  H   UNL     1     147.475 166.044 194.447  0.00  0.00    +0.052 HD
ATOM    114  H   UNL     1     148.468 167.444 194.897  0.00  0.00    +0.052 HD
ATOM    115  H   UNL     1     147.128 167.625 193.722  0.00  0.00    +0.052 HD
ENDBRANCH 111 112
ENDBRANCH  91 111
ENDBRANCH  85  91
ENDBRANCH  83  85
ENDBRANCH  80  83
ENDBRANCH  77  80
ENDBRANCH  71  77
ENDBRANCH  69  71
BRANCH  69 116
ATOM    116  O   UNL     1     153.078 167.167 188.900  0.00  0.00    -0.379 OA
BRANCH 116 117
ATOM    117  C   UNL     1     151.991 167.842 188.274  0.00  0.00    +0.037 C 
ATOM    118  H   UNL     1     151.729 167.303 187.361  0.00  0.00    +0.052 HD
ATOM    119  H   UNL     1     152.281 168.861 188.003  0.00  0.00    +0.052 HD
ATOM    120  H   UNL     1     151.116 167.863 188.933  0.00  0.00    +0.052 HD
ENDBRANCH 116 117
ENDBRANCH  69 116
ENDBRANCH  66  69
ENDBRANCH   8  66
BRANCH  31 121
ATOM    121  O   UNL     1     147.826 165.294 184.940  0.00  0.00    -0.391 OA
ATOM    122  H   UNL     1     147.153 166.010 184.914  0.00  0.00    +0.210 HD
ENDBRANCH  31 121
BRANCH  29 123
ATOM    123  O   UNL     1     145.620 166.258 186.196  0.00  0.00    -0.373 OA
BRANCH 123 124
ATOM    124  C   UNL     1     145.007 167.537 186.036  0.00  0.00    +0.037 C 
ATOM    125  H   UNL     1     145.037 167.843 184.989  0.00  0.00    +0.052 HD
ATOM    126  H   UNL     1     145.573 168.265 186.625  0.00  0.00    +0.052 HD
ATOM    127  H   UNL     1     143.977 167.522 186.398  0.00  0.00    +0.052 HD
ENDBRANCH 123 124
ENDBRANCH  29 123
BRANCH  10 128
ATOM    128  O   UNL     1     156.612 161.347 188.685  0.00  0.00    -0.379 OA
BRANCH 128 129
ATOM    129  C   UNL     1     157.834 161.458 187.962  0.00  0.00    +0.037 C 
ATOM    130  H   UNL     1     158.664 161.063 188.553  0.00  0.00    +0.052 HD
ATOM    131  H   UNL     1     158.033 162.492 187.674  0.00  0.00    +0.052 HD
ATOM    132  H   UNL     1     157.740 160.865 187.053  0.00  0.00    +0.052 HD
ENDBRANCH 128 129
ENDBRANCH  10 128
BRANCH   3 133
ATOM    133  O   UNL     1     153.200 163.004 184.676  0.00  0.00    -0.447 OA
BRANCH 133 134
ATOM    134  C   UNL     1     153.442 162.130 183.674  0.00  0.00    +0.398 C 
ATOM    135  O   UNL     1     152.881 162.103 182.589  0.00  0.00    -0.227 OA
ATOM    136  N   UNL     1     154.397 161.250 184.040  0.00  0.00    -0.295 N 
ATOM    137  H   UNL     1     154.636 160.499 183.417  0.00  0.00    +0.148 HD
ATOM    138  H   UNL     1     154.738 161.243 184.993  0.00  0.00    +0.148 HD
ENDBRANCH 133 134
ENDBRANCH   3 133
TORSDOF 29
ENDMDL
MODEL 4
REMARK VINA RESULT:      -4.9      1.277      1.704
REMARK  Name = Kabiramide C_conf3
REMARK  29 active torsions:
REMARK  status: ('A' for Active; 'I' for Inactive)
REMARK    1  A    between atoms: C_1  and  C_2
REMARK    2  A    between atoms: C_4  and  O_64
REMARK    3  A    between atoms: C_9  and  C_41
REMARK    4  A    between atoms: C_10  and  C_40
REMARK    5  A    between atoms: C_11  and  O_38
REMARK    6  A    between atoms: C_30  and  O_36
REMARK    7  A    between atoms: C_31  and  C_35
REMARK    8  A    between atoms: C_32  and  O_34
REMARK    9  A    between atoms: O_36  and  C_37
REMARK   10  A    between atoms: O_38  and  C_39
REMARK   11  A    between atoms: C_41  and  C_42
REMARK   12  A    between atoms: C_42  and  C_43
REMARK   13  A    between atoms: C_42  and  O_62
REMARK   14  A    between atoms: C_43  and  C_44
REMARK   15  A    between atoms: C_43  and  C_45
REMARK   16  A    between atoms: C_45  and  C_46
REMARK   17  A    between atoms: C_46  and  C_47
REMARK   18  A    between atoms: C_47  and  C_49
REMARK   19  A    between atoms: C_49  and  C_50
REMARK   20  A    between atoms: C_49  and  C_51
REMARK   21  A    between atoms: C_51  and  C_52
REMARK   22  A    between atoms: C_51  and  O_60
REMARK   23  A    between atoms: C_52  and  C_53
REMARK   24  A    between atoms: C_52  and  C_54
REMARK   25  A    between atoms: C_55  and  N_56
REMARK   26  A    between atoms: N_56  and  C_57
REMARK   27  A    between atoms: O_60  and  C_61
REMARK   28  A    between atoms: O_62  and  C_63
REMARK   29  A    between atoms: O_64  and  C_65
REMARK                            x       y       z     vdW  Elec       q    Type
REMARK                         _______ _______ _______ _____ _____    ______ ____
ROOT
ATOM      1  C   UNL     1     146.786 160.955 187.660  0.00  0.00    -0.038 C 
ATOM      2  C   UNL     1     148.168 160.764 186.976  0.00  0.00    -0.012 C 
ATOM      3  C   UNL     1     149.221 159.936 187.745  0.00  0.00    +0.115 C 
ATOM      4  C   UNL     1     150.589 159.916 187.038  0.00  0.00    +0.082 C 
ATOM      5  C   UNL     1     151.479 161.128 187.209  0.00  0.00    +0.311 C 
ATOM      6  O   UNL     1     152.705 161.066 187.198  0.00  0.00    -0.251 OA
ATOM      7  O   UNL     1     150.769 162.268 187.342  0.00  0.00    -0.461 OA
ATOM      8  C   UNL     1     151.449 163.545 187.420  0.00  0.00    +0.110 C 
ATOM      9  C   UNL     1     151.268 164.035 188.900  0.00  0.00    +0.020 C 
ATOM     10  C   UNL     1     152.247 163.272 189.843  0.00  0.00    +0.068 C 
ATOM     11  C   UNL     1     151.849 163.163 191.349  0.00  0.00    -0.008 C 
ATOM     12  C   UNL     1     150.589 163.839 191.792  0.00  0.00    -0.077 C 
ATOM     13  C   UNL     1     150.491 164.711 192.810  0.00  0.00    -0.003 C 
ATOM     14  C   UNL     1     149.240 165.334 193.072  0.00  0.00    +0.220 A 
ATOM     15  N   UNL     1     148.204 165.333 192.252  0.00  0.00    -0.205 NA
ATOM     16  C   UNL     1     147.228 166.055 192.887  0.00  0.00    +0.164 A 
ATOM     17  C   UNL     1     147.687 166.479 194.099  0.00  0.00    +0.125 A 
ATOM     18  O   UNL     1     148.968 166.028 194.236  0.00  0.00    -0.443 OA
ATOM     19  C   UNL     1     145.818 166.302 192.283  0.00  0.00    +0.250 A 
ATOM     20  N   UNL     1     145.446 165.771 191.130  0.00  0.00    -0.203 NA
ATOM     21  C   UNL     1     144.150 166.180 190.968  0.00  0.00    +0.164 A 
ATOM     22  C   UNL     1     143.778 166.977 192.018  0.00  0.00    +0.125 A 
ATOM     23  O   UNL     1     144.839 167.062 192.876  0.00  0.00    -0.442 OA
ATOM     24  C   UNL     1     143.246 165.774 189.766  0.00  0.00    +0.249 A 
ATOM     25  N   UNL     1     143.636 164.957 188.807  0.00  0.00    -0.210 NA
ATOM     26  C   UNL     1     142.557 164.832 187.970  0.00  0.00    +0.109 A 
ATOM     27  C   UNL     1     141.531 165.607 188.460  0.00  0.00    +0.118 A 
ATOM     28  O   UNL     1     141.953 166.213 189.606  0.00  0.00    -0.442 OA
ATOM     29  C   UNL     1     142.562 163.983 186.729  0.00  0.00    +0.108 C 
ATOM     30  C   UNL     1     143.946 163.424 186.283  0.00  0.00    +0.014 C 
ATOM     31  C   UNL     1     144.627 162.444 187.297  0.00  0.00    +0.061 C 
ATOM     32  C   UNL     1     145.914 161.819 186.706  0.00  0.00    -0.024 C 
ATOM     33  H   UNL     1     146.939 161.515 188.594  0.00  0.00    +0.030 HD
ATOM     34  H   UNL     1     148.560 161.769 186.803  0.00  0.00    +0.030 HD
ATOM     35  H   UNL     1     148.025 160.310 185.989  0.00  0.00    +0.030 HD
ATOM     36  H   UNL     1     148.854 158.901 187.751  0.00  0.00    +0.074 HD
ATOM     37  H   UNL     1     150.467 159.734 185.966  0.00  0.00    +0.041 HD
ATOM     38  H   UNL     1     151.166 159.078 187.449  0.00  0.00    +0.041 HD
ATOM     39  H   UNL     1     152.515 163.461 187.200  0.00  0.00    +0.074 HD
ATOM     40  H   UNL     1     150.242 163.766 189.176  0.00  0.00    +0.036 HD
ATOM     41  H   UNL     1     152.349 162.242 189.483  0.00  0.00    +0.060 HD
ATOM     42  H   UNL     1     152.684 163.479 191.990  0.00  0.00    +0.033 HD
ATOM     43  H   UNL     1     151.709 162.094 191.560  0.00  0.00    +0.033 HD
ATOM     44  H   UNL     1     149.683 163.586 191.234  0.00  0.00    +0.057 HD
ATOM     45  H   UNL     1     151.343 164.984 193.416  0.00  0.00    +0.067 HD
ATOM     46  H   UNL     1     147.281 167.051 194.918  0.00  0.00    +0.105 HD
ATOM     47  H   UNL     1     142.878 167.502 192.298  0.00  0.00    +0.105 HD
ATOM     48  H   UNL     1     140.522 165.825 188.146  0.00  0.00    +0.105 HD
ATOM     49  H   UNL     1     142.198 164.644 185.927  0.00  0.00    +0.067 HD
ATOM     50  H   UNL     1     143.741 162.823 185.386  0.00  0.00    +0.035 HD
ATOM     51  H   UNL     1     144.891 162.966 188.221  0.00  0.00    +0.060 HD
ATOM     52  H   UNL     1     146.555 162.626 186.339  0.00  0.00    +0.029 HD
ATOM     53  H   UNL     1     145.636 161.207 185.836  0.00  0.00    +0.029 HD
ENDROOT
BRANCH   1  54
ATOM     54  C   UNL     1     146.132 159.616 188.003  0.00  0.00    -0.062 C 
ATOM     55  H   UNL     1     145.116 159.555 187.599  0.00  0.00    +0.023 HD
ATOM     56  H   UNL     1     146.084 159.466 189.083  0.00  0.00    +0.023 HD
ATOM     57  H   UNL     1     146.707 158.770 187.609  0.00  0.00    +0.023 HD
ENDBRANCH   1  54
BRANCH  30  58
ATOM     58  C   UNL     1     144.862 164.576 185.849  0.00  0.00    -0.057 C 
ATOM     59  H   UNL     1     144.605 165.515 186.359  0.00  0.00    +0.023 HD
ATOM     60  H   UNL     1     145.907 164.364 186.111  0.00  0.00    +0.023 HD
ATOM     61  H   UNL     1     144.809 164.755 184.768  0.00  0.00    +0.023 HD
ENDBRANCH  30  58
BRANCH   9  62
ATOM     62  C   UNL     1     151.428 165.554 189.043  0.00  0.00    -0.057 C 
ATOM     63  H   UNL     1     152.211 165.797 189.770  0.00  0.00    +0.023 HD
ATOM     64  H   UNL     1     150.496 166.029 189.372  0.00  0.00    +0.023 HD
ATOM     65  H   UNL     1     151.721 166.026 188.099  0.00  0.00    +0.023 HD
ENDBRANCH   9  62
BRANCH   8  66
ATOM     66  C   UNL     1     150.766 164.463 186.383  0.00  0.00    +0.011 C 
ATOM     67  H   UNL     1     151.332 164.469 185.445  0.00  0.00    +0.033 HD
ATOM     68  H   UNL     1     150.809 165.484 186.788  0.00  0.00    +0.033 HD
BRANCH  66  69
ATOM     69  C   UNL     1     149.282 164.208 186.011  0.00  0.00    +0.064 C 
ATOM     70  H   UNL     1     149.058 163.239 186.482  0.00  0.00    +0.060 HD
BRANCH  69  71
ATOM     71  C   UNL     1     148.267 165.231 186.601  0.00  0.00    -0.017 C 
ATOM     72  H   UNL     1     147.391 165.258 185.940  0.00  0.00    +0.032 HD
BRANCH  71  73
ATOM     73  C   UNL     1     147.797 164.889 188.020  0.00  0.00    -0.060 C 
ATOM     74  H   UNL     1     148.590 165.064 188.749  0.00  0.00    +0.023 HD
ATOM     75  H   UNL     1     147.475 163.856 188.116  0.00  0.00    +0.023 HD
ATOM     76  H   UNL     1     146.940 165.511 188.299  0.00  0.00    +0.023 HD
ENDBRANCH  71  73
BRANCH  71  77
ATOM     77  C   UNL     1     148.924 166.644 186.595  0.00  0.00    -0.041 C 
ATOM     78  H   UNL     1     150.004 166.543 186.419  0.00  0.00    +0.027 HD
ATOM     79  H   UNL     1     148.816 167.089 187.590  0.00  0.00    +0.027 HD
BRANCH  77  80
ATOM     80  C   UNL     1     148.358 167.634 185.571  0.00  0.00    +0.007 C 
ATOM     81  H   UNL     1     149.139 167.954 184.881  0.00  0.00    +0.034 HD
ATOM     82  H   UNL     1     147.591 167.116 184.988  0.00  0.00    +0.034 HD
BRANCH  80  83
ATOM     83  C   UNL     1     147.686 168.841 186.208  0.00  0.00    +0.139 C 
ATOM     84  O   UNL     1     147.840 169.981 185.754  0.00  0.00    -0.297 OA
BRANCH  83  85
ATOM     85  C   UNL     1     146.821 168.642 187.456  0.00  0.00    +0.041 C 
ATOM     86  H   UNL     1     147.228 167.764 187.972  0.00  0.00    +0.040 HD
BRANCH  85  87
ATOM     87  C   UNL     1     145.384 168.273 187.079  0.00  0.00    -0.053 C 
ATOM     88  H   UNL     1     145.236 168.358 185.997  0.00  0.00    +0.024 HD
ATOM     89  H   UNL     1     145.164 167.242 187.371  0.00  0.00    +0.024 HD
ATOM     90  H   UNL     1     144.646 168.924 187.561  0.00  0.00    +0.024 HD
ENDBRANCH  85  87
BRANCH  85  91
ATOM     91  C   UNL     1     146.893 169.850 188.418  0.00  0.00    +0.074 C 
ATOM     92  H   UNL     1     147.757 170.461 188.113  0.00  0.00    +0.061 HD
BRANCH  91  93
ATOM     93  C   UNL     1     145.621 170.749 188.400  0.00  0.00    +0.003 C 
ATOM     94  H   UNL     1     144.758 170.130 188.122  0.00  0.00    +0.037 HD
BRANCH  93  95
ATOM     95  C   UNL     1     145.727 171.908 187.402  0.00  0.00    -0.057 C 
ATOM     96  H   UNL     1     146.765 172.232 187.279  0.00  0.00    +0.024 HD
ATOM     97  H   UNL     1     145.342 171.632 186.418  0.00  0.00    +0.024 HD
ATOM     98  H   UNL     1     145.142 172.770 187.741  0.00  0.00    +0.024 HD
ENDBRANCH  93  95
BRANCH  93  99
ATOM     99  C   UNL     1     145.351 171.344 189.774  0.00  0.00    -0.065 C 
ATOM    100  C   UNL     1     145.377 172.665 190.011  0.00  0.00    -0.005 C 
ATOM    101  H   UNL     1     145.149 170.627 190.562  0.00  0.00    +0.059 HD
ATOM    102  H   UNL     1     145.598 173.337 189.180  0.00  0.00    +0.078 HD
BRANCH 100 103
ATOM    103  N   UNL     1     145.169 173.307 191.221  0.00  0.00    -0.284 N 
ATOM    104  C   UNL     1     144.027 174.011 191.580  0.00  0.00    +0.206 C 
ATOM    105  O   UNL     1     143.792 174.476 192.685  0.00  0.00    -0.279 OA
ATOM    106  H   UNL     1     143.304 174.125 190.759  0.00  0.00    +0.126 HD
BRANCH 103 107
ATOM    107  C   UNL     1     146.194 173.140 192.244  0.00  0.00    +0.007 C 
ATOM    108  H   UNL     1     147.193 173.040 191.806  0.00  0.00    +0.043 HD
ATOM    109  H   UNL     1     145.991 172.246 192.844  0.00  0.00    +0.043 HD
ATOM    110  H   UNL     1     146.178 174.028 192.883  0.00  0.00    +0.043 HD
ENDBRANCH 103 107
ENDBRANCH 100 103
ENDBRANCH  93  99
ENDBRANCH  91  93
BRANCH  91 111
ATOM    111  O   UNL     1     147.099 169.347 189.751  0.00  0.00    -0.379 OA
BRANCH 111 112
ATOM    112  C   UNL     1     148.029 168.271 189.810  0.00  0.00    +0.037 C 
ATOM    113  H   UNL     1     148.405 168.091 188.802  0.00  0.00    +0.052 HD
ATOM    114  H   UNL     1     148.871 168.534 190.456  0.00  0.00    +0.052 HD
ATOM    115  H   UNL     1     147.549 167.358 190.172  0.00  0.00    +0.052 HD
ENDBRANCH 111 112
ENDBRANCH  91 111
ENDBRANCH  85  91
ENDBRANCH  83  85
ENDBRANCH  80  83
ENDBRANCH  77  80
ENDBRANCH  71  77
ENDBRANCH  69  71
BRANCH  69 116
ATOM    116  O   UNL     1     149.101 164.100 184.599  0.00  0.00    -0.379 OA
BRANCH 116 117
ATOM    117  C   UNL     1     149.508 162.836 184.085  0.00  0.00    +0.037 C 
ATOM    118  H   UNL     1     150.594 162.757 184.182  0.00  0.00    +0.052 HD
ATOM    119  H   UNL     1     149.248 162.753 183.026  0.00  0.00    +0.052 HD
ATOM    120  H   UNL     1     149.045 162.020 184.651  0.00  0.00    +0.052 HD
ENDBRANCH 116 117
ENDBRANCH  69 116
ENDBRANCH  66  69
ENDBRANCH   8  66
BRANCH  31 121
ATOM    121  O   UNL     1     143.742 161.377 187.646  0.00  0.00    -0.391 OA
ATOM    122  H   UNL     1     144.026 160.562 187.177  0.00  0.00    +0.210 HD
ENDBRANCH  31 121
BRANCH  29 123
ATOM    123  O   UNL     1     141.624 162.901 186.890  0.00  0.00    -0.373 OA
BRANCH 123 124
ATOM    124  C   UNL     1     140.983 162.550 185.664  0.00  0.00    +0.037 C 
ATOM    125  H   UNL     1     141.643 161.930 185.057  0.00  0.00    +0.052 HD
ATOM    126  H   UNL     1     140.771 163.470 185.113  0.00  0.00    +0.052 HD
ATOM    127  H   UNL     1     140.041 162.032 185.853  0.00  0.00    +0.052 HD
ENDBRANCH 123 124
ENDBRANCH  29 123
BRANCH  10 128
ATOM    128  O   UNL     1     153.543 163.902 189.737  0.00  0.00    -0.379 OA
BRANCH 128 129
ATOM    129  C   UNL     1     154.590 162.983 189.447  0.00  0.00    +0.037 C 
ATOM    130  H   UNL     1     155.071 163.239 188.500  0.00  0.00    +0.052 HD
ATOM    131  H   UNL     1     154.222 161.956 189.420  0.00  0.00    +0.052 HD
ATOM    132  H   UNL     1     155.330 163.056 190.244  0.00  0.00    +0.052 HD
ENDBRANCH 128 129
ENDBRANCH  10 128
BRANCH   3 133
ATOM    133  O   UNL     1     149.321 160.404 189.102  0.00  0.00    -0.447 OA
BRANCH 133 134
ATOM    134  C   UNL     1     149.400 159.449 190.054  0.00  0.00    +0.398 C 
ATOM    135  O   UNL     1     149.019 158.292 189.949  0.00  0.00    -0.227 OA
ATOM    136  N   UNL     1     149.950 159.951 191.179  0.00  0.00    -0.295 N 
ATOM    137  H   UNL     1     150.014 159.369 191.995  0.00  0.00    +0.148 HD
ATOM    138  H   UNL     1     150.133 160.944 191.250  0.00  0.00    +0.148 HD
ENDBRANCH 133 134
ENDBRANCH   3 133
TORSDOF 29
ENDMDL
MODEL 5
REMARK VINA RESULT:      -4.8     16.009     20.337
REMARK  Name = Kabiramide C_conf3
REMARK  29 active torsions:
REMARK  status: ('A' for Active; 'I' for Inactive)
REMARK    1  A    between atoms: C_1  and  C_2
REMARK    2  A    between atoms: C_4  and  O_64
REMARK    3  A    between atoms: C_9  and  C_41
REMARK    4  A    between atoms: C_10  and  C_40
REMARK    5  A    between atoms: C_11  and  O_38
REMARK    6  A    between atoms: C_30  and  O_36
REMARK    7  A    between atoms: C_31  and  C_35
REMARK    8  A    between atoms: C_32  and  O_34
REMARK    9  A    between atoms: O_36  and  C_37
REMARK   10  A    between atoms: O_38  and  C_39
REMARK   11  A    between atoms: C_41  and  C_42
REMARK   12  A    between atoms: C_42  and  C_43
REMARK   13  A    between atoms: C_42  and  O_62
REMARK   14  A    between atoms: C_43  and  C_44
REMARK   15  A    between atoms: C_43  and  C_45
REMARK   16  A    between atoms: C_45  and  C_46
REMARK   17  A    between atoms: C_46  and  C_47
REMARK   18  A    between atoms: C_47  and  C_49
REMARK   19  A    between atoms: C_49  and  C_50
REMARK   20  A    between atoms: C_49  and  C_51
REMARK   21  A    between atoms: C_51  and  C_52
REMARK   22  A    between atoms: C_51  and  O_60
REMARK   23  A    between atoms: C_52  and  C_53
REMARK   24  A    between atoms: C_52  and  C_54
REMARK   25  A    between atoms: C_55  and  N_56
REMARK   26  A    between atoms: N_56  and  C_57
REMARK   27  A    between atoms: O_60  and  C_61
REMARK   28  A    between atoms: O_62  and  C_63
REMARK   29  A    between atoms: O_64  and  C_65
REMARK                            x       y       z     vdW  Elec       q    Type
REMARK                         _______ _______ _______ _____ _____    ______ ____
ROOT
ATOM      1  C   UNL     1     132.424 159.195 193.405  0.00  0.00    -0.038 C 
ATOM      2  C   UNL     1     130.951 159.691 193.379  0.00  0.00    -0.012 C 
ATOM      3  C   UNL     1     130.728 161.215 193.273  0.00  0.00    +0.115 C 
ATOM      4  C   UNL     1     129.243 161.605 193.383  0.00  0.00    +0.082 C 
ATOM      5  C   UNL     1     128.637 161.655 194.769  0.00  0.00    +0.311 C 
ATOM      6  O   UNL     1     127.725 162.417 195.074  0.00  0.00    -0.251 OA
ATOM      7  O   UNL     1     129.195 160.753 195.603  0.00  0.00    -0.461 OA
ATOM      8  C   UNL     1     128.679 160.586 196.947  0.00  0.00    +0.110 C 
ATOM      9  C   UNL     1     129.780 161.170 197.901  0.00  0.00    +0.020 C 
ATOM     10  C   UNL     1     129.725 162.728 197.898  0.00  0.00    +0.068 C 
ATOM     11  C   UNL     1     131.034 163.489 198.277  0.00  0.00    -0.008 C 
ATOM     12  C   UNL     1     132.230 162.678 198.666  0.00  0.00    -0.077 C 
ATOM     13  C   UNL     1     132.941 162.833 199.796  0.00  0.00    -0.003 C 
ATOM     14  C   UNL     1     134.012 161.940 200.071  0.00  0.00    +0.220 A 
ATOM     15  N   UNL     1     134.230 160.798 199.440  0.00  0.00    -0.205 NA
ATOM     16  C   UNL     1     135.342 160.256 200.029  0.00  0.00    +0.164 A 
ATOM     17  C   UNL     1     135.793 161.089 201.011  0.00  0.00    +0.125 A 
ATOM     18  O   UNL     1     134.958 162.168 201.052  0.00  0.00    -0.443 OA
ATOM     19  C   UNL     1     135.970 158.905 199.588  0.00  0.00    +0.250 A 
ATOM     20  N   UNL     1     135.500 158.214 198.563  0.00  0.00    -0.203 NA
ATOM     21  C   UNL     1     136.330 157.130 198.471  0.00  0.00    +0.164 A 
ATOM     22  C   UNL     1     137.269 157.178 199.467  0.00  0.00    +0.125 A 
ATOM     23  O   UNL     1     137.054 158.316 200.193  0.00  0.00    -0.442 OA
ATOM     24  C   UNL     1     136.216 156.027 197.378  0.00  0.00    +0.249 A 
ATOM     25  N   UNL     1     135.325 156.058 196.405  0.00  0.00    -0.210 NA
ATOM     26  C   UNL     1     135.569 154.942 195.648  0.00  0.00    +0.109 A 
ATOM     27  C   UNL     1     136.619 154.252 196.211  0.00  0.00    +0.118 A 
ATOM     28  O   UNL     1     137.044 154.932 197.314  0.00  0.00    -0.442 OA
ATOM     29  C   UNL     1     134.777 154.579 194.422  0.00  0.00    +0.108 C 
ATOM     30  C   UNL     1     133.481 155.406 194.171  0.00  0.00    +0.014 C 
ATOM     31  C   UNL     1     133.705 156.935 193.918  0.00  0.00    +0.061 C 
ATOM     32  C   UNL     1     132.388 157.645 193.523  0.00  0.00    -0.024 C 
ATOM     33  H   UNL     1     132.908 159.601 194.304  0.00  0.00    +0.030 HD
ATOM     34  H   UNL     1     130.495 159.326 194.302  0.00  0.00    +0.030 HD
ATOM     35  H   UNL     1     130.419 159.205 192.553  0.00  0.00    +0.030 HD
ATOM     36  H   UNL     1     131.056 161.505 192.265  0.00  0.00    +0.074 HD
ATOM     37  H   UNL     1     128.624 160.945 192.767  0.00  0.00    +0.041 HD
ATOM     38  H   UNL     1     129.132 162.622 192.986  0.00  0.00    +0.041 HD
ATOM     39  H   UNL     1     127.747 161.132 197.104  0.00  0.00    +0.074 HD
ATOM     40  H   UNL     1     130.738 160.857 197.471  0.00  0.00    +0.036 HD
ATOM     41  H   UNL     1     129.460 163.067 196.891  0.00  0.00    +0.060 HD
ATOM     42  H   UNL     1     130.829 164.242 199.051  0.00  0.00    +0.033 HD
ATOM     43  H   UNL     1     131.333 164.062 197.388  0.00  0.00    +0.033 HD
ATOM     44  H   UNL     1     132.540 161.904 197.958  0.00  0.00    +0.057 HD
ATOM     45  H   UNL     1     132.703 163.595 200.524  0.00  0.00    +0.067 HD
ATOM     46  H   UNL     1     136.614 161.080 201.710  0.00  0.00    +0.105 HD
ATOM     47  H   UNL     1     138.097 156.554 199.767  0.00  0.00    +0.105 HD
ATOM     48  H   UNL     1     137.145 153.340 195.978  0.00  0.00    +0.105 HD
ATOM     49  H   UNL     1     134.476 153.531 194.575  0.00  0.00    +0.067 HD
ATOM     50  H   UNL     1     133.062 155.012 193.234  0.00  0.00    +0.035 HD
ATOM     51  H   UNL     1     134.103 157.421 194.813  0.00  0.00    +0.060 HD
ATOM     52  H   UNL     1     131.626 157.405 194.272  0.00  0.00    +0.029 HD
ATOM     53  H   UNL     1     132.042 157.229 192.566  0.00  0.00    +0.029 HD
ENDROOT
BRANCH   1  54
ATOM     54  C   UNL     1     133.205 159.672 192.180  0.00  0.00    -0.062 C 
ATOM     55  H   UNL     1     133.058 159.000 191.327  0.00  0.00    +0.023 HD
ATOM     56  H   UNL     1     134.274 159.731 192.393  0.00  0.00    +0.023 HD
ATOM     57  H   UNL     1     132.906 160.681 191.875  0.00  0.00    +0.023 HD
ENDBRANCH   1  54
BRANCH  30  58
ATOM     58  C   UNL     1     132.454 155.121 195.275  0.00  0.00    -0.057 C 
ATOM     59  H   UNL     1     132.713 155.631 196.213  0.00  0.00    +0.023 HD
ATOM     60  H   UNL     1     131.461 155.493 194.991  0.00  0.00    +0.023 HD
ATOM     61  H   UNL     1     132.370 154.048 195.487  0.00  0.00    +0.023 HD
ENDBRANCH  30  58
BRANCH   9  62
ATOM     62  C   UNL     1     129.682 160.612 199.328  0.00  0.00    -0.057 C 
ATOM     63  H   UNL     1     129.110 159.677 199.342  0.00  0.00    +0.023 HD
ATOM     64  H   UNL     1     129.195 161.323 200.007  0.00  0.00    +0.023 HD
ATOM     65  H   UNL     1     130.667 160.382 199.746  0.00  0.00    +0.023 HD
ENDBRANCH   9  62
BRANCH   8  66
ATOM     66  C   UNL     1     128.444 159.072 197.136  0.00  0.00    +0.011 C 
ATOM     67  H   UNL     1     127.383 158.831 197.013  0.00  0.00    +0.033 HD
ATOM     68  H   UNL     1     128.705 158.840 198.178  0.00  0.00    +0.033 HD
BRANCH  66  69
ATOM     69  C   UNL     1     129.238 158.070 196.258  0.00  0.00    +0.064 C 
ATOM     70  H   UNL     1     129.650 158.697 195.453  0.00  0.00    +0.060 HD
BRANCH  69  71
ATOM     71  C   UNL     1     130.455 157.398 196.958  0.00  0.00    -0.017 C 
ATOM     72  H   UNL     1     130.724 156.502 196.383  0.00  0.00    +0.032 HD
BRANCH  71  73
ATOM     73  C   UNL     1     131.690 158.301 197.059  0.00  0.00    -0.060 C 
ATOM     74  H   UNL     1     131.917 158.541 198.099  0.00  0.00    +0.023 HD
ATOM     75  H   UNL     1     131.569 159.235 196.517  0.00  0.00    +0.023 HD
ATOM     76  H   UNL     1     132.565 157.803 196.630  0.00  0.00    +0.023 HD
ENDBRANCH  71  73
BRANCH  71  77
ATOM     77  C   UNL     1     130.022 156.945 198.385  0.00  0.00    -0.041 C 
ATOM     78  H   UNL     1     129.514 155.973 198.320  0.00  0.00    +0.027 HD
ATOM     79  H   UNL     1     129.281 157.653 198.771  0.00  0.00    +0.027 HD
BRANCH  77  80
ATOM     80  C   UNL     1     131.149 156.833 199.417  0.00  0.00    +0.007 C 
ATOM     81  H   UNL     1     132.103 157.110 198.969  0.00  0.00    +0.034 HD
ATOM     82  H   UNL     1     130.941 157.543 200.223  0.00  0.00    +0.034 HD
BRANCH  80  83
ATOM     83  C   UNL     1     131.244 155.456 200.058  0.00  0.00    +0.139 C 
ATOM     84  O   UNL     1     130.325 154.634 199.964  0.00  0.00    -0.297 OA
BRANCH  83  85
ATOM     85  C   UNL     1     132.497 155.092 200.861  0.00  0.00    +0.041 C 
ATOM     86  H   UNL     1     132.224 155.196 201.917  0.00  0.00    +0.040 HD
BRANCH  85  87
ATOM     87  C   UNL     1     133.621 156.103 200.619  0.00  0.00    -0.053 C 
ATOM     88  H   UNL     1     133.952 156.543 201.566  0.00  0.00    +0.024 HD
ATOM     89  H   UNL     1     134.482 155.613 200.154  0.00  0.00    +0.024 HD
ATOM     90  H   UNL     1     133.309 156.926 199.968  0.00  0.00    +0.024 HD
ENDBRANCH  85  87
BRANCH  85  91
ATOM     91  C   UNL     1     132.946 153.632 200.615  0.00  0.00    +0.074 C 
ATOM     92  H   UNL     1     132.055 153.063 200.308  0.00  0.00    +0.061 HD
BRANCH  91  93
ATOM     93  C   UNL     1     134.032 153.483 199.509  0.00  0.00    +0.003 C 
ATOM     94  H   UNL     1     134.578 154.432 199.423  0.00  0.00    +0.037 HD
BRANCH  93  95
ATOM     95  C   UNL     1     133.441 153.139 198.137  0.00  0.00    -0.057 C 
ATOM     96  H   UNL     1     132.834 153.964 197.749  0.00  0.00    +0.024 HD
ATOM     97  H   UNL     1     134.219 152.921 197.403  0.00  0.00    +0.024 HD
ATOM     98  H   UNL     1     132.803 152.251 198.198  0.00  0.00    +0.024 HD
ENDBRANCH  93  95
BRANCH  93  99
ATOM     99  C   UNL     1     135.034 152.396 199.867  0.00  0.00    -0.065 C 
ATOM    100  C   UNL     1     135.825 151.808 198.956  0.00  0.00    -0.005 C 
ATOM    101  H   UNL     1     135.059 152.111 200.914  0.00  0.00    +0.059 HD
ATOM    102  H   UNL     1     135.746 152.129 197.916  0.00  0.00    +0.078 HD
BRANCH 100 103
ATOM    103  N   UNL     1     136.750 150.799 199.170  0.00  0.00    -0.284 N 
ATOM    104  C   UNL     1     137.473 150.596 200.338  0.00  0.00    +0.206 C 
ATOM    105  O   UNL     1     138.199 149.641 200.572  0.00  0.00    -0.279 OA
ATOM    106  H   UNL     1     137.339 151.393 201.083  0.00  0.00    +0.126 HD
BRANCH 103 107
ATOM    107  C   UNL     1     136.899 149.803 198.116  0.00  0.00    +0.007 C 
ATOM    108  H   UNL     1     137.892 149.843 197.657  0.00  0.00    +0.043 HD
ATOM    109  H   UNL     1     136.152 149.965 197.331  0.00  0.00    +0.043 HD
ATOM    110  H   UNL     1     136.759 148.815 198.564  0.00  0.00    +0.043 HD
ENDBRANCH 103 107
ENDBRANCH 100 103
ENDBRANCH  93  99
ENDBRANCH  91  93
BRANCH  91 111
ATOM    111  O   UNL     1     133.457 153.108 201.854  0.00  0.00    -0.379 OA
BRANCH 111 112
ATOM    112  C   UNL     1     132.595 153.343 202.963  0.00  0.00    +0.037 C 
ATOM    113  H   UNL     1     133.105 153.008 203.867  0.00  0.00    +0.052 HD
ATOM    114  H   UNL     1     132.381 154.411 203.056  0.00  0.00    +0.052 HD
ATOM    115  H   UNL     1     131.662 152.782 202.859  0.00  0.00    +0.052 HD
ENDBRANCH 111 112
ENDBRANCH  91 111
ENDBRANCH  85  91
ENDBRANCH  83  85
ENDBRANCH  80  83
ENDBRANCH  77  80
ENDBRANCH  71  77
ENDBRANCH  69  71
BRANCH  69 116
ATOM    116  O   UNL     1     128.388 157.072 195.692  0.00  0.00    -0.379 OA
BRANCH 116 117
ATOM    117  C   UNL     1     128.999 156.375 194.611  0.00  0.00    +0.037 C 
ATOM    118  H   UNL     1     128.215 156.031 193.934  0.00  0.00    +0.052 HD
ATOM    119  H   UNL     1     129.544 155.501 194.981  0.00  0.00    +0.052 HD
ATOM    120  H   UNL     1     129.677 157.034 194.058  0.00  0.00    +0.052 HD
ENDBRANCH 116 117
ENDBRANCH  69 116
ENDBRANCH  66  69
ENDBRANCH   8  66
BRANCH  31 121
ATOM    121  O   UNL     1     134.649 157.144 192.865  0.00  0.00    -0.391 OA
ATOM    122  H   UNL     1     135.544 157.252 193.256  0.00  0.00    +0.210 HD
ENDBRANCH  31 121
BRANCH  29 123
ATOM    123  O   UNL     1     135.634 154.645 193.266  0.00  0.00    -0.373 OA
BRANCH 123 124
ATOM    124  C   UNL     1     135.389 153.581 192.347  0.00  0.00    +0.037 C 
ATOM    125  H   UNL     1     136.199 152.851 192.390  0.00  0.00    +0.052 HD
ATOM    126  H   UNL     1     135.356 154.000 191.338  0.00  0.00    +0.052 HD
ATOM    127  H   UNL     1     134.432 153.099 192.556  0.00  0.00    +0.052 HD
ENDBRANCH 123 124
ENDBRANCH  29 123
BRANCH  10 128
ATOM    128  O   UNL     1     128.663 163.134 198.789  0.00  0.00    -0.379 OA
BRANCH 128 129
ATOM    129  C   UNL     1     127.791 164.102 198.216  0.00  0.00    +0.037 C 
ATOM    130  H   UNL     1     127.101 163.627 197.514  0.00  0.00    +0.052 HD
ATOM    131  H   UNL     1     128.351 164.896 197.718  0.00  0.00    +0.052 HD
ATOM    132  H   UNL     1     127.213 164.551 199.024  0.00  0.00    +0.052 HD
ENDBRANCH 128 129
ENDBRANCH  10 128
BRANCH   3 133
ATOM    133  O   UNL     1     131.540 161.901 194.243  0.00  0.00    -0.447 OA
BRANCH 133 134
ATOM    134  C   UNL     1     131.950 163.142 193.902  0.00  0.00    +0.398 C 
ATOM    135  O   UNL     1     132.036 164.105 194.650  0.00  0.00    -0.227 OA
ATOM    136  N   UNL     1     132.244 163.194 192.586  0.00  0.00    -0.295 N 
ATOM    137  H   UNL     1     132.502 164.074 192.176  0.00  0.00    +0.148 HD
ATOM    138  H   UNL     1     132.037 162.401 191.992  0.00  0.00    +0.148 HD
ENDBRANCH 133 134
ENDBRANCH   3 133
TORSDOF 29
ENDMDL
MODEL 6
REMARK VINA RESULT:      -4.7     16.044     20.125
REMARK  Name = Kabiramide C_conf3
REMARK  29 active torsions:
REMARK  status: ('A' for Active; 'I' for Inactive)
REMARK    1  A    between atoms: C_1  and  C_2
REMARK    2  A    between atoms: C_4  and  O_64
REMARK    3  A    between atoms: C_9  and  C_41
REMARK    4  A    between atoms: C_10  and  C_40
REMARK    5  A    between atoms: C_11  and  O_38
REMARK    6  A    between atoms: C_30  and  O_36
REMARK    7  A    between atoms: C_31  and  C_35
REMARK    8  A    between atoms: C_32  and  O_34
REMARK    9  A    between atoms: O_36  and  C_37
REMARK   10  A    between atoms: O_38  and  C_39
REMARK   11  A    between atoms: C_41  and  C_42
REMARK   12  A    between atoms: C_42  and  C_43
REMARK   13  A    between atoms: C_42  and  O_62
REMARK   14  A    between atoms: C_43  and  C_44
REMARK   15  A    between atoms: C_43  and  C_45
REMARK   16  A    between atoms: C_45  and  C_46
REMARK   17  A    between atoms: C_46  and  C_47
REMARK   18  A    between atoms: C_47  and  C_49
REMARK   19  A    between atoms: C_49  and  C_50
REMARK   20  A    between atoms: C_49  and  C_51
REMARK   21  A    between atoms: C_51  and  C_52
REMARK   22  A    between atoms: C_51  and  O_60
REMARK   23  A    between atoms: C_52  and  C_53
REMARK   24  A    between atoms: C_52  and  C_54
REMARK   25  A    between atoms: C_55  and  N_56
REMARK   26  A    between atoms: N_56  and  C_57
REMARK   27  A    between atoms: O_60  and  C_61
REMARK   28  A    between atoms: O_62  and  C_63
REMARK   29  A    between atoms: O_64  and  C_65
REMARK                            x       y       z     vdW  Elec       q    Type
REMARK                         _______ _______ _______ _____ _____    ______ ____
ROOT
ATOM      1  C   UNL     1     134.714 160.313 199.730  0.00  0.00    -0.038 C 
ATOM      2  C   UNL     1     134.427 158.984 200.482  0.00  0.00    -0.012 C 
ATOM      3  C   UNL     1     135.418 157.822 200.251  0.00  0.00    +0.115 C 
ATOM      4  C   UNL     1     134.972 156.519 200.940  0.00  0.00    +0.082 C 
ATOM      5  C   UNL     1     133.908 155.694 200.249  0.00  0.00    +0.311 C 
ATOM      6  O   UNL     1     133.842 154.472 200.342  0.00  0.00    -0.251 OA
ATOM      7  O   UNL     1     133.041 156.459 199.554  0.00  0.00    -0.461 OA
ATOM      8  C   UNL     1     131.895 155.855 198.904  0.00  0.00    +0.110 C 
ATOM      9  C   UNL     1     132.186 155.941 197.364  0.00  0.00    +0.020 C 
ATOM     10  C   UNL     1     133.209 154.841 196.946  0.00  0.00    +0.068 C 
ATOM     11  C   UNL     1     134.056 155.105 195.661  0.00  0.00    -0.008 C 
ATOM     12  C   UNL     1     133.793 156.362 194.893  0.00  0.00    -0.077 C 
ATOM     13  C   UNL     1     133.521 156.428 193.579  0.00  0.00    -0.003 C 
ATOM     14  C   UNL     1     133.218 157.688 192.995  0.00  0.00    +0.220 A 
ATOM     15  N   UNL     1     132.927 158.787 193.669  0.00  0.00    -0.205 NA
ATOM     16  C   UNL     1     132.687 159.750 192.723  0.00  0.00    +0.164 A 
ATOM     17  C   UNL     1     132.848 159.217 191.477  0.00  0.00    +0.125 A 
ATOM     18  O   UNL     1     133.187 157.905 191.630  0.00  0.00    -0.443 OA
ATOM     19  C   UNL     1     132.317 161.218 193.071  0.00  0.00    +0.250 A 
ATOM     20  N   UNL     1     132.270 161.652 194.320  0.00  0.00    -0.203 NA
ATOM     21  C   UNL     1     131.957 162.980 194.209  0.00  0.00    +0.164 A 
ATOM     22  C   UNL     1     131.792 163.310 192.890  0.00  0.00    +0.125 A 
ATOM     23  O   UNL     1     132.025 162.189 192.144  0.00  0.00    -0.442 OA
ATOM     24  C   UNL     1     131.827 163.954 195.417  0.00  0.00    +0.249 A 
ATOM     25  N   UNL     1     132.050 163.596 196.667  0.00  0.00    -0.210 NA
ATOM     26  C   UNL     1     131.864 164.731 197.413  0.00  0.00    +0.109 A 
ATOM     27  C   UNL     1     131.514 165.759 196.566  0.00  0.00    +0.118 A 
ATOM     28  O   UNL     1     131.488 165.280 195.290  0.00  0.00    -0.442 OA
ATOM     29  C   UNL     1     132.018 164.778 198.908  0.00  0.00    +0.108 C 
ATOM     30  C   UNL     1     132.166 163.405 199.627  0.00  0.00    +0.014 C 
ATOM     31  C   UNL     1     133.440 162.583 199.239  0.00  0.00    +0.061 C 
ATOM     32  C   UNL     1     133.587 161.314 200.113  0.00  0.00    -0.024 C 
ATOM     33  H   UNL     1     134.653 160.118 198.650  0.00  0.00    +0.030 HD
ATOM     34  H   UNL     1     133.429 158.671 200.169  0.00  0.00    +0.030 HD
ATOM     35  H   UNL     1     134.370 159.181 201.559  0.00  0.00    +0.030 HD
ATOM     36  H   UNL     1     136.361 158.123 200.727  0.00  0.00    +0.074 HD
ATOM     37  H   UNL     1     134.634 156.719 201.962  0.00  0.00    +0.041 HD
ATOM     38  H   UNL     1     135.846 155.859 201.008  0.00  0.00    +0.041 HD
ATOM     39  H   UNL     1     131.765 154.807 199.183  0.00  0.00    +0.074 HD
ATOM     40  H   UNL     1     132.648 156.921 197.206  0.00  0.00    +0.036 HD
ATOM     41  H   UNL     1     133.930 154.707 197.760  0.00  0.00    +0.060 HD
ATOM     42  H   UNL     1     134.005 154.240 194.985  0.00  0.00    +0.033 HD
ATOM     43  H   UNL     1     135.105 155.161 195.982  0.00  0.00    +0.033 HD
ATOM     44  H   UNL     1     133.834 157.294 195.464  0.00  0.00    +0.057 HD
ATOM     45  H   UNL     1     133.490 155.547 192.954  0.00  0.00    +0.067 HD
ATOM     46  H   UNL     1     132.773 159.588 190.467  0.00  0.00    +0.105 HD
ATOM     47  H   UNL     1     131.550 164.214 192.354  0.00  0.00    +0.105 HD
ATOM     48  H   UNL     1     131.269 166.801 196.693  0.00  0.00    +0.105 HD
ATOM     49  H   UNL     1     131.093 165.248 199.277  0.00  0.00    +0.067 HD
ATOM     50  H   UNL     1     132.286 163.646 200.693  0.00  0.00    +0.035 HD
ATOM     51  H   UNL     1     133.398 162.275 198.191  0.00  0.00    +0.060 HD
ATOM     52  H   UNL     1     132.646 160.756 200.076  0.00  0.00    +0.029 HD
ATOM     53  H   UNL     1     133.736 161.626 201.157  0.00  0.00    +0.029 HD
ENDROOT
BRANCH   1  54
ATOM     54  C   UNL     1     136.110 160.853 200.043  0.00  0.00    -0.062 C 
ATOM     55  H   UNL     1     136.418 161.609 199.312  0.00  0.00    +0.023 HD
ATOM     56  H   UNL     1     136.851 160.052 200.044  0.00  0.00    +0.023 HD
ATOM     57  H   UNL     1     136.156 161.304 201.041  0.00  0.00    +0.023 HD
ENDBRANCH   1  54
BRANCH  30  58
ATOM     58  C   UNL     1     130.866 162.600 199.496  0.00  0.00    -0.057 C 
ATOM     59  H   UNL     1     129.982 163.218 199.702  0.00  0.00    +0.023 HD
ATOM     60  H   UNL     1     130.741 162.224 198.472  0.00  0.00    +0.023 HD
ATOM     61  H   UNL     1     130.845 161.744 200.181  0.00  0.00    +0.023 HD
ENDBRANCH  30  58
BRANCH   9  62
ATOM     62  C   UNL     1     130.909 155.863 196.516  0.00  0.00    -0.057 C 
ATOM     63  H   UNL     1     130.188 155.168 196.962  0.00  0.00    +0.023 HD
ATOM     64  H   UNL     1     131.122 155.529 195.494  0.00  0.00    +0.023 HD
ATOM     65  H   UNL     1     130.405 156.833 196.446  0.00  0.00    +0.023 HD
ENDBRANCH   9  62
BRANCH   8  66
ATOM     66  C   UNL     1     130.664 156.677 199.343  0.00  0.00    +0.011 C 
ATOM     67  H   UNL     1     130.192 157.152 198.476  0.00  0.00    +0.033 HD
ATOM     68  H   UNL     1     131.039 157.487 199.985  0.00  0.00    +0.033 HD
BRANCH  66  69
ATOM     69  C   UNL     1     129.536 155.977 200.144  0.00  0.00    +0.064 C 
ATOM     70  H   UNL     1     129.346 156.665 200.981  0.00  0.00    +0.060 HD
BRANCH  69  71
ATOM     71  C   UNL     1     128.185 155.823 199.385  0.00  0.00    -0.017 C 
ATOM     72  H   UNL     1     128.247 154.919 198.765  0.00  0.00    +0.032 HD
BRANCH  71  73
ATOM     73  C   UNL     1     126.967 155.699 200.308  0.00  0.00    -0.060 C 
ATOM     74  H   UNL     1     126.165 156.368 199.991  0.00  0.00    +0.023 HD
ATOM     75  H   UNL     1     127.203 155.925 201.344  0.00  0.00    +0.023 HD
ATOM     76  H   UNL     1     126.577 154.676 200.292  0.00  0.00    +0.023 HD
ENDBRANCH  71  73
BRANCH  71  77
ATOM     77  C   UNL     1     128.002 157.048 198.440  0.00  0.00    -0.041 C 
ATOM     78  H   UNL     1     127.598 156.708 197.477  0.00  0.00    +0.027 HD
ATOM     79  H   UNL     1     128.986 157.480 198.225  0.00  0.00    +0.027 HD
BRANCH  77  80
ATOM     80  C   UNL     1     127.102 158.169 198.972  0.00  0.00    +0.007 C 
ATOM     81  H   UNL     1     126.194 158.243 198.373  0.00  0.00    +0.034 HD
ATOM     82  H   UNL     1     126.807 157.909 199.993  0.00  0.00    +0.034 HD
BRANCH  80  83
ATOM     83  C   UNL     1     127.800 159.519 199.046  0.00  0.00    +0.139 C 
ATOM     84  O   UNL     1     128.524 159.821 200.002  0.00  0.00    -0.297 OA
BRANCH  83  85
ATOM     85  C   UNL     1     127.578 160.536 197.922  0.00  0.00    +0.041 C 
ATOM     86  H   UNL     1     127.177 161.437 198.401  0.00  0.00    +0.040 HD
BRANCH  85  87
ATOM     87  C   UNL     1     126.491 160.062 196.954  0.00  0.00    -0.053 C 
ATOM     88  H   UNL     1     126.618 158.999 196.725  0.00  0.00    +0.024 HD
ATOM     89  H   UNL     1     125.499 160.196 197.397  0.00  0.00    +0.024 HD
ATOM     90  H   UNL     1     126.512 160.606 196.004  0.00  0.00    +0.024 HD
ENDBRANCH  85  87
BRANCH  85  91
ATOM     91  C   UNL     1     128.895 160.911 197.202  0.00  0.00    +0.074 C 
ATOM     92  H   UNL     1     129.513 161.470 197.921  0.00  0.00    +0.061 HD
BRANCH  91  93
ATOM     93  C   UNL     1     129.710 159.683 196.699  0.00  0.00    +0.003 C 
ATOM     94  H   UNL     1     129.224 158.767 197.059  0.00  0.00    +0.037 HD
BRANCH  93  95
ATOM     95  C   UNL     1     131.160 159.688 197.198  0.00  0.00    -0.057 C 
ATOM     96  H   UNL     1     131.829 160.151 196.465  0.00  0.00    +0.024 HD
ATOM     97  H   UNL     1     131.263 160.232 198.139  0.00  0.00    +0.024 HD
ATOM     98  H   UNL     1     131.514 158.667 197.380  0.00  0.00    +0.024 HD
ENDBRANCH  93  95
BRANCH  93  99
ATOM     99  C   UNL     1     129.743 159.633 195.179  0.00  0.00    -0.065 C 
ATOM    100  C   UNL     1     129.345 158.558 194.479  0.00  0.00    -0.005 C 
ATOM    101  H   UNL     1     130.127 160.522 194.691  0.00  0.00    +0.059 HD
ATOM    102  H   UNL     1     128.980 157.688 195.028  0.00  0.00    +0.078 HD
BRANCH 100 103
ATOM    103  N   UNL     1     129.354 158.400 193.103  0.00  0.00    -0.284 N 
ATOM    104  C   UNL     1     129.623 157.219 192.424  0.00  0.00    +0.206 C 
ATOM    105  O   UNL     1     129.517 157.048 191.219  0.00  0.00    -0.279 OA
ATOM    106  H   UNL     1     129.952 156.400 193.079  0.00  0.00    +0.126 HD
BRANCH 103 107
ATOM    107  C   UNL     1     128.944 159.547 192.302  0.00  0.00    +0.007 C 
ATOM    108  H   UNL     1     127.907 159.833 192.502  0.00  0.00    +0.043 HD
ATOM    109  H   UNL     1     129.038 159.319 191.235  0.00  0.00    +0.043 HD
ATOM    110  H   UNL     1     129.595 160.388 192.561  0.00  0.00    +0.043 HD
ENDBRANCH 103 107
ENDBRANCH 100 103
ENDBRANCH  93  99
ENDBRANCH  91  93
BRANCH  91 111
ATOM    111  O   UNL     1     128.566 161.753 196.082  0.00  0.00    -0.379 OA
BRANCH 111 112
ATOM    112  C   UNL     1     128.419 163.125 196.433  0.00  0.00    +0.037 C 
ATOM    113  H   UNL     1     128.157 163.179 197.490  0.00  0.00    +0.052 HD
ATOM    114  H   UNL     1     129.361 163.658 196.277  0.00  0.00    +0.052 HD
ATOM    115  H   UNL     1     127.622 163.594 195.850  0.00  0.00    +0.052 HD
ENDBRANCH 111 112
ENDBRANCH  91 111
ENDBRANCH  85  91
ENDBRANCH  83  85
ENDBRANCH  80  83
ENDBRANCH  77  80
ENDBRANCH  71  77
ENDBRANCH  69  71
BRANCH  69 116
ATOM    116  O   UNL     1     129.956 154.712 200.656  0.00  0.00    -0.379 OA
BRANCH 116 117
ATOM    117  C   UNL     1     130.323 154.768 202.031  0.00  0.00    +0.037 C 
ATOM    118  H   UNL     1     131.410 154.855 202.096  0.00  0.00    +0.052 HD
ATOM    119  H   UNL     1     130.018 153.852 202.544  0.00  0.00    +0.052 HD
ATOM    120  H   UNL     1     129.871 155.640 202.518  0.00  0.00    +0.052 HD
ENDBRANCH 116 117
ENDBRANCH  69 116
ENDBRANCH  66  69
ENDBRANCH   8  66
BRANCH  31 121
ATOM    121  O   UNL     1     134.623 163.368 199.405  0.00  0.00    -0.391 OA
ATOM    122  H   UNL     1     134.955 163.635 198.519  0.00  0.00    +0.210 HD
ENDBRANCH  31 121
BRANCH  29 123
ATOM    123  O   UNL     1     133.130 165.631 199.244  0.00  0.00    -0.373 OA
BRANCH 123 124
ATOM    124  C   UNL     1     132.886 166.403 200.419  0.00  0.00    +0.037 C 
ATOM    125  H   UNL     1     133.774 166.979 200.683  0.00  0.00    +0.052 HD
ATOM    126  H   UNL     1     132.662 165.717 201.240  0.00  0.00    +0.052 HD
ATOM    127  H   UNL     1     132.031 167.067 200.277  0.00  0.00    +0.052 HD
ENDBRANCH 123 124
ENDBRANCH  29 123
BRANCH  10 128
ATOM    128  O   UNL     1     132.486 153.600 196.794  0.00  0.00    -0.379 OA
BRANCH 128 129
ATOM    129  C   UNL     1     132.990 152.784 195.742  0.00  0.00    +0.037 C 
ATOM    130  H   UNL     1     134.076 152.688 195.820  0.00  0.00    +0.052 HD
ATOM    131  H   UNL     1     132.714 153.180 194.764  0.00  0.00    +0.052 HD
ATOM    132  H   UNL     1     132.544 151.794 195.844  0.00  0.00    +0.052 HD
ENDBRANCH 128 129
ENDBRANCH  10 128
BRANCH   3 133
ATOM    133  O   UNL     1     135.642 157.638 198.842  0.00  0.00    -0.447 OA
BRANCH 133 134
ATOM    134  C   UNL     1     136.731 156.913 198.505  0.00  0.00    +0.398 C 
ATOM    135  O   UNL     1     137.586 156.496 199.272  0.00  0.00    -0.227 OA
ATOM    136  N   UNL     1     136.770 156.717 197.171  0.00  0.00    -0.295 N 
ATOM    137  H   UNL     1     137.561 156.246 196.767  0.00  0.00    +0.148 HD
ATOM    138  H   UNL     1     136.104 157.189 196.572  0.00  0.00    +0.148 HD
ENDBRANCH 133 134
ENDBRANCH   3 133
TORSDOF 29
ENDMDL
MODEL 7
REMARK VINA RESULT:      -4.6      1.348      2.172
REMARK  Name = Kabiramide C_conf3
REMARK  29 active torsions:
REMARK  status: ('A' for Active; 'I' for Inactive)
REMARK    1  A    between atoms: C_1  and  C_2
REMARK    2  A    between atoms: C_4  and  O_64
REMARK    3  A    between atoms: C_9  and  C_41
REMARK    4  A    between atoms: C_10  and  C_40
REMARK    5  A    between atoms: C_11  and  O_38
REMARK    6  A    between atoms: C_30  and  O_36
REMARK    7  A    between atoms: C_31  and  C_35
REMARK    8  A    between atoms: C_32  and  O_34
REMARK    9  A    between atoms: O_36  and  C_37
REMARK   10  A    between atoms: O_38  and  C_39
REMARK   11  A    between atoms: C_41  and  C_42
REMARK   12  A    between atoms: C_42  and  C_43
REMARK   13  A    between atoms: C_42  and  O_62
REMARK   14  A    between atoms: C_43  and  C_44
REMARK   15  A    between atoms: C_43  and  C_45
REMARK   16  A    between atoms: C_45  and  C_46
REMARK   17  A    between atoms: C_46  and  C_47
REMARK   18  A    between atoms: C_47  and  C_49
REMARK   19  A    between atoms: C_49  and  C_50
REMARK   20  A    between atoms: C_49  and  C_51
REMARK   21  A    between atoms: C_51  and  C_52
REMARK   22  A    between atoms: C_51  and  O_60
REMARK   23  A    between atoms: C_52  and  C_53
REMARK   24  A    between atoms: C_52  and  C_54
REMARK   25  A    between atoms: C_55  and  N_56
REMARK   26  A    between atoms: N_56  and  C_57
REMARK   27  A    between atoms: O_60  and  C_61
REMARK   28  A    between atoms: O_62  and  C_63
REMARK   29  A    between atoms: O_64  and  C_65
REMARK                            x       y       z     vdW  Elec       q    Type
REMARK                         _______ _______ _______ _____ _____    ______ ____
ROOT
ATOM      1  C   UNL     1     146.881 160.925 187.871  0.00  0.00    -0.038 C 
ATOM      2  C   UNL     1     148.236 160.766 187.126  0.00  0.00    -0.012 C 
ATOM      3  C   UNL     1     149.336 159.950 187.841  0.00  0.00    +0.115 C 
ATOM      4  C   UNL     1     150.673 159.962 187.077  0.00  0.00    +0.082 C 
ATOM      5  C   UNL     1     151.547 161.189 187.223  0.00  0.00    +0.311 C 
ATOM      6  O   UNL     1     152.772 161.149 187.159  0.00  0.00    -0.251 OA
ATOM      7  O   UNL     1     150.823 162.313 187.399  0.00  0.00    -0.461 OA
ATOM      8  C   UNL     1     151.482 163.603 187.462  0.00  0.00    +0.110 C 
ATOM      9  C   UNL     1     151.356 164.073 188.953  0.00  0.00    +0.020 C 
ATOM     10  C   UNL     1     152.388 163.319 189.846  0.00  0.00    +0.068 C 
ATOM     11  C   UNL     1     152.056 163.188 191.366  0.00  0.00    -0.008 C 
ATOM     12  C   UNL     1     150.804 163.836 191.869  0.00  0.00    -0.077 C 
ATOM     13  C   UNL     1     150.734 164.695 192.900  0.00  0.00    -0.003 C 
ATOM     14  C   UNL     1     149.485 165.292 193.222  0.00  0.00    +0.220 A 
ATOM     15  N   UNL     1     148.415 165.281 192.446  0.00  0.00    -0.205 NA
ATOM     16  C   UNL     1     147.454 165.979 193.129  0.00  0.00    +0.164 A 
ATOM     17  C   UNL     1     147.956 166.399 194.326  0.00  0.00    +0.125 A 
ATOM     18  O   UNL     1     149.249 165.970 194.404  0.00  0.00    -0.443 OA
ATOM     19  C   UNL     1     146.014 166.205 192.589  0.00  0.00    +0.250 A 
ATOM     20  N   UNL     1     145.603 165.680 191.447  0.00  0.00    -0.203 NA
ATOM     21  C   UNL     1     144.294 166.066 191.344  0.00  0.00    +0.164 A 
ATOM     22  C   UNL     1     143.954 166.845 192.418  0.00  0.00    +0.125 A 
ATOM     23  O   UNL     1     145.048 166.941 193.231  0.00  0.00    -0.442 OA
ATOM     24  C   UNL     1     143.348 165.656 190.177  0.00  0.00    +0.249 A 
ATOM     25  N   UNL     1     143.711 164.856 189.193  0.00  0.00    -0.210 NA
ATOM     26  C   UNL     1     142.601 164.720 188.401  0.00  0.00    +0.109 A 
ATOM     27  C   UNL     1     141.582 165.471 188.943  0.00  0.00    +0.118 A 
ATOM     28  O   UNL     1     142.042 166.073 190.077  0.00  0.00    -0.442 OA
ATOM     29  C   UNL     1     142.568 163.884 187.152  0.00  0.00    +0.108 C 
ATOM     30  C   UNL     1     143.941 163.355 186.642  0.00  0.00    +0.014 C 
ATOM     31  C   UNL     1     144.682 162.378 187.615  0.00  0.00    +0.061 C 
ATOM     32  C   UNL     1     145.954 161.782 186.964  0.00  0.00    -0.024 C 
ATOM     33  H   UNL     1     147.064 161.478 188.803  0.00  0.00    +0.030 HD
ATOM     34  H   UNL     1     148.602 161.780 186.948  0.00  0.00    +0.030 HD
ATOM     35  H   UNL     1     148.060 160.319 186.141  0.00  0.00    +0.030 HD
ATOM     36  H   UNL     1     148.988 158.908 187.851  0.00  0.00    +0.074 HD
ATOM     37  H   UNL     1     150.508 159.789 186.009  0.00  0.00    +0.041 HD
ATOM     38  H   UNL     1     151.282 159.131 187.454  0.00  0.00    +0.041 HD
ATOM     39  H   UNL     1     152.539 163.540 187.196  0.00  0.00    +0.074 HD
ATOM     40  H   UNL     1     150.348 163.783 189.269  0.00  0.00    +0.036 HD
ATOM     41  H   UNL     1     152.493 162.295 189.471  0.00  0.00    +0.060 HD
ATOM     42  H   UNL     1     152.912 163.512 191.975  0.00  0.00    +0.033 HD
ATOM     43  H   UNL     1     151.944 162.114 191.571  0.00  0.00    +0.033 HD
ATOM     44  H   UNL     1     149.880 163.572 191.347  0.00  0.00    +0.057 HD
ATOM     45  H   UNL     1     151.605 164.978 193.472  0.00  0.00    +0.067 HD
ATOM     46  H   UNL     1     147.575 166.955 195.167  0.00  0.00    +0.105 HD
ATOM     47  H   UNL     1     143.057 167.351 192.741  0.00  0.00    +0.105 HD
ATOM     48  H   UNL     1     140.558 165.673 188.674  0.00  0.00    +0.105 HD
ATOM     49  H   UNL     1     142.158 164.546 186.374  0.00  0.00    +0.067 HD
ATOM     50  H   UNL     1     143.710 162.760 185.748  0.00  0.00    +0.035 HD
ATOM     51  H   UNL     1     144.976 162.894 188.533  0.00  0.00    +0.060 HD
ATOM     52  H   UNL     1     146.565 162.604 186.579  0.00  0.00    +0.029 HD
ATOM     53  H   UNL     1     145.650 161.174 186.100  0.00  0.00    +0.029 HD
ENDROOT
BRANCH   1  54
ATOM     54  C   UNL     1     146.266 159.570 188.226  0.00  0.00    -0.062 C 
ATOM     55  H   UNL     1     145.294 159.691 188.717  0.00  0.00    +0.023 HD
ATOM     56  H   UNL     1     146.921 159.003 188.890  0.00  0.00    +0.023 HD
ATOM     57  H   UNL     1     146.125 158.943 187.338  0.00  0.00    +0.023 HD
ENDBRANCH   1  54
BRANCH  30  58
ATOM     58  C   UNL     1     144.817 164.528 186.183  0.00  0.00    -0.057 C 
ATOM     59  H   UNL     1     145.796 164.187 185.818  0.00  0.00    +0.023 HD
ATOM     60  H   UNL     1     144.350 165.061 185.345  0.00  0.00    +0.023 HD
ATOM     61  H   UNL     1     144.993 165.248 186.992  0.00  0.00    +0.023 HD
ENDBRANCH  30  58
BRANCH   9  62
ATOM     62  C   UNL     1     151.494 165.594 189.106  0.00  0.00    -0.057 C 
ATOM     63  H   UNL     1     151.423 166.092 188.132  0.00  0.00    +0.023 HD
ATOM     64  H   UNL     1     152.453 165.869 189.563  0.00  0.00    +0.023 HD
ATOM     65  H   UNL     1     150.701 166.016 189.732  0.00  0.00    +0.023 HD
ENDBRANCH   9  62
BRANCH   8  66
ATOM     66  C   UNL     1     150.739 164.518 186.464  0.00  0.00    +0.011 C 
ATOM     67  H   UNL     1     151.012 165.565 186.630  0.00  0.00    +0.033 HD
ATOM     68  H   UNL     1     149.667 164.428 186.693  0.00  0.00    +0.033 HD
BRANCH  66  69
ATOM     69  C   UNL     1     150.881 164.249 184.944  0.00  0.00    +0.064 C 
ATOM     70  H   UNL     1     150.459 163.241 184.816  0.00  0.00    +0.060 HD
BRANCH  69  71
ATOM     71  C   UNL     1     150.051 165.194 184.025  0.00  0.00    -0.017 C 
ATOM     72  H   UNL     1     150.245 166.228 184.341  0.00  0.00    +0.032 HD
BRANCH  71  73
ATOM     73  C   UNL     1     150.391 165.066 182.536  0.00  0.00    -0.060 C 
ATOM     74  H   UNL     1     149.814 165.775 181.939  0.00  0.00    +0.023 HD
ATOM     75  H   UNL     1     150.200 164.069 182.148  0.00  0.00    +0.023 HD
ATOM     76  H   UNL     1     151.453 165.269 182.366  0.00  0.00    +0.023 HD
ENDBRANCH  71  73
BRANCH  71  77
ATOM     77  C   UNL     1     148.537 164.896 184.244  0.00  0.00    -0.041 C 
ATOM     78  H   UNL     1     148.419 163.871 184.623  0.00  0.00    +0.027 HD
ATOM     79  H   UNL     1     148.028 164.926 183.275  0.00  0.00    +0.027 HD
BRANCH  77  80
ATOM     80  C   UNL     1     147.803 165.850 185.192  0.00  0.00    +0.007 C 
ATOM     81  H   UNL     1     146.767 165.537 185.319  0.00  0.00    +0.034 HD
ATOM     82  H   UNL     1     148.290 165.794 186.171  0.00  0.00    +0.034 HD
BRANCH  80  83
ATOM     83  C   UNL     1     147.868 167.305 184.752  0.00  0.00    +0.139 C 
ATOM     84  O   UNL     1     147.582 167.645 183.598  0.00  0.00    -0.297 OA
BRANCH  83  85
ATOM     85  C   UNL     1     148.323 168.369 185.756  0.00  0.00    +0.041 C 
ATOM     86  H   UNL     1     148.767 169.177 185.164  0.00  0.00    +0.040 HD
BRANCH  85  87
ATOM     87  C   UNL     1     149.450 167.840 186.648  0.00  0.00    -0.053 C 
ATOM     88  H   UNL     1     150.426 168.111 186.234  0.00  0.00    +0.024 HD
ATOM     89  H   UNL     1     149.376 168.271 187.652  0.00  0.00    +0.024 HD
ATOM     90  H   UNL     1     149.427 166.750 186.747  0.00  0.00    +0.024 HD
ENDBRANCH  85  87
BRANCH  85  91
ATOM     91  C   UNL     1     147.143 168.950 186.569  0.00  0.00    +0.074 C 
ATOM     92  H   UNL     1     146.214 168.590 186.101  0.00  0.00    +0.061 HD
BRANCH  91  93
ATOM     93  C   UNL     1     147.138 168.524 188.068  0.00  0.00    +0.003 C 
ATOM     94  H   UNL     1     148.123 168.110 188.318  0.00  0.00    +0.037 HD
BRANCH  93  95
ATOM     95  C   UNL     1     146.073 167.467 188.382  0.00  0.00    -0.057 C 
ATOM     96  H   UNL     1     145.778 166.922 187.479  0.00  0.00    +0.024 HD
ATOM     97  H   UNL     1     146.430 166.738 189.112  0.00  0.00    +0.024 HD
ATOM     98  H   UNL     1     145.175 167.930 188.805  0.00  0.00    +0.024 HD
ENDBRANCH  93  95
BRANCH  93  99
ATOM     99  C   UNL     1     146.886 169.719 188.975  0.00  0.00    -0.065 C 
ATOM    100  C   UNL     1     147.528 169.893 190.142  0.00  0.00    -0.005 C 
ATOM    101  H   UNL     1     146.136 170.421 188.626  0.00  0.00    +0.059 HD
ATOM    102  H   UNL     1     148.264 169.146 190.445  0.00  0.00    +0.078 HD
BRANCH 100 103
ATOM    103  N   UNL     1     147.359 170.926 191.049  0.00  0.00    -0.284 N 
ATOM    104  C   UNL     1     146.294 171.816 191.076  0.00  0.00    +0.206 C 
ATOM    105  O   UNL     1     146.082 172.651 191.943  0.00  0.00    -0.279 OA
ATOM    106  H   UNL     1     145.610 171.711 190.222  0.00  0.00    +0.126 HD
BRANCH 103 107
ATOM    107  C   UNL     1     148.332 171.023 192.130  0.00  0.00    +0.007 C 
ATOM    108  H   UNL     1     148.685 172.049 192.270  0.00  0.00    +0.043 HD
ATOM    109  H   UNL     1     149.199 170.387 191.920  0.00  0.00    +0.043 HD
ATOM    110  H   UNL     1     147.844 170.692 193.052  0.00  0.00    +0.043 HD
ENDBRANCH 103 107
ENDBRANCH 100 103
ENDBRANCH  93  99
ENDBRANCH  91  93
BRANCH  91 111
ATOM    111  O   UNL     1     147.207 170.385 186.484  0.00  0.00    -0.379 OA
BRANCH 111 112
ATOM    112  C   UNL     1     147.207 170.871 185.146  0.00  0.00    +0.037 C 
ATOM    113  H   UNL     1     148.009 170.371 184.603  0.00  0.00    +0.052 HD
ATOM    114  H   UNL     1     146.256 170.639 184.659  0.00  0.00    +0.052 HD
ATOM    115  H   UNL     1     147.387 171.949 185.121  0.00  0.00    +0.052 HD
ENDBRANCH 111 112
ENDBRANCH  91 111
ENDBRANCH  85  91
ENDBRANCH  83  85
ENDBRANCH  80  83
ENDBRANCH  77  80
ENDBRANCH  71  77
ENDBRANCH  69  71
BRANCH  69 116
ATOM    116  O   UNL     1     152.248 164.245 184.532  0.00  0.00    -0.379 OA
BRANCH 116 117
ATOM    117  C   UNL     1     152.694 162.958 184.113  0.00  0.00    +0.037 C 
ATOM    118  H   UNL     1     153.541 162.665 184.738  0.00  0.00    +0.052 HD
ATOM    119  H   UNL     1     153.027 162.991 183.072  0.00  0.00    +0.052 HD
ATOM    120  H   UNL     1     151.898 162.215 184.230  0.00  0.00    +0.052 HD
ENDBRANCH 116 117
ENDBRANCH  69 116
ENDBRANCH  66  69
ENDBRANCH   8  66
BRANCH  31 121
ATOM    121  O   UNL     1     143.832 161.291 187.990  0.00  0.00    -0.391 OA
ATOM    122  H   UNL     1     142.929 161.639 188.163  0.00  0.00    +0.210 HD
ENDBRANCH  31 121
BRANCH  29 123
ATOM    123  O   UNL     1     141.657 162.783 187.342  0.00  0.00    -0.373 OA
BRANCH 123 124
ATOM    124  C   UNL     1     140.661 162.721 186.321  0.00  0.00    +0.037 C 
ATOM    125  H   UNL     1     141.113 162.442 185.369  0.00  0.00    +0.052 HD
ATOM    126  H   UNL     1     140.216 163.714 186.215  0.00  0.00    +0.052 HD
ATOM    127  H   UNL     1     139.873 162.014 186.590  0.00  0.00    +0.052 HD
ENDBRANCH 123 124
ENDBRANCH  29 123
BRANCH  10 128
ATOM    128  O   UNL     1     153.666 163.974 189.692  0.00  0.00    -0.379 OA
BRANCH 128 129
ATOM    129  C   UNL     1     154.716 163.078 189.342  0.00  0.00    +0.037 C 
ATOM    130  H   UNL     1     155.628 163.327 189.889  0.00  0.00    +0.052 HD
ATOM    131  H   UNL     1     154.903 163.087 188.267  0.00  0.00    +0.052 HD
ATOM    132  H   UNL     1     154.404 162.072 189.623  0.00  0.00    +0.052 HD
ENDBRANCH 128 129
ENDBRANCH  10 128
BRANCH   3 133
ATOM    133  O   UNL     1     149.484 160.406 189.198  0.00  0.00    -0.447 OA
BRANCH 133 134
ATOM    134  C   UNL     1     149.634 159.443 190.134  0.00  0.00    +0.398 C 
ATOM    135  O   UNL     1     149.204 158.301 190.068  0.00  0.00    -0.227 OA
ATOM    136  N   UNL     1     150.319 159.920 191.193  0.00  0.00    -0.295 N 
ATOM    137  H   UNL     1     150.452 159.332 191.997  0.00  0.00    +0.148 HD
ATOM    138  H   UNL     1     150.542 160.906 191.246  0.00  0.00    +0.148 HD
ENDBRANCH 133 134
ENDBRANCH   3 133
TORSDOF 29
ENDMDL
MODEL 8
REMARK VINA RESULT:      -4.6     15.659     19.774
REMARK  Name = Kabiramide C_conf3
REMARK  29 active torsions:
REMARK  status: ('A' for Active; 'I' for Inactive)
REMARK    1  A    between atoms: C_1  and  C_2
REMARK    2  A    between atoms: C_4  and  O_64
REMARK    3  A    between atoms: C_9  and  C_41
REMARK    4  A    between atoms: C_10  and  C_40
REMARK    5  A    between atoms: C_11  and  O_38
REMARK    6  A    between atoms: C_30  and  O_36
REMARK    7  A    between atoms: C_31  and  C_35
REMARK    8  A    between atoms: C_32  and  O_34
REMARK    9  A    between atoms: O_36  and  C_37
REMARK   10  A    between atoms: O_38  and  C_39
REMARK   11  A    between atoms: C_41  and  C_42
REMARK   12  A    between atoms: C_42  and  C_43
REMARK   13  A    between atoms: C_42  and  O_62
REMARK   14  A    between atoms: C_43  and  C_44
REMARK   15  A    between atoms: C_43  and  C_45
REMARK   16  A    between atoms: C_45  and  C_46
REMARK   17  A    between atoms: C_46  and  C_47
REMARK   18  A    between atoms: C_47  and  C_49
REMARK   19  A    between atoms: C_49  and  C_50
REMARK   20  A    between atoms: C_49  and  C_51
REMARK   21  A    between atoms: C_51  and  C_52
REMARK   22  A    between atoms: C_51  and  O_60
REMARK   23  A    between atoms: C_52  and  C_53
REMARK   24  A    between atoms: C_52  and  C_54
REMARK   25  A    between atoms: C_55  and  N_56
REMARK   26  A    between atoms: N_56  and  C_57
REMARK   27  A    between atoms: O_60  and  C_61
REMARK   28  A    between atoms: O_62  and  C_63
REMARK   29  A    between atoms: O_64  and  C_65
REMARK                            x       y       z     vdW  Elec       q    Type
REMARK                         _______ _______ _______ _____ _____    ______ ____
ROOT
ATOM      1  C   UNL     1     133.036 158.083 194.320  0.00  0.00    -0.038 C 
ATOM      2  C   UNL     1     131.741 158.254 193.477  0.00  0.00    -0.012 C 
ATOM      3  C   UNL     1     131.785 159.284 192.328  0.00  0.00    +0.115 C 
ATOM      4  C   UNL     1     130.418 159.466 191.643  0.00  0.00    +0.082 C 
ATOM      5  C   UNL     1     129.403 160.347 192.337  0.00  0.00    +0.311 C 
ATOM      6  O   UNL     1     128.560 161.002 191.732  0.00  0.00    -0.251 OA
ATOM      7  O   UNL     1     129.520 160.299 193.680  0.00  0.00    -0.461 OA
ATOM      8  C   UNL     1     128.571 161.003 194.520  0.00  0.00    +0.110 C 
ATOM      9  C   UNL     1     129.366 162.200 195.151  0.00  0.00    +0.020 C 
ATOM     10  C   UNL     1     129.539 163.344 194.106  0.00  0.00    +0.068 C 
ATOM     11  C   UNL     1     130.743 164.316 194.303  0.00  0.00    -0.008 C 
ATOM     12  C   UNL     1     131.615 164.118 195.504  0.00  0.00    -0.077 C 
ATOM     13  C   UNL     1     131.927 165.067 196.403  0.00  0.00    -0.003 C 
ATOM     14  C   UNL     1     132.709 164.718 197.538  0.00  0.00    +0.220 A 
ATOM     15  N   UNL     1     132.957 163.482 197.938  0.00  0.00    -0.205 NA
ATOM     16  C   UNL     1     133.723 163.606 199.068  0.00  0.00    +0.164 A 
ATOM     17  C   UNL     1     133.938 164.926 199.334  0.00  0.00    +0.125 A 
ATOM     18  O   UNL     1     133.300 165.651 198.369  0.00  0.00    -0.443 OA
ATOM     19  C   UNL     1     134.261 162.390 199.873  0.00  0.00    +0.250 A 
ATOM     20  N   UNL     1     134.062 161.144 199.478  0.00  0.00    -0.203 NA
ATOM     21  C   UNL     1     134.713 160.382 200.410  0.00  0.00    +0.164 A 
ATOM     22  C   UNL     1     135.267 161.190 201.367  0.00  0.00    +0.125 A 
ATOM     23  O   UNL     1     134.989 162.486 201.034  0.00  0.00    -0.442 OA
ATOM     24  C   UNL     1     134.809 158.828 200.361  0.00  0.00    +0.249 A 
ATOM     25  N   UNL     1     134.304 158.099 199.384  0.00  0.00    -0.210 NA
ATOM     26  C   UNL     1     134.622 156.802 199.691  0.00  0.00    +0.109 A 
ATOM     27  C   UNL     1     135.317 156.792 200.880  0.00  0.00    +0.118 A 
ATOM     28  O   UNL     1     135.447 158.076 201.318  0.00  0.00    -0.442 OA
ATOM     29  C   UNL     1     134.235 155.626 198.838  0.00  0.00    +0.108 C 
ATOM     30  C   UNL     1     133.228 155.915 197.686  0.00  0.00    +0.014 C 
ATOM     31  C   UNL     1     133.738 156.906 196.586  0.00  0.00    +0.061 C 
ATOM     32  C   UNL     1     132.741 157.010 195.407  0.00  0.00    -0.024 C 
ATOM     33  H   UNL     1     133.248 159.037 194.822  0.00  0.00    +0.030 HD
ATOM     34  H   UNL     1     130.958 158.540 194.185  0.00  0.00    +0.030 HD
ATOM     35  H   UNL     1     131.447 157.284 193.061  0.00  0.00    +0.030 HD
ATOM     36  H   UNL     1     132.465 158.871 191.571  0.00  0.00    +0.074 HD
ATOM     37  H   UNL     1     129.950 158.495 191.453  0.00  0.00    +0.041 HD
ATOM     38  H   UNL     1     130.592 159.942 190.670  0.00  0.00    +0.041 HD
ATOM     39  H   UNL     1     127.727 161.398 193.951  0.00  0.00    +0.074 HD
ATOM     40  H   UNL     1     130.357 161.800 195.392  0.00  0.00    +0.036 HD
ATOM     41  H   UNL     1     129.672 162.895 193.115  0.00  0.00    +0.060 HD
ATOM     42  H   UNL     1     130.405 165.361 194.260  0.00  0.00    +0.033 HD
ATOM     43  H   UNL     1     131.398 164.187 193.430  0.00  0.00    +0.033 HD
ATOM     44  H   UNL     1     132.027 163.115 195.641  0.00  0.00    +0.057 HD
ATOM     45  H   UNL     1     131.574 166.084 196.311  0.00  0.00    +0.067 HD
ATOM     46  H   UNL     1     134.472 165.482 200.088  0.00  0.00    +0.105 HD
ATOM     47  H   UNL     1     135.851 161.028 202.259  0.00  0.00    +0.105 HD
ATOM     48  H   UNL     1     135.754 156.026 201.501  0.00  0.00    +0.105 HD
ATOM     49  H   UNL     1     133.755 154.915 199.528  0.00  0.00    +0.067 HD
ATOM     50  H   UNL     1     133.089 154.953 197.172  0.00  0.00    +0.035 HD
ATOM     51  H   UNL     1     133.883 157.906 197.003  0.00  0.00    +0.060 HD
ATOM     52  H   UNL     1     131.749 157.236 195.810  0.00  0.00    +0.029 HD
ATOM     53  H   UNL     1     132.675 156.027 194.919  0.00  0.00    +0.029 HD
ENDROOT
BRANCH   1  54
ATOM     54  C   UNL     1     134.237 157.719 193.447  0.00  0.00    -0.062 C 
ATOM     55  H   UNL     1     135.167 158.126 193.859  0.00  0.00    +0.023 HD
ATOM     56  H   UNL     1     134.114 158.098 192.431  0.00  0.00    +0.023 HD
ATOM     57  H   UNL     1     134.354 156.634 193.348  0.00  0.00    +0.023 HD
ENDBRANCH   1  54
BRANCH  30  58
ATOM     58  C   UNL     1     131.864 156.311 198.267  0.00  0.00    -0.057 C 
ATOM     59  H   UNL     1     131.961 156.749 199.270  0.00  0.00    +0.023 HD
ATOM     60  H   UNL     1     131.381 157.077 197.647  0.00  0.00    +0.023 HD
ATOM     61  H   UNL     1     131.186 155.451 198.341  0.00  0.00    +0.023 HD
ENDBRANCH  30  58
BRANCH   9  62
ATOM     62  C   UNL     1     128.724 162.720 196.444  0.00  0.00    -0.057 C 
ATOM     63  H   UNL     1     127.972 163.487 196.224  0.00  0.00    +0.023 HD
ATOM     64  H   UNL     1     129.470 163.154 197.120  0.00  0.00    +0.023 HD
ATOM     65  H   UNL     1     128.207 161.925 196.993  0.00  0.00    +0.023 HD
ENDBRANCH   9  62
BRANCH   8  66
ATOM     66  C   UNL     1     128.073 159.980 195.563  0.00  0.00    +0.011 C 
ATOM     67  H   UNL     1     127.175 160.353 196.068  0.00  0.00    +0.033 HD
ATOM     68  H   UNL     1     128.859 159.901 196.328  0.00  0.00    +0.033 HD
BRANCH  66  69
ATOM     69  C   UNL     1     127.765 158.529 195.110  0.00  0.00    +0.064 C 
ATOM     70  H   UNL     1     128.703 158.198 194.640  0.00  0.00    +0.060 HD
BRANCH  69  71
ATOM     71  C   UNL     1     127.471 157.524 196.262  0.00  0.00    -0.017 C 
ATOM     72  H   UNL     1     126.624 156.896 195.955  0.00  0.00    +0.032 HD
BRANCH  71  73
ATOM     73  C   UNL     1     128.655 156.614 196.608  0.00  0.00    -0.060 C 
ATOM     74  H   UNL     1     128.401 155.564 196.452  0.00  0.00    +0.023 HD
ATOM     75  H   UNL     1     128.985 156.730 197.636  0.00  0.00    +0.023 HD
ATOM     76  H   UNL     1     129.517 156.849 195.976  0.00  0.00    +0.023 HD
ENDBRANCH  71  73
BRANCH  71  77
ATOM     77  C   UNL     1     127.044 158.329 197.527  0.00  0.00    -0.041 C 
ATOM     78  H   UNL     1     125.953 158.273 197.642  0.00  0.00    +0.027 HD
ATOM     79  H   UNL     1     127.283 159.386 197.371  0.00  0.00    +0.027 HD
BRANCH  77  80
ATOM     80  C   UNL     1     127.692 157.888 198.844  0.00  0.00    +0.007 C 
ATOM     81  H   UNL     1     127.073 157.142 199.341  0.00  0.00    +0.034 HD
ATOM     82  H   UNL     1     128.652 157.420 198.608  0.00  0.00    +0.034 HD
BRANCH  80  83
ATOM     83  C   UNL     1     127.988 159.046 199.787  0.00  0.00    +0.139 C 
ATOM     84  O   UNL     1     127.549 159.066 200.943  0.00  0.00    -0.297 OA
BRANCH  83  85
ATOM     85  C   UNL     1     128.826 160.224 199.282  0.00  0.00    +0.041 C 
ATOM     86  H   UNL     1     128.303 160.616 198.402  0.00  0.00    +0.040 HD
BRANCH  85  87
ATOM     87  C   UNL     1     130.193 159.754 198.777  0.00  0.00    -0.053 C 
ATOM     88  H   UNL     1     130.132 159.453 197.726  0.00  0.00    +0.024 HD
ATOM     89  H   UNL     1     130.928 160.561 198.856  0.00  0.00    +0.024 HD
ATOM     90  H   UNL     1     130.573 158.895 199.341  0.00  0.00    +0.024 HD
ENDBRANCH  85  87
BRANCH  85  91
ATOM     91  C   UNL     1     128.936 161.357 200.330  0.00  0.00    +0.074 C 
ATOM     92  H   UNL     1     128.790 160.901 201.321  0.00  0.00    +0.061 HD
BRANCH  91  93
ATOM     93  C   UNL     1     130.308 162.093 200.322  0.00  0.00    +0.003 C 
ATOM     94  H   UNL     1     130.970 161.595 199.602  0.00  0.00    +0.037 HD
BRANCH  93  95
ATOM     95  C   UNL     1     130.994 162.088 201.693  0.00  0.00    -0.057 C 
ATOM     96  H   UNL     1     131.616 162.979 201.828  0.00  0.00    +0.024 HD
ATOM     97  H   UNL     1     130.269 162.057 202.508  0.00  0.00    +0.024 HD
ATOM     98  H   UNL     1     131.637 161.208 201.805  0.00  0.00    +0.024 HD
ENDBRANCH  93  95
BRANCH  93  99
ATOM     99  C   UNL     1     130.149 163.543 199.889  0.00  0.00    -0.065 C 
ATOM    100  C   UNL     1     130.573 164.575 200.635  0.00  0.00    -0.005 C 
ATOM    101  H   UNL     1     129.652 163.694 198.937  0.00  0.00    +0.059 HD
ATOM    102  H   UNL     1     131.056 164.360 201.591  0.00  0.00    +0.078 HD
BRANCH 100 103
ATOM    103  N   UNL     1     130.459 165.925 200.347  0.00  0.00    -0.284 N 
ATOM    104  C   UNL     1     131.155 166.950 200.974  0.00  0.00    +0.206 C 
ATOM    105  O   UNL     1     131.145 168.126 200.644  0.00  0.00    -0.279 OA
ATOM    106  H   UNL     1     131.754 166.614 201.832  0.00  0.00    +0.126 HD
BRANCH 103 107
ATOM    107  C   UNL     1     129.612 166.292 199.219  0.00  0.00    +0.007 C 
ATOM    108  H   UNL     1     128.851 167.025 199.503  0.00  0.00    +0.043 HD
ATOM    109  H   UNL     1     129.105 165.406 198.820  0.00  0.00    +0.043 HD
ATOM    110  H   UNL     1     130.252 166.732 198.448  0.00  0.00    +0.043 HD
ENDBRANCH 103 107
ENDBRANCH 100 103
ENDBRANCH  93  99
ENDBRANCH  91  93
BRANCH  91 111
ATOM    111  O   UNL     1     127.886 162.307 200.070  0.00  0.00    -0.379 OA
BRANCH 111 112
ATOM    112  C   UNL     1     126.991 162.470 201.165  0.00  0.00    +0.037 C 
ATOM    113  H   UNL     1     125.986 162.604 200.765  0.00  0.00    +0.052 HD
ATOM    114  H   UNL     1     127.001 161.579 201.798  0.00  0.00    +0.052 HD
ATOM    115  H   UNL     1     127.253 163.352 201.756  0.00  0.00    +0.052 HD
ENDBRANCH 111 112
ENDBRANCH  91 111
ENDBRANCH  85  91
ENDBRANCH  83  85
ENDBRANCH  80  83
ENDBRANCH  77  80
ENDBRANCH  71  77
ENDBRANCH  69  71
BRANCH  69 116
ATOM    116  O   UNL     1     126.712 158.488 194.146  0.00  0.00    -0.379 OA
BRANCH 116 117
ATOM    117  C   UNL     1     126.989 157.601 193.066  0.00  0.00    +0.037 C 
ATOM    118  H   UNL     1     126.047 157.358 192.569  0.00  0.00    +0.052 HD
ATOM    119  H   UNL     1     127.432 156.673 193.438  0.00  0.00    +0.052 HD
ATOM    120  H   UNL     1     127.658 158.073 192.338  0.00  0.00    +0.052 HD
ENDBRANCH 116 117
ENDBRANCH  69 116
ENDBRANCH  66  69
ENDBRANCH   8  66
BRANCH  31 121
ATOM    121  O   UNL     1     134.996 156.477 196.059  0.00  0.00    -0.391 OA
ATOM    122  H   UNL     1     135.664 157.182 196.215  0.00  0.00    +0.210 HD
ENDBRANCH  31 121
BRANCH  29 123
ATOM    123  O   UNL     1     135.427 155.014 198.306  0.00  0.00    -0.373 OA
BRANCH 123 124
ATOM    124  C   UNL     1     135.425 153.595 198.466  0.00  0.00    +0.037 C 
ATOM    125  H   UNL     1     136.138 153.137 197.779  0.00  0.00    +0.052 HD
ATOM    126  H   UNL     1     134.426 153.224 198.224  0.00  0.00    +0.052 HD
ATOM    127  H   UNL     1     135.659 153.320 199.496  0.00  0.00    +0.052 HD
ENDBRANCH 123 124
ENDBRANCH  29 123
BRANCH  10 128
ATOM    128  O   UNL     1     128.312 164.105 194.078  0.00  0.00    -0.379 OA
BRANCH 128 129
ATOM    129  C   UNL     1     127.809 164.310 192.762  0.00  0.00    +0.037 C 
ATOM    130  H   UNL     1     127.287 165.268 192.698  0.00  0.00    +0.052 HD
ATOM    131  H   UNL     1     127.147 163.497 192.459  0.00  0.00    +0.052 HD
ATOM    132  H   UNL     1     128.658 164.328 192.079  0.00  0.00    +0.052 HD
ENDBRANCH 128 129
ENDBRANCH  10 128
BRANCH   3 133
ATOM    133  O   UNL     1     132.321 160.532 192.805  0.00  0.00    -0.447 OA
BRANCH 133 134
ATOM    134  C   UNL     1     133.169 161.171 191.970  0.00  0.00    +0.398 C 
ATOM    135  O   UNL     1     134.172 160.695 191.459  0.00  0.00    -0.227 OA
ATOM    136  N   UNL     1     132.771 162.445 191.781  0.00  0.00    -0.295 N 
ATOM    137  H   UNL     1     133.343 163.062 191.231  0.00  0.00    +0.148 HD
ATOM    138  H   UNL     1     132.003 162.820 192.325  0.00  0.00    +0.148 HD
ENDBRANCH 133 134
ENDBRANCH   3 133
TORSDOF 29
ENDMDL
MODEL 9
REMARK VINA RESULT:      -4.4      2.962      9.030
REMARK  Name = Kabiramide C_conf3
REMARK  29 active torsions:
REMARK  status: ('A' for Active; 'I' for Inactive)
REMARK    1  A    between atoms: C_1  and  C_2
REMARK    2  A    between atoms: C_4  and  O_64
REMARK    3  A    between atoms: C_9  and  C_41
REMARK    4  A    between atoms: C_10  and  C_40
REMARK    5  A    between atoms: C_11  and  O_38
REMARK    6  A    between atoms: C_30  and  O_36
REMARK    7  A    between atoms: C_31  and  C_35
REMARK    8  A    between atoms: C_32  and  O_34
REMARK    9  A    between atoms: O_36  and  C_37
REMARK   10  A    between atoms: O_38  and  C_39
REMARK   11  A    between atoms: C_41  and  C_42
REMARK   12  A    between atoms: C_42  and  C_43
REMARK   13  A    between atoms: C_42  and  O_62
REMARK   14  A    between atoms: C_43  and  C_44
REMARK   15  A    between atoms: C_43  and  C_45
REMARK   16  A    between atoms: C_45  and  C_46
REMARK   17  A    between atoms: C_46  and  C_47
REMARK   18  A    between atoms: C_47  and  C_49
REMARK   19  A    between atoms: C_49  and  C_50
REMARK   20  A    between atoms: C_49  and  C_51
REMARK   21  A    between atoms: C_51  and  C_52
REMARK   22  A    between atoms: C_51  and  O_60
REMARK   23  A    between atoms: C_52  and  C_53
REMARK   24  A    between atoms: C_52  and  C_54
REMARK   25  A    between atoms: C_55  and  N_56
REMARK   26  A    between atoms: N_56  and  C_57
REMARK   27  A    between atoms: O_60  and  C_61
REMARK   28  A    between atoms: O_62  and  C_63
REMARK   29  A    between atoms: O_64  and  C_65
REMARK                            x       y       z     vdW  Elec       q    Type
REMARK                         _______ _______ _______ _____ _____    ______ ____
ROOT
ATOM      1  C   UNL     1     147.708 167.724 185.847  0.00  0.00    -0.038 C 
ATOM      2  C   UNL     1     146.662 167.218 184.815  0.00  0.00    -0.012 C 
ATOM      3  C   UNL     1     145.384 168.068 184.640  0.00  0.00    +0.115 C 
ATOM      4  C   UNL     1     144.363 167.414 183.693  0.00  0.00    +0.082 C 
ATOM      5  C   UNL     1     143.498 166.308 184.257  0.00  0.00    +0.311 C 
ATOM      6  O   UNL     1     142.358 166.082 183.864  0.00  0.00    -0.251 OA
ATOM      7  O   UNL     1     144.137 165.596 185.209  0.00  0.00    -0.461 OA
ATOM      8  C   UNL     1     143.503 164.434 185.799  0.00  0.00    +0.110 C 
ATOM      9  C   UNL     1     143.149 164.844 187.272  0.00  0.00    +0.020 C 
ATOM     10  C   UNL     1     141.880 165.749 187.290  0.00  0.00    +0.068 C 
ATOM     11  C   UNL     1     141.706 166.712 188.505  0.00  0.00    -0.008 C 
ATOM     12  C   UNL     1     142.736 166.666 189.590  0.00  0.00    -0.077 C 
ATOM     13  C   UNL     1     142.480 166.501 190.899  0.00  0.00    -0.003 C 
ATOM     14  C   UNL     1     143.565 166.402 191.812  0.00  0.00    +0.220 A 
ATOM     15  N   UNL     1     144.827 166.203 191.472  0.00  0.00    -0.205 NA
ATOM     16  C   UNL     1     145.525 166.156 192.651  0.00  0.00    +0.164 A 
ATOM     17  C   UNL     1     144.669 166.338 193.698  0.00  0.00    +0.125 A 
ATOM     18  O   UNL     1     143.415 166.498 193.183  0.00  0.00    -0.443 OA
ATOM     19  C   UNL     1     147.063 165.949 192.727  0.00  0.00    +0.250 A 
ATOM     20  N   UNL     1     147.814 165.866 191.641  0.00  0.00    -0.203 NA
ATOM     21  C   UNL     1     149.090 165.732 192.117  0.00  0.00    +0.164 A 
ATOM     22  C   UNL     1     149.075 165.706 193.486  0.00  0.00    +0.125 A 
ATOM     23  O   UNL     1     147.779 165.850 193.895  0.00  0.00    -0.442 OA
ATOM     24  C   UNL     1     150.357 165.638 191.216  0.00  0.00    +0.249 A 
ATOM     25  N   UNL     1     150.321 165.724 189.900  0.00  0.00    -0.210 NA
ATOM     26  C   UNL     1     151.625 165.628 189.490  0.00  0.00    +0.109 A 
ATOM     27  C   UNL     1     152.423 165.472 190.601  0.00  0.00    +0.118 A 
ATOM     28  O   UNL     1     151.629 165.479 191.710  0.00  0.00    -0.442 OA
ATOM     29  C   UNL     1     152.049 165.678 188.048  0.00  0.00    +0.108 C 
ATOM     30  C   UNL     1     150.908 165.599 186.992  0.00  0.00    +0.014 C 
ATOM     31  C   UNL     1     149.885 166.785 187.026  0.00  0.00    +0.061 C 
ATOM     32  C   UNL     1     148.885 166.707 185.848  0.00  0.00    -0.024 C 
ATOM     33  H   UNL     1     147.241 167.717 186.842  0.00  0.00    +0.030 HD
ATOM     34  H   UNL     1     146.381 166.213 185.140  0.00  0.00    +0.030 HD
ATOM     35  H   UNL     1     147.141 167.108 183.836  0.00  0.00    +0.030 HD
ATOM     36  H   UNL     1     145.702 169.006 184.162  0.00  0.00    +0.074 HD
ATOM     37  H   UNL     1     144.859 167.030 182.795  0.00  0.00    +0.041 HD
ATOM     38  H   UNL     1     143.658 168.191 183.370  0.00  0.00    +0.041 HD
ATOM     39  H   UNL     1     142.586 164.153 185.278  0.00  0.00    +0.074 HD
ATOM     40  H   UNL     1     144.000 165.436 187.625  0.00  0.00    +0.036 HD
ATOM     41  H   UNL     1     141.891 166.386 186.399  0.00  0.00    +0.060 HD
ATOM     42  H   UNL     1     140.703 166.603 188.942  0.00  0.00    +0.033 HD
ATOM     43  H   UNL     1     141.737 167.734 188.103  0.00  0.00    +0.033 HD
ATOM     44  H   UNL     1     143.776 166.783 189.274  0.00  0.00    +0.057 HD
ATOM     45  H   UNL     1     141.473 166.405 191.279  0.00  0.00    +0.067 HD
ATOM     46  H   UNL     1     144.765 166.385 194.771  0.00  0.00    +0.105 HD
ATOM     47  H   UNL     1     149.825 165.619 194.257  0.00  0.00    +0.105 HD
ATOM     48  H   UNL     1     153.481 165.352 190.769  0.00  0.00    +0.105 HD
ATOM     49  H   UNL     1     152.693 164.795 187.907  0.00  0.00    +0.067 HD
ATOM     50  H   UNL     1     151.408 165.671 186.016  0.00  0.00    +0.035 HD
ATOM     51  H   UNL     1     149.318 166.780 187.960  0.00  0.00    +0.060 HD
ATOM     52  H   UNL     1     148.436 165.709 185.839  0.00  0.00    +0.029 HD
ATOM     53  H   UNL     1     149.444 166.818 184.908  0.00  0.00    +0.029 HD
ENDROOT
BRANCH   1  54
ATOM     54  C   UNL     1     148.166 169.150 185.539  0.00  0.00    -0.062 C 
ATOM     55  H   UNL     1     147.616 169.883 186.140  0.00  0.00    +0.023 HD
ATOM     56  H   UNL     1     148.022 169.390 184.484  0.00  0.00    +0.023 HD
ATOM     57  H   UNL     1     149.236 169.284 185.733  0.00  0.00    +0.023 HD
ENDBRANCH   1  54
BRANCH  30  58
ATOM     58  C   UNL     1     150.234 164.221 187.048  0.00  0.00    -0.057 C 
ATOM     59  H   UNL     1     150.972 163.408 187.055  0.00  0.00    +0.023 HD
ATOM     60  H   UNL     1     149.649 164.109 187.970  0.00  0.00    +0.023 HD
ATOM     61  H   UNL     1     149.564 164.059 186.195  0.00  0.00    +0.023 HD
ENDBRANCH  30  58
BRANCH   9  62
ATOM     62  C   UNL     1     142.982 163.632 188.199  0.00  0.00    -0.057 C 
ATOM     63  H   UNL     1     142.445 162.824 187.689  0.00  0.00    +0.023 HD
ATOM     64  H   UNL     1     142.428 163.892 189.109  0.00  0.00    +0.023 HD
ATOM     65  H   UNL     1     143.947 163.218 188.510  0.00  0.00    +0.023 HD
ENDBRANCH   9  62
BRANCH   8  66
ATOM     66  C   UNL     1     144.534 163.288 185.712  0.00  0.00    +0.011 C 
ATOM     67  H   UNL     1     144.340 162.664 184.833  0.00  0.00    +0.033 HD
ATOM     68  H   UNL     1     144.374 162.652 186.595  0.00  0.00    +0.033 HD
BRANCH  66  69
ATOM     69  C   UNL     1     146.046 163.632 185.697  0.00  0.00    +0.064 C 
ATOM     70  H   UNL     1     146.064 164.723 185.562  0.00  0.00    +0.060 HD
BRANCH  69  71
ATOM     71  C   UNL     1     146.804 163.340 187.025  0.00  0.00    -0.017 C 
ATOM     72  H   UNL     1     147.858 163.152 186.778  0.00  0.00    +0.032 HD
BRANCH  71  73
ATOM     73  C   UNL     1     146.738 164.486 188.041  0.00  0.00    -0.060 C 
ATOM     74  H   UNL     1     146.706 164.104 189.063  0.00  0.00    +0.023 HD
ATOM     75  H   UNL     1     145.872 165.125 187.895  0.00  0.00    +0.023 HD
ATOM     76  H   UNL     1     147.619 165.130 187.950  0.00  0.00    +0.023 HD
ENDBRANCH  71  73
BRANCH  71  77
ATOM     77  C   UNL     1     146.216 162.044 187.660  0.00  0.00    -0.041 C 
ATOM     78  H   UNL     1     146.824 161.181 187.355  0.00  0.00    +0.027 HD
ATOM     79  H   UNL     1     145.214 161.873 187.252  0.00  0.00    +0.027 HD
BRANCH  77  80
ATOM     80  C   UNL     1     146.108 162.044 189.189  0.00  0.00    +0.007 C 
ATOM     81  H   UNL     1     146.588 162.931 189.603  0.00  0.00    +0.034 HD
ATOM     82  H   UNL     1     145.047 162.085 189.453  0.00  0.00    +0.034 HD
BRANCH  80  83
ATOM     83  C   UNL     1     146.673 160.786 189.832  0.00  0.00    +0.139 C 
ATOM     84  O   UNL     1     145.972 159.784 190.019  0.00  0.00    -0.297 OA
BRANCH  83  85
ATOM     85  C   UNL     1     148.137 160.772 190.283  0.00  0.00    +0.041 C 
ATOM     86  H   UNL     1     148.149 160.283 191.265  0.00  0.00    +0.040 HD
BRANCH  85  87
ATOM     87  C   UNL     1     148.656 162.192 190.520  0.00  0.00    -0.053 C 
ATOM     88  H   UNL     1     149.391 162.203 191.331  0.00  0.00    +0.024 HD
ATOM     89  H   UNL     1     149.142 162.577 189.618  0.00  0.00    +0.024 HD
ATOM     90  H   UNL     1     147.857 162.889 190.795  0.00  0.00    +0.024 HD
ENDBRANCH  85  87
BRANCH  85  91
ATOM     91  C   UNL     1     149.038 159.960 189.322  0.00  0.00    +0.074 C 
ATOM     92  H   UNL     1     148.376 159.336 188.703  0.00  0.00    +0.061 HD
BRANCH  91  93
ATOM     93  C   UNL     1     149.911 160.842 188.381  0.00  0.00    +0.003 C 
ATOM     94  H   UNL     1     149.679 161.897 188.572  0.00  0.00    +0.037 HD
BRANCH  93  95
ATOM     95  C   UNL     1     149.662 160.553 186.896  0.00  0.00    -0.057 C 
ATOM     96  H   UNL     1     149.096 161.363 186.424  0.00  0.00    +0.024 HD
ATOM     97  H   UNL     1     150.596 160.431 186.345  0.00  0.00    +0.024 HD
ATOM     98  H   UNL     1     149.093 159.625 186.769  0.00  0.00    +0.024 HD
ENDBRANCH  93  95
BRANCH  93  99
ATOM     99  C   UNL     1     151.393 160.630 188.651  0.00  0.00    -0.065 C 
ATOM    100  C   UNL     1     152.235 161.642 188.917  0.00  0.00    -0.005 C 
ATOM    101  H   UNL     1     151.735 159.602 188.600  0.00  0.00    +0.059 HD
ATOM    102  H   UNL     1     151.834 162.657 188.943  0.00  0.00    +0.078 HD
BRANCH 100 103
ATOM    103  N   UNL     1     153.597 161.563 189.155  0.00  0.00    -0.284 N 
ATOM    104  C   UNL     1     154.375 162.547 189.752  0.00  0.00    +0.206 C 
ATOM    105  O   UNL     1     155.549 162.434 190.069  0.00  0.00    -0.279 OA
ATOM    106  H   UNL     1     153.833 163.485 189.936  0.00  0.00    +0.126 HD
BRANCH 103 107
ATOM    107  C   UNL     1     154.251 160.297 188.846  0.00  0.00    +0.007 C 
ATOM    108  H   UNL     1     153.764 159.781 188.013  0.00  0.00    +0.043 HD
ATOM    109  H   UNL     1     154.230 159.635 189.719  0.00  0.00    +0.043 HD
ATOM    110  H   UNL     1     155.286 160.513 188.568  0.00  0.00    +0.043 HD
ENDBRANCH 103 107
ENDBRANCH 100 103
ENDBRANCH  93  99
ENDBRANCH  91  93
BRANCH  91 111
ATOM    111  O   UNL     1     149.896 159.122 190.118  0.00  0.00    -0.379 OA
BRANCH 111 112
ATOM    112  C   UNL     1     149.591 157.736 190.005  0.00  0.00    +0.037 C 
ATOM    113  H   UNL     1     150.102 157.346 189.124  0.00  0.00    +0.052 HD
ATOM    114  H   UNL     1     149.950 157.196 190.886  0.00  0.00    +0.052 HD
ATOM    115  H   UNL     1     148.516 157.580 189.883  0.00  0.00    +0.052 HD
ENDBRANCH 111 112
ENDBRANCH  91 111
ENDBRANCH  85  91
ENDBRANCH  83  85
ENDBRANCH  80  83
ENDBRANCH  77  80
ENDBRANCH  71  77
ENDBRANCH  69  71
BRANCH  69 116
ATOM    116  O   UNL     1     146.720 163.008 184.603  0.00  0.00    -0.379 OA
BRANCH 116 117
ATOM    117  C   UNL     1     146.366 163.573 183.344  0.00  0.00    +0.037 C 
ATOM    118  H   UNL     1     146.762 164.590 183.298  0.00  0.00    +0.052 HD
ATOM    119  H   UNL     1     145.278 163.621 183.240  0.00  0.00    +0.052 HD
ATOM    120  H   UNL     1     146.797 162.991 182.523  0.00  0.00    +0.052 HD
ENDBRANCH 116 117
ENDBRANCH  69 116
ENDBRANCH  66  69
ENDBRANCH   8  66
BRANCH  31 121
ATOM    121  O   UNL     1     150.562 168.042 186.944  0.00  0.00    -0.391 OA
ATOM    122  H   UNL     1     150.783 168.344 187.853  0.00  0.00    +0.210 HD
ENDBRANCH  31 121
BRANCH  29 123
ATOM    123  O   UNL     1     152.842 166.861 187.827  0.00  0.00    -0.373 OA
BRANCH 123 124
ATOM    124  C   UNL     1     153.888 166.645 186.880  0.00  0.00    +0.037 C 
ATOM    125  H   UNL     1     154.649 167.421 186.974  0.00  0.00    +0.052 HD
ATOM    126  H   UNL     1     153.458 166.702 185.876  0.00  0.00    +0.052 HD
ATOM    127  H   UNL     1     154.333 165.657 187.012  0.00  0.00    +0.052 HD
ENDBRANCH 123 124
ENDBRANCH  29 123
BRANCH  10 128
ATOM    128  O   UNL     1     140.723 164.888 187.195  0.00  0.00    -0.379 OA
BRANCH 128 129
ATOM    129  C   UNL     1     139.762 165.343 186.250  0.00  0.00    +0.037 C 
ATOM    130  H   UNL     1     138.803 165.531 186.740  0.00  0.00    +0.052 HD
ATOM    131  H   UNL     1     139.637 164.629 185.434  0.00  0.00    +0.052 HD
ATOM    132  H   UNL     1     140.126 166.279 185.827  0.00  0.00    +0.052 HD
ENDBRANCH 128 129
ENDBRANCH  10 128
BRANCH   3 133
ATOM    133  O   UNL     1     144.813 168.370 185.926  0.00  0.00    -0.447 OA
BRANCH 133 134
ATOM    134  C   UNL     1     144.360 169.632 186.092  0.00  0.00    +0.398 C 
ATOM    135  O   UNL     1     144.870 170.647 185.640  0.00  0.00    -0.227 OA
ATOM    136  N   UNL     1     143.251 169.636 186.861  0.00  0.00    -0.295 N 
ATOM    137  H   UNL     1     142.839 170.514 187.122  0.00  0.00    +0.148 HD
ATOM    138  H   UNL     1     142.946 168.780 187.308  0.00  0.00    +0.148 HD
ENDBRANCH 133 134
ENDBRANCH   3 133
TORSDOF 29
ENDMDL
MODEL 10
REMARK VINA RESULT:      -4.4      6.758     11.407
REMARK  Name = Kabiramide C_conf3
REMARK  29 active torsions:
REMARK  status: ('A' for Active; 'I' for Inactive)
REMARK    1  A    between atoms: C_1  and  C_2
REMARK    2  A    between atoms: C_4  and  O_64
REMARK    3  A    between atoms: C_9  and  C_41
REMARK    4  A    between atoms: C_10  and  C_40
REMARK    5  A    between atoms: C_11  and  O_38
REMARK    6  A    between atoms: C_30  and  O_36
REMARK    7  A    between atoms: C_31  and  C_35
REMARK    8  A    between atoms: C_32  and  O_34
REMARK    9  A    between atoms: O_36  and  C_37
REMARK   10  A    between atoms: O_38  and  C_39
REMARK   11  A    between atoms: C_41  and  C_42
REMARK   12  A    between atoms: C_42  and  C_43
REMARK   13  A    between atoms: C_42  and  O_62
REMARK   14  A    between atoms: C_43  and  C_44
REMARK   15  A    between atoms: C_43  and  C_45
REMARK   16  A    between atoms: C_45  and  C_46
REMARK   17  A    between atoms: C_46  and  C_47
REMARK   18  A    between atoms: C_47  and  C_49
REMARK   19  A    between atoms: C_49  and  C_50
REMARK   20  A    between atoms: C_49  and  C_51
REMARK   21  A    between atoms: C_51  and  C_52
REMARK   22  A    between atoms: C_51  and  O_60
REMARK   23  A    between atoms: C_52  and  C_53
REMARK   24  A    between atoms: C_52  and  C_54
REMARK   25  A    between atoms: C_55  and  N_56
REMARK   26  A    between atoms: N_56  and  C_57
REMARK   27  A    between atoms: O_60  and  C_61
REMARK   28  A    between atoms: O_62  and  C_63
REMARK   29  A    between atoms: O_64  and  C_65
REMARK                            x       y       z     vdW  Elec       q    Type
REMARK                         _______ _______ _______ _____ _____    ______ ____
ROOT
ATOM      1  C   UNL     1     158.371 168.119 183.747  0.00  0.00    -0.038 C 
ATOM      2  C   UNL     1     158.324 167.150 184.962  0.00  0.00    -0.012 C 
ATOM      3  C   UNL     1     158.555 165.651 184.670  0.00  0.00    +0.115 C 
ATOM      4  C   UNL     1     158.363 164.769 185.918  0.00  0.00    +0.082 C 
ATOM      5  C   UNL     1     156.944 164.429 186.317  0.00  0.00    +0.311 C 
ATOM      6  O   UNL     1     156.639 163.383 186.882  0.00  0.00    -0.251 OA
ATOM      7  O   UNL     1     156.076 165.415 186.007  0.00  0.00    -0.461 OA
ATOM      8  C   UNL     1     154.684 165.311 186.399  0.00  0.00    +0.110 C 
ATOM      9  C   UNL     1     153.883 165.083 185.070  0.00  0.00    +0.020 C 
ATOM     10  C   UNL     1     154.029 163.605 184.599  0.00  0.00    +0.068 C 
ATOM     11  C   UNL     1     153.831 163.317 183.078  0.00  0.00    -0.008 C 
ATOM     12  C   UNL     1     153.466 164.464 182.188  0.00  0.00    -0.077 C 
ATOM     13  C   UNL     1     152.417 164.493 181.348  0.00  0.00    -0.003 C 
ATOM     14  C   UNL     1     152.146 165.681 180.616  0.00  0.00    +0.220 A 
ATOM     15  N   UNL     1     152.681 166.864 180.864  0.00  0.00    -0.205 NA
ATOM     16  C   UNL     1     152.135 167.718 179.941  0.00  0.00    +0.164 A 
ATOM     17  C   UNL     1     151.277 167.032 179.133  0.00  0.00    +0.125 A 
ATOM     18  O   UNL     1     151.271 165.731 179.547  0.00  0.00    -0.443 OA
ATOM     19  C   UNL     1     152.495 169.227 179.855  0.00  0.00    +0.250 A 
ATOM     20  N   UNL     1     153.409 169.776 180.638  0.00  0.00    -0.203 NA
ATOM     21  C   UNL     1     153.465 171.083 180.235  0.00  0.00    +0.164 A 
ATOM     22  C   UNL     1     152.557 171.299 179.232  0.00  0.00    +0.125 A 
ATOM     23  O   UNL     1     151.928 170.114 178.973  0.00  0.00    -0.442 OA
ATOM     24  C   UNL     1     154.436 172.145 180.831  0.00  0.00    +0.249 A 
ATOM     25  N   UNL     1     155.331 171.870 181.760  0.00  0.00    -0.210 NA
ATOM     26  C   UNL     1     155.997 173.046 181.988  0.00  0.00    +0.109 A 
ATOM     27  C   UNL     1     155.457 174.019 181.176  0.00  0.00    +0.118 A 
ATOM     28  O   UNL     1     154.462 173.459 180.430  0.00  0.00    -0.442 OA
ATOM     29  C   UNL     1     157.114 173.190 182.984  0.00  0.00    +0.108 C 
ATOM     30  C   UNL     1     157.337 171.986 183.946  0.00  0.00    +0.014 C 
ATOM     31  C   UNL     1     157.750 170.645 183.251  0.00  0.00    +0.061 C 
ATOM     32  C   UNL     1     158.103 169.552 184.289  0.00  0.00    -0.024 C 
ATOM     33  H   UNL     1     157.556 167.849 183.060  0.00  0.00    +0.030 HD
ATOM     34  H   UNL     1     157.336 167.279 185.410  0.00  0.00    +0.030 HD
ATOM     35  H   UNL     1     159.054 167.473 185.712  0.00  0.00    +0.030 HD
ATOM     36  H   UNL     1     159.610 165.555 184.376  0.00  0.00    +0.074 HD
ATOM     37  H   UNL     1     158.861 165.213 186.785  0.00  0.00    +0.041 HD
ATOM     38  H   UNL     1     158.844 163.803 185.722  0.00  0.00    +0.041 HD
ATOM     39  H   UNL     1     154.505 164.470 187.072  0.00  0.00    +0.074 HD
ATOM     40  H   UNL     1     154.357 165.732 184.325  0.00  0.00    +0.036 HD
ATOM     41  H   UNL     1     155.039 163.258 184.843  0.00  0.00    +0.060 HD
ATOM     42  H   UNL     1     153.118 162.493 182.932  0.00  0.00    +0.033 HD
ATOM     43  H   UNL     1     154.792 162.938 182.702  0.00  0.00    +0.033 HD
ATOM     44  H   UNL     1     154.119 165.339 182.235  0.00  0.00    +0.057 HD
ATOM     45  H   UNL     1     151.747 163.652 181.237  0.00  0.00    +0.067 HD
ATOM     46  H   UNL     1     150.649 167.279 178.292  0.00  0.00    +0.105 HD
ATOM     47  H   UNL     1     152.267 172.149 178.634  0.00  0.00    +0.105 HD
ATOM     48  H   UNL     1     155.645 175.068 181.016  0.00  0.00    +0.105 HD
ATOM     49  H   UNL     1     156.839 174.060 183.601  0.00  0.00    +0.067 HD
ATOM     50  H   UNL     1     158.194 172.269 184.573  0.00  0.00    +0.035 HD
ATOM     51  H   UNL     1     156.941 170.271 182.619  0.00  0.00    +0.060 HD
ATOM     52  H   UNL     1     157.276 169.469 185.000  0.00  0.00    +0.029 HD
ATOM     53  H   UNL     1     158.985 169.882 184.856  0.00  0.00    +0.029 HD
ENDROOT
BRANCH   1  54
ATOM     54  C   UNL     1     159.695 168.016 182.989  0.00  0.00    -0.062 C 
ATOM     55  H   UNL     1     160.341 167.243 183.420  0.00  0.00    +0.023 HD
ATOM     56  H   UNL     1     160.233 168.965 183.006  0.00  0.00    +0.023 HD
ATOM     57  H   UNL     1     159.539 167.779 181.930  0.00  0.00    +0.023 HD
ENDBRANCH   1  54
BRANCH  30  58
ATOM     58  C   UNL     1     156.131 171.832 184.883  0.00  0.00    -0.057 C 
ATOM     59  H   UNL     1     156.441 171.729 185.932  0.00  0.00    +0.023 HD
ATOM     60  H   UNL     1     155.488 172.720 184.843  0.00  0.00    +0.023 HD
ATOM     61  H   UNL     1     155.523 170.956 184.625  0.00  0.00    +0.023 HD
ENDBRANCH  30  58
BRANCH   9  62
ATOM     62  C   UNL     1     152.406 165.484 185.195  0.00  0.00    -0.057 C 
ATOM     63  H   UNL     1     152.217 166.436 184.684  0.00  0.00    +0.023 HD
ATOM     64  H   UNL     1     152.103 165.590 186.243  0.00  0.00    +0.023 HD
ATOM     65  H   UNL     1     151.742 164.745 184.735  0.00  0.00    +0.023 HD
ENDBRANCH   9  62
BRANCH   8  66
ATOM     66  C   UNL     1     154.335 166.638 187.107  0.00  0.00    +0.011 C 
ATOM     67  H   UNL     1     153.328 166.967 186.828  0.00  0.00    +0.033 HD
ATOM     68  H   UNL     1     155.035 167.394 186.724  0.00  0.00    +0.033 HD
BRANCH  66  69
ATOM     69  C   UNL     1     154.421 166.714 188.653  0.00  0.00    +0.064 C 
ATOM     70  H   UNL     1     154.993 167.636 188.838  0.00  0.00    +0.060 HD
BRANCH  69  71
ATOM     71  C   UNL     1     153.057 166.890 189.384  0.00  0.00    -0.017 C 
ATOM     72  H   UNL     1     153.167 167.701 190.115  0.00  0.00    +0.032 HD
BRANCH  71  73
ATOM     73  C   UNL     1     151.891 167.231 188.448  0.00  0.00    -0.060 C 
ATOM     74  H   UNL     1     152.003 166.733 187.483  0.00  0.00    +0.023 HD
ATOM     75  H   UNL     1     151.800 168.298 188.267  0.00  0.00    +0.023 HD
ATOM     76  H   UNL     1     150.942 166.907 188.886  0.00  0.00    +0.023 HD
ENDBRANCH  71  73
BRANCH  71  77
ATOM     77  C   UNL     1     152.736 165.577 190.161  0.00  0.00    -0.041 C 
ATOM     78  H   UNL     1     153.328 165.548 191.086  0.00  0.00    +0.027 HD
ATOM     79  H   UNL     1     153.062 164.722 189.560  0.00  0.00    +0.027 HD
BRANCH  77  80
ATOM     80  C   UNL     1     151.262 165.364 190.524  0.00  0.00    +0.007 C 
ATOM     81  H   UNL     1     150.644 166.138 190.069  0.00  0.00    +0.034 HD
ATOM     82  H   UNL     1     150.948 164.401 190.110  0.00  0.00    +0.034 HD
BRANCH  80  83
ATOM     83  C   UNL     1     151.014 165.300 192.024  0.00  0.00    +0.139 C 
ATOM     84  O   UNL     1     150.580 164.276 192.564  0.00  0.00    -0.297 OA
BRANCH  83  85
ATOM     85  C   UNL     1     151.284 166.542 192.879  0.00  0.00    +0.041 C 
ATOM     86  H   UNL     1     152.179 167.014 192.456  0.00  0.00    +0.040 HD
BRANCH  85  87
ATOM     87  C   UNL     1     151.655 166.156 194.313  0.00  0.00    -0.053 C 
ATOM     88  H   UNL     1     152.359 165.318 194.315  0.00  0.00    +0.024 HD
ATOM     89  H   UNL     1     152.130 166.999 194.825  0.00  0.00    +0.024 HD
ATOM     90  H   UNL     1     150.783 165.852 194.902  0.00  0.00    +0.024 HD
ENDBRANCH  85  87
BRANCH  85  91
ATOM     91  C   UNL     1     150.120 167.559 192.818  0.00  0.00    +0.074 C 
ATOM     92  H   UNL     1     149.986 167.964 193.833  0.00  0.00    +0.061 HD
BRANCH  91  93
ATOM     93  C   UNL     1     150.369 168.746 191.841  0.00  0.00    +0.003 C 
ATOM     94  H   UNL     1     150.162 168.408 190.817  0.00  0.00    +0.037 HD
BRANCH  93  95
ATOM     95  C   UNL     1     151.809 169.269 191.895  0.00  0.00    -0.057 C 
ATOM     96  H   UNL     1     151.846 170.289 192.290  0.00  0.00    +0.024 HD
ATOM     97  H   UNL     1     152.444 168.642 192.524  0.00  0.00    +0.024 HD
ATOM     98  H   UNL     1     152.259 169.277 190.896  0.00  0.00    +0.024 HD
ENDBRANCH  93  95
BRANCH  93  99
ATOM     99  C   UNL     1     149.441 169.912 192.148  0.00  0.00    -0.065 C 
ATOM    100  C   UNL     1     149.590 171.125 191.591  0.00  0.00    -0.005 C 
ATOM    101  H   UNL     1     148.653 169.705 192.864  0.00  0.00    +0.059 HD
ATOM    102  H   UNL     1     150.410 171.275 190.886  0.00  0.00    +0.078 HD
BRANCH 100 103
ATOM    103  N   UNL     1     148.820 172.254 191.816  0.00  0.00    -0.284 N 
ATOM    104  C   UNL     1     147.898 172.796 190.932  0.00  0.00    +0.206 C 
ATOM    105  O   UNL     1     147.134 173.719 191.172  0.00  0.00    -0.279 OA
ATOM    106  H   UNL     1     147.895 172.310 189.946  0.00  0.00    +0.126 HD
BRANCH 103 107
ATOM    107  C   UNL     1     148.911 172.864 193.137  0.00  0.00    +0.007 C 
ATOM    108  H   UNL     1     149.935 172.848 193.523  0.00  0.00    +0.043 HD
ATOM    109  H   UNL     1     148.268 172.332 193.847  0.00  0.00    +0.043 HD
ATOM    110  H   UNL     1     148.585 173.905 193.049  0.00  0.00    +0.043 HD
ENDBRANCH 103 107
ENDBRANCH 100 103
ENDBRANCH  93  99
ENDBRANCH  91  93
BRANCH  91 111
ATOM    111  O   UNL     1     148.932 166.853 192.414  0.00  0.00    -0.379 OA
BRANCH 111 112
ATOM    112  C   UNL     1     147.956 166.756 193.446  0.00  0.00    +0.037 C 
ATOM    113  H   UNL     1     148.467 166.838 194.406  0.00  0.00    +0.052 HD
ATOM    114  H   UNL     1     147.234 167.573 193.362  0.00  0.00    +0.052 HD
ATOM    115  H   UNL     1     147.440 165.793 193.406  0.00  0.00    +0.052 HD
ENDBRANCH 111 112
ENDBRANCH  91 111
ENDBRANCH  85  91
ENDBRANCH  83  85
ENDBRANCH  80  83
ENDBRANCH  77  80
ENDBRANCH  71  77
ENDBRANCH  69  71
BRANCH  69 116
ATOM    116  O   UNL     1     155.128 165.601 189.200  0.00  0.00    -0.379 OA
BRANCH 116 117
ATOM    117  C   UNL     1     156.468 165.922 189.560  0.00  0.00    +0.037 C 
ATOM    118  H   UNL     1     156.908 165.056 190.062  0.00  0.00    +0.052 HD
ATOM    119  H   UNL     1     156.484 166.768 190.253  0.00  0.00    +0.052 HD
ATOM    120  H   UNL     1     157.064 166.152 188.671  0.00  0.00    +0.052 HD
ENDBRANCH 116 117
ENDBRANCH  69 116
ENDBRANCH  66  69
ENDBRANCH   8  66
BRANCH  31 121
ATOM    121  O   UNL     1     158.892 170.838 182.412  0.00  0.00    -0.391 OA
ATOM    122  H   UNL     1     159.482 171.507 182.827  0.00  0.00    +0.210 HD
ENDBRANCH  31 121
BRANCH  29 123
ATOM    123  O   UNL     1     158.337 173.493 182.285  0.00  0.00    -0.373 OA
BRANCH 123 124
ATOM    124  C   UNL     1     158.758 174.842 182.488  0.00  0.00    +0.037 C 
ATOM    125  H   UNL     1     158.220 175.511 181.814  0.00  0.00    +0.052 HD
ATOM    126  H   UNL     1     159.825 174.907 182.259  0.00  0.00    +0.052 HD
ATOM    127  H   UNL     1     158.604 175.145 183.526  0.00  0.00    +0.052 HD
ENDBRANCH 123 124
ENDBRANCH  29 123
BRANCH  10 128
ATOM    128  O   UNL     1     153.098 162.805 185.360  0.00  0.00    -0.379 OA
BRANCH 128 129
ATOM    129  C   UNL     1     153.694 161.647 185.936  0.00  0.00    +0.037 C 
ATOM    130  H   UNL     1     153.549 160.780 185.287  0.00  0.00    +0.052 HD
ATOM    131  H   UNL     1     153.292 161.447 186.931  0.00  0.00    +0.052 HD
ATOM    132  H   UNL     1     154.763 161.835 186.034  0.00  0.00    +0.052 HD
ENDBRANCH 128 129
ENDBRANCH  10 128
BRANCH   3 133
ATOM    133  O   UNL     1     157.724 165.228 183.575  0.00  0.00    -0.447 OA
BRANCH 133 134
ATOM    134  C   UNL     1     158.260 164.305 182.746  0.00  0.00    +0.398 C 
ATOM    135  O   UNL     1     159.296 164.423 182.109  0.00  0.00    -0.227 OA
ATOM    136  N   UNL     1     157.473 163.211 182.691  0.00  0.00    -0.295 N 
ATOM    137  H   UNL     1     157.714 162.464 182.063  0.00  0.00    +0.148 HD
ATOM    138  H   UNL     1     156.567 163.218 183.142  0.00  0.00    +0.148 HD
ENDBRANCH 133 134
ENDBRANCH   3 133
TORSDOF 29
ENDMDL
