MODEL 1
REMARK VINA RESULT:      -7.2      0.000      0.000
REMARK  Name = Latrunculin B_conf3
REMARK  4 active torsions:
REMARK  status: ('A' for Active; 'I' for Inactive)
REMARK    1  A    between atoms: C_1  and  C_2
REMARK    2  A    between atoms: C_9  and  C_11
REMARK    3  A    between atoms: C_9  and  O_17
REMARK    4  A    between atoms: C_22  and  C_27
REMARK                            x       y       z     vdW  Elec       q    Type
REMARK                         _______ _______ _______ _____ _____    ______ ____
ROOT
ATOM      1  C   UNL     1     132.859 158.360 196.219  0.00  0.00    -0.026 C 
ATOM      2  C   UNL     1     131.907 158.681 197.391  0.00  0.00    -0.045 C 
ATOM      3  C   UNL     1     132.262 159.966 198.155  0.00  0.00    -0.026 C 
ATOM      4  C   UNL     1     133.573 159.900 198.957  0.00  0.00    +0.065 C 
ATOM      5  C   UNL     1     133.489 158.926 200.135  0.00  0.00    +0.011 C 
ATOM      6  C   UNL     1     134.783 158.956 200.950  0.00  0.00    +0.111 C 
ATOM      7  C   UNL     1     135.125 160.395 201.347  0.00  0.00    +0.040 C 
ATOM      8  C   UNL     1     135.089 161.347 200.137  0.00  0.00    +0.190 C 
ATOM      9  O   UNL     1     133.834 161.217 199.457  0.00  0.00    -0.344 OA
ATOM     10  O   UNL     1     135.881 158.435 200.169  0.00  0.00    -0.458 OA
ATOM     11  C   UNL     1     135.922 157.081 200.066  0.00  0.00    +0.332 C 
ATOM     12  O   UNL     1     135.177 156.284 200.609  0.00  0.00    -0.246 OA
ATOM     13  C   UNL     1     137.017 156.724 199.147  0.00  0.00    +0.021 C 
ATOM     14  C   UNL     1     136.839 156.019 198.011  0.00  0.00    -0.066 C 
ATOM     15  C   UNL     1     135.490 155.543 197.495  0.00  0.00    -0.028 C 
ATOM     16  C   UNL     1     135.131 156.154 196.133  0.00  0.00    -0.031 C 
ATOM     17  C   UNL     1     133.674 155.971 195.801  0.00  0.00    -0.087 C 
ATOM     18  C   UNL     1     132.710 156.909 195.818  0.00  0.00    -0.085 C 
ATOM     19  H   UNL     1     133.886 158.545 196.538  0.00  0.00    +0.034 HD
ATOM     20  H   UNL     1     131.875 157.841 198.094  0.00  0.00    +0.027 HD
ATOM     21  H   UNL     1     130.883 158.783 197.007  0.00  0.00    +0.027 HD
ATOM     22  H   UNL     1     131.440 160.206 198.843  0.00  0.00    +0.029 HD
ATOM     23  H   UNL     1     132.305 160.816 197.462  0.00  0.00    +0.029 HD
ATOM     24  H   UNL     1     134.389 159.621 198.283  0.00  0.00    +0.060 HD
ATOM     25  H   UNL     1     133.294 157.914 199.773  0.00  0.00    +0.033 HD
ATOM     26  H   UNL     1     132.659 159.214 200.791  0.00  0.00    +0.033 HD
ATOM     27  H   UNL     1     134.675 158.362 201.865  0.00  0.00    +0.074 HD
ATOM     28  H   UNL     1     136.121 160.408 201.805  0.00  0.00    +0.035 HD
ATOM     29  H   UNL     1     134.392 160.724 202.092  0.00  0.00    +0.035 HD
ATOM     30  H   UNL     1     137.997 157.073 199.453  0.00  0.00    +0.069 HD
ATOM     31  H   UNL     1     135.507 154.448 197.417  0.00  0.00    +0.031 HD
ATOM     32  H   UNL     1     134.692 155.779 198.207  0.00  0.00    +0.031 HD
ATOM     33  H   UNL     1     135.416 157.211 196.104  0.00  0.00    +0.031 HD
ATOM     34  H   UNL     1     135.719 155.669 195.343  0.00  0.00    +0.031 HD
ATOM     35  H   UNL     1     133.391 154.961 195.503  0.00  0.00    +0.057 HD
ATOM     36  H   UNL     1     131.704 156.601 195.530  0.00  0.00    +0.057 HD
ENDROOT
BRANCH   8  37
ATOM     37  C   UNL     1     135.182 162.838 200.613  0.00  0.00    +0.087 C 
ATOM     38  C   UNL     1     134.070 163.212 201.599  0.00  0.00    +0.026 C 
ATOM     39  S   UNL     1     132.835 164.119 200.620  0.00  0.00    -0.066 S 
ATOM     40  C   UNL     1     133.962 164.478 199.339  0.00  0.00    +0.272 C 
ATOM     41  O   UNL     1     133.743 165.243 198.415  0.00  0.00    -0.263 OA
ATOM     42  N   UNL     1     135.132 163.809 199.535  0.00  0.00    -0.298 N 
ATOM     43  H   UNL     1     136.148 162.969 201.116  0.00  0.00    +0.056 HD
ATOM     44  H   UNL     1     133.623 162.359 202.116  0.00  0.00    +0.040 HD
ATOM     45  H   UNL     1     134.459 163.904 202.354  0.00  0.00    +0.040 HD
ATOM     46  H   UNL     1     135.878 163.960 198.869  0.00  0.00    +0.150 HD
ENDBRANCH   8  37
BRANCH   1  47
ATOM     47  C   UNL     1     132.589 159.256 195.008  0.00  0.00    -0.059 C 
ATOM     48  H   UNL     1     133.461 159.879 194.781  0.00  0.00    +0.024 HD
ATOM     49  H   UNL     1     132.357 158.667 194.115  0.00  0.00    +0.024 HD
ATOM     50  H   UNL     1     131.747 159.930 195.195  0.00  0.00    +0.024 HD
ENDBRANCH   1  47
BRANCH  14  51
ATOM     51  C   UNL     1     138.028 155.649 197.163  0.00  0.00    -0.043 C 
ATOM     52  H   UNL     1     138.735 155.008 197.702  0.00  0.00    +0.027 HD
ATOM     53  H   UNL     1     138.571 156.544 196.845  0.00  0.00    +0.027 HD
ATOM     54  H   UNL     1     137.703 155.102 196.272  0.00  0.00    +0.027 HD
ENDBRANCH  14  51
BRANCH   8  55
ATOM     55  O   UNL     1     136.165 161.082 199.244  0.00  0.00    -0.363 OA
ATOM     56  H   UNL     1     136.228 160.118 199.126  0.00  0.00    +0.213 HD
ENDBRANCH   8  55
TORSDOF 4
ENDMDL
MODEL 2
REMARK VINA RESULT:      -7.0     16.227     18.548
REMARK  Name = Latrunculin B_conf3
REMARK  4 active torsions:
REMARK  status: ('A' for Active; 'I' for Inactive)
REMARK    1  A    between atoms: C_1  and  C_2
REMARK    2  A    between atoms: C_9  and  C_11
REMARK    3  A    between atoms: C_9  and  O_17
REMARK    4  A    between atoms: C_22  and  C_27
REMARK                            x       y       z     vdW  Elec       q    Type
REMARK                         _______ _______ _______ _____ _____    ______ ____
ROOT
ATOM      1  C   UNL     1     144.420 169.951 190.348  0.00  0.00    -0.026 C 
ATOM      2  C   UNL     1     145.313 169.053 189.465  0.00  0.00    -0.045 C 
ATOM      3  C   UNL     1     145.925 167.854 190.205  0.00  0.00    -0.026 C 
ATOM      4  C   UNL     1     146.974 168.216 191.269  0.00  0.00    +0.065 C 
ATOM      5  C   UNL     1     148.247 168.806 190.658  0.00  0.00    +0.011 C 
ATOM      6  C   UNL     1     149.290 169.073 191.745  0.00  0.00    +0.111 C 
ATOM      7  C   UNL     1     149.520 167.810 192.579  0.00  0.00    +0.040 C 
ATOM      8  C   UNL     1     148.195 167.203 193.077  0.00  0.00    +0.190 C 
ATOM      9  O   UNL     1     147.305 167.011 191.969  0.00  0.00    -0.344 OA
ATOM     10  O   UNL     1     148.836 170.119 192.632  0.00  0.00    -0.458 OA
ATOM     11  C   UNL     1     148.954 171.381 192.142  0.00  0.00    +0.332 C 
ATOM     12  O   UNL     1     149.453 171.708 191.080  0.00  0.00    -0.246 OA
ATOM     13  C   UNL     1     148.340 172.307 193.109  0.00  0.00    +0.021 C 
ATOM     14  C   UNL     1     147.315 173.129 192.808  0.00  0.00    -0.066 C 
ATOM     15  C   UNL     1     146.619 173.180 191.457  0.00  0.00    -0.028 C 
ATOM     16  C   UNL     1     145.134 172.796 191.544  0.00  0.00    -0.031 C 
ATOM     17  C   UNL     1     144.549 172.501 190.189  0.00  0.00    -0.087 C 
ATOM     18  C   UNL     1     144.227 171.297 189.685  0.00  0.00    -0.085 C 
ATOM     19  H   UNL     1     144.906 170.089 191.315  0.00  0.00    +0.034 HD
ATOM     20  H   UNL     1     146.117 169.646 189.014  0.00  0.00    +0.027 HD
ATOM     21  H   UNL     1     144.720 168.671 188.623  0.00  0.00    +0.027 HD
ATOM     22  H   UNL     1     146.388 167.184 189.467  0.00  0.00    +0.029 HD
ATOM     23  H   UNL     1     145.131 167.254 190.669  0.00  0.00    +0.029 HD
ATOM     24  H   UNL     1     146.529 168.916 191.984  0.00  0.00    +0.060 HD
ATOM     25  H   UNL     1     148.015 169.730 190.123  0.00  0.00    +0.033 HD
ATOM     26  H   UNL     1     148.670 168.097 189.937  0.00  0.00    +0.033 HD
ATOM     27  H   UNL     1     150.246 169.369 191.295  0.00  0.00    +0.074 HD
ATOM     28  H   UNL     1     150.161 168.062 193.432  0.00  0.00    +0.035 HD
ATOM     29  H   UNL     1     150.043 167.079 191.951  0.00  0.00    +0.035 HD
ATOM     30  H   UNL     1     148.779 172.283 194.100  0.00  0.00    +0.069 HD
ATOM     31  H   UNL     1     146.716 174.193 191.046  0.00  0.00    +0.031 HD
ATOM     32  H   UNL     1     147.111 172.517 190.738  0.00  0.00    +0.031 HD
ATOM     33  H   UNL     1     144.999 171.951 192.228  0.00  0.00    +0.031 HD
ATOM     34  H   UNL     1     144.563 173.625 191.984  0.00  0.00    +0.031 HD
ATOM     35  H   UNL     1     144.360 173.376 189.566  0.00  0.00    +0.057 HD
ATOM     36  H   UNL     1     143.794 171.270 188.684  0.00  0.00    +0.057 HD
ENDROOT
BRANCH   8  37
ATOM     37  C   UNL     1     148.443 165.785 193.696  0.00  0.00    +0.087 C 
ATOM     38  C   UNL     1     147.913 165.667 195.129  0.00  0.00    +0.026 C 
ATOM     39  S   UNL     1     149.367 165.849 196.205  0.00  0.00    -0.066 S 
ATOM     40  C   UNL     1     150.490 165.466 194.927  0.00  0.00    +0.272 C 
ATOM     41  O   UNL     1     151.682 165.265 195.085  0.00  0.00    -0.263 OA
ATOM     42  N   UNL     1     149.841 165.390 193.732  0.00  0.00    -0.298 N 
ATOM     43  H   UNL     1     147.920 165.050 193.072  0.00  0.00    +0.056 HD
ATOM     44  H   UNL     1     147.136 166.392 195.381  0.00  0.00    +0.040 HD
ATOM     45  H   UNL     1     147.509 164.662 195.295  0.00  0.00    +0.040 HD
ATOM     46  H   UNL     1     150.384 165.145 192.915  0.00  0.00    +0.150 HD
ENDBRANCH   8  37
BRANCH   1  47
ATOM     47  C   UNL     1     143.056 169.309 190.611  0.00  0.00    -0.059 C 
ATOM     48  H   UNL     1     142.244 169.986 190.325  0.00  0.00    +0.024 HD
ATOM     49  H   UNL     1     142.932 168.381 190.044  0.00  0.00    +0.024 HD
ATOM     50  H   UNL     1     142.927 169.075 191.672  0.00  0.00    +0.024 HD
ENDBRANCH   1  47
BRANCH  14  51
ATOM     51  C   UNL     1     146.791 174.087 193.847  0.00  0.00    -0.043 C 
ATOM     52  H   UNL     1     146.514 173.577 194.776  0.00  0.00    +0.027 HD
ATOM     53  H   UNL     1     145.902 174.609 193.479  0.00  0.00    +0.027 HD
ATOM     54  H   UNL     1     147.555 174.831 194.097  0.00  0.00    +0.027 HD
ENDBRANCH  14  51
BRANCH   8  55
ATOM     55  O   UNL     1     147.589 168.034 194.060  0.00  0.00    -0.363 OA
ATOM     56  H   UNL     1     147.789 167.660 194.936  0.00  0.00    +0.213 HD
ENDBRANCH   8  55
TORSDOF 4
ENDMDL
MODEL 3
REMARK VINA RESULT:      -6.8      3.528      6.668
REMARK  Name = Latrunculin B_conf3
REMARK  4 active torsions:
REMARK  status: ('A' for Active; 'I' for Inactive)
REMARK    1  A    between atoms: C_1  and  C_2
REMARK    2  A    between atoms: C_9  and  C_11
REMARK    3  A    between atoms: C_9  and  O_17
REMARK    4  A    between atoms: C_22  and  C_27
REMARK                            x       y       z     vdW  Elec       q    Type
REMARK                         _______ _______ _______ _____ _____    ______ ____
ROOT
ATOM      1  C   UNL     1     132.068 158.833 197.019  0.00  0.00    -0.026 C 
ATOM      2  C   UNL     1     133.294 158.165 196.361  0.00  0.00    -0.045 C 
ATOM      3  C   UNL     1     133.788 156.904 197.086  0.00  0.00    -0.026 C 
ATOM      4  C   UNL     1     134.401 157.154 198.474  0.00  0.00    +0.065 C 
ATOM      5  C   UNL     1     135.719 157.928 198.400  0.00  0.00    +0.011 C 
ATOM      6  C   UNL     1     136.332 158.080 199.793  0.00  0.00    +0.111 C 
ATOM      7  C   UNL     1     136.444 156.713 200.473  0.00  0.00    +0.040 C 
ATOM      8  C   UNL     1     135.115 155.937 200.422  0.00  0.00    +0.190 C 
ATOM      9  O   UNL     1     134.644 155.873 199.069  0.00  0.00    -0.344 OA
ATOM     10  O   UNL     1     135.500 158.924 200.619  0.00  0.00    -0.458 OA
ATOM     11  C   UNL     1     135.609 160.256 200.374  0.00  0.00    +0.332 C 
ATOM     12  O   UNL     1     136.370 160.795 199.589  0.00  0.00    -0.246 OA
ATOM     13  C   UNL     1     134.617 160.958 201.207  0.00  0.00    +0.021 C 
ATOM     14  C   UNL     1     133.644 161.744 200.704  0.00  0.00    -0.066 C 
ATOM     15  C   UNL     1     133.401 161.974 199.221  0.00  0.00    -0.028 C 
ATOM     16  C   UNL     1     132.021 161.477 198.764  0.00  0.00    -0.031 C 
ATOM     17  C   UNL     1     131.927 161.375 197.266  0.00  0.00    -0.087 C 
ATOM     18  C   UNL     1     131.928 160.255 196.523  0.00  0.00    -0.085 C 
ATOM     19  H   UNL     1     132.209 158.839 198.102  0.00  0.00    +0.034 HD
ATOM     20  H   UNL     1     134.120 158.882 196.283  0.00  0.00    +0.027 HD
ATOM     21  H   UNL     1     133.044 157.890 195.327  0.00  0.00    +0.027 HD
ATOM     22  H   UNL     1     134.536 156.404 196.455  0.00  0.00    +0.029 HD
ATOM     23  H   UNL     1     132.969 156.179 197.178  0.00  0.00    +0.029 HD
ATOM     24  H   UNL     1     133.674 157.688 199.093  0.00  0.00    +0.060 HD
ATOM     25  H   UNL     1     135.554 158.911 197.951  0.00  0.00    +0.033 HD
ATOM     26  H   UNL     1     136.429 157.384 197.765  0.00  0.00    +0.033 HD
ATOM     27  H   UNL     1     137.337 158.516 199.725  0.00  0.00    +0.074 HD
ATOM     28  H   UNL     1     136.752 156.861 201.515  0.00  0.00    +0.035 HD
ATOM     29  H   UNL     1     137.222 156.139 199.955  0.00  0.00    +0.035 HD
ATOM     30  H   UNL     1     134.725 160.797 202.273  0.00  0.00    +0.069 HD
ATOM     31  H   UNL     1     133.496 163.047 199.008  0.00  0.00    +0.031 HD
ATOM     32  H   UNL     1     134.169 161.481 198.617  0.00  0.00    +0.031 HD
ATOM     33  H   UNL     1     131.785 160.520 199.243  0.00  0.00    +0.031 HD
ATOM     34  H   UNL     1     131.245 162.175 199.104  0.00  0.00    +0.031 HD
ATOM     35  H   UNL     1     131.836 162.328 196.743  0.00  0.00    +0.057 HD
ATOM     36  H   UNL     1     131.834 160.368 195.442  0.00  0.00    +0.057 HD
ENDROOT
BRANCH   8  37
ATOM     37  C   UNL     1     135.330 154.455 200.886  0.00  0.00    +0.087 C 
ATOM     38  C   UNL     1     135.114 153.446 199.754  0.00  0.00    +0.026 C 
ATOM     39  S   UNL     1     133.448 152.767 200.018  0.00  0.00    -0.066 S 
ATOM     40  C   UNL     1     133.397 153.262 201.688  0.00  0.00    +0.272 C 
ATOM     41  O   UNL     1     132.539 152.929 202.487  0.00  0.00    -0.263 OA
ATOM     42  N   UNL     1     134.471 154.047 201.983  0.00  0.00    -0.298 N 
ATOM     43  H   UNL     1     136.365 154.362 201.239  0.00  0.00    +0.056 HD
ATOM     44  H   UNL     1     135.219 153.867 198.751  0.00  0.00    +0.040 HD
ATOM     45  H   UNL     1     135.823 152.617 199.853  0.00  0.00    +0.040 HD
ATOM     46  H   UNL     1     134.568 154.374 202.935  0.00  0.00    +0.150 HD
ENDBRANCH   8  37
BRANCH   1  47
ATOM     47  C   UNL     1     130.779 158.060 196.732  0.00  0.00    -0.059 C 
ATOM     48  H   UNL     1     129.944 158.460 197.317  0.00  0.00    +0.024 HD
ATOM     49  H   UNL     1     130.503 158.118 195.673  0.00  0.00    +0.024 HD
ATOM     50  H   UNL     1     130.885 157.003 196.995  0.00  0.00    +0.024 HD
ENDBRANCH   1  47
BRANCH  14  51
ATOM     51  C   UNL     1     132.709 162.471 201.637  0.00  0.00    -0.043 C 
ATOM     52  H   UNL     1     132.578 163.521 201.355  0.00  0.00    +0.027 HD
ATOM     53  H   UNL     1     133.092 162.450 202.662  0.00  0.00    +0.027 HD
ATOM     54  H   UNL     1     131.720 162.002 201.624  0.00  0.00    +0.027 HD
ENDBRANCH  14  51
BRANCH   8  55
ATOM     55  O   UNL     1     134.136 156.543 201.259  0.00  0.00    -0.363 OA
ATOM     56  H   UNL     1     134.051 157.477 200.997  0.00  0.00    +0.213 HD
ENDBRANCH   8  55
TORSDOF 4
ENDMDL
MODEL 4
REMARK VINA RESULT:      -6.3      4.837      7.550
REMARK  Name = Latrunculin B_conf3
REMARK  4 active torsions:
REMARK  status: ('A' for Active; 'I' for Inactive)
REMARK    1  A    between atoms: C_1  and  C_2
REMARK    2  A    between atoms: C_9  and  C_11
REMARK    3  A    between atoms: C_9  and  O_17
REMARK    4  A    between atoms: C_22  and  C_27
REMARK                            x       y       z     vdW  Elec       q    Type
REMARK                         _______ _______ _______ _____ _____    ______ ____
ROOT
ATOM      1  C   UNL     1     134.212 161.740 201.036  0.00  0.00    -0.026 C 
ATOM      2  C   UNL     1     135.073 162.999 200.797  0.00  0.00    -0.045 C 
ATOM      3  C   UNL     1     134.817 164.134 201.799  0.00  0.00    -0.026 C 
ATOM      4  C   UNL     1     133.434 164.798 201.686  0.00  0.00    +0.065 C 
ATOM      5  C   UNL     1     133.264 165.577 200.380  0.00  0.00    +0.011 C 
ATOM      6  C   UNL     1     131.909 166.286 200.349  0.00  0.00    +0.111 C 
ATOM      7  C   UNL     1     131.725 167.129 201.613  0.00  0.00    +0.040 C 
ATOM      8  C   UNL     1     132.013 166.318 202.891  0.00  0.00    +0.190 C 
ATOM      9  O   UNL     1     133.302 165.701 202.791  0.00  0.00    -0.344 OA
ATOM     10  O   UNL     1     130.837 165.319 200.297  0.00  0.00    -0.458 OA
ATOM     11  C   UNL     1     130.625 164.760 199.077  0.00  0.00    +0.332 C 
ATOM     12  O   UNL     1     131.197 165.037 198.037  0.00  0.00    -0.246 OA
ATOM     13  C   UNL     1     129.593 163.719 199.222  0.00  0.00    +0.021 C 
ATOM     14  C   UNL     1     129.790 162.423 198.910  0.00  0.00    -0.066 C 
ATOM     15  C   UNL     1     131.109 161.846 198.419  0.00  0.00    -0.028 C 
ATOM     16  C   UNL     1     131.685 160.792 199.376  0.00  0.00    -0.031 C 
ATOM     17  C   UNL     1     133.130 160.494 199.080  0.00  0.00    -0.087 C 
ATOM     18  C   UNL     1     134.204 160.878 199.792  0.00  0.00    -0.085 C 
ATOM     19  H   UNL     1     133.192 162.050 201.268  0.00  0.00    +0.034 HD
ATOM     20  H   UNL     1     134.919 163.375 199.779  0.00  0.00    +0.027 HD
ATOM     21  H   UNL     1     136.135 162.725 200.853  0.00  0.00    +0.027 HD
ATOM     22  H   UNL     1     135.589 164.905 201.664  0.00  0.00    +0.029 HD
ATOM     23  H   UNL     1     134.960 163.770 202.824  0.00  0.00    +0.029 HD
ATOM     24  H   UNL     1     132.661 164.028 201.779  0.00  0.00    +0.060 HD
ATOM     25  H   UNL     1     133.357 164.903 199.525  0.00  0.00    +0.033 HD
ATOM     26  H   UNL     1     134.054 166.334 200.299  0.00  0.00    +0.033 HD
ATOM     27  H   UNL     1     131.842 166.949 199.478  0.00  0.00    +0.074 HD
ATOM     28  H   UNL     1     130.698 167.513 201.636  0.00  0.00    +0.035 HD
ATOM     29  H   UNL     1     132.415 167.980 201.557  0.00  0.00    +0.035 HD
ATOM     30  H   UNL     1     128.643 164.075 199.605  0.00  0.00    +0.069 HD
ATOM     31  H   UNL     1     130.953 161.399 197.428  0.00  0.00    +0.031 HD
ATOM     32  H   UNL     1     131.854 162.636 198.276  0.00  0.00    +0.031 HD
ATOM     33  H   UNL     1     131.549 161.109 200.416  0.00  0.00    +0.031 HD
ATOM     34  H   UNL     1     131.121 159.855 199.278  0.00  0.00    +0.031 HD
ATOM     35  H   UNL     1     133.304 159.886 198.192  0.00  0.00    +0.057 HD
ATOM     36  H   UNL     1     135.184 160.555 199.438  0.00  0.00    +0.057 HD
ENDROOT
BRANCH   8  37
ATOM     37  C   UNL     1     132.072 167.268 204.137  0.00  0.00    +0.087 C 
ATOM     38  C   UNL     1     130.766 167.269 204.939  0.00  0.00    +0.026 C 
ATOM     39  S   UNL     1     129.892 168.785 204.444  0.00  0.00    -0.066 S 
ATOM     40  C   UNL     1     131.336 169.540 203.825  0.00  0.00    +0.272 C 
ATOM     41  O   UNL     1     131.417 170.706 203.478  0.00  0.00    -0.263 OA
ATOM     42  N   UNL     1     132.369 168.652 203.815  0.00  0.00    -0.298 N 
ATOM     43  H   UNL     1     132.878 166.912 204.791  0.00  0.00    +0.056 HD
ATOM     44  H   UNL     1     130.146 166.383 204.788  0.00  0.00    +0.040 HD
ATOM     45  H   UNL     1     130.986 167.355 206.009  0.00  0.00    +0.040 HD
ATOM     46  H   UNL     1     133.271 168.983 203.502  0.00  0.00    +0.150 HD
ENDBRANCH   8  37
BRANCH   1  47
ATOM     47  C   UNL     1     134.723 160.921 202.223  0.00  0.00    -0.059 C 
ATOM     48  H   UNL     1     134.070 161.047 203.094  0.00  0.00    +0.024 HD
ATOM     49  H   UNL     1     134.763 159.852 201.988  0.00  0.00    +0.024 HD
ATOM     50  H   UNL     1     135.727 161.239 202.520  0.00  0.00    +0.024 HD
ENDBRANCH   1  47
BRANCH  14  51
ATOM     51  C   UNL     1     128.655 161.439 199.035  0.00  0.00    -0.043 C 
ATOM     52  H   UNL     1     128.566 161.040 200.050  0.00  0.00    +0.027 HD
ATOM     53  H   UNL     1     128.801 160.592 198.358  0.00  0.00    +0.027 HD
ATOM     54  H   UNL     1     127.705 161.924 198.788  0.00  0.00    +0.027 HD
ENDBRANCH  14  51
BRANCH   8  55
ATOM     55  O   UNL     1     131.008 165.335 203.110  0.00  0.00    -0.363 OA
ATOM     56  H   UNL     1     130.779 164.941 202.250  0.00  0.00    +0.213 HD
ENDBRANCH   8  55
TORSDOF 4
ENDMDL
MODEL 5
REMARK VINA RESULT:      -6.3     16.090     17.922
REMARK  Name = Latrunculin B_conf3
REMARK  4 active torsions:
REMARK  status: ('A' for Active; 'I' for Inactive)
REMARK    1  A    between atoms: C_1  and  C_2
REMARK    2  A    between atoms: C_9  and  C_11
REMARK    3  A    between atoms: C_9  and  O_17
REMARK    4  A    between atoms: C_22  and  C_27
REMARK                            x       y       z     vdW  Elec       q    Type
REMARK                         _______ _______ _______ _____ _____    ______ ____
ROOT
ATOM      1  C   UNL     1     148.640 171.092 191.867  0.00  0.00    -0.026 C 
ATOM      2  C   UNL     1     147.837 171.074 190.549  0.00  0.00    -0.045 C 
ATOM      3  C   UNL     1     146.491 170.338 190.643  0.00  0.00    -0.026 C 
ATOM      4  C   UNL     1     146.598 168.818 190.848  0.00  0.00    +0.065 C 
ATOM      5  C   UNL     1     147.186 168.104 189.629  0.00  0.00    +0.011 C 
ATOM      6  C   UNL     1     147.196 166.590 189.847  0.00  0.00    +0.111 C 
ATOM      7  C   UNL     1     145.800 166.104 190.247  0.00  0.00    +0.040 C 
ATOM      8  C   UNL     1     145.218 166.930 191.409  0.00  0.00    +0.190 C 
ATOM      9  O   UNL     1     145.274 168.326 191.086  0.00  0.00    -0.344 OA
ATOM     10  O   UNL     1     148.112 166.240 190.907  0.00  0.00    -0.458 OA
ATOM     11  C   UNL     1     149.426 166.245 190.557  0.00  0.00    +0.332 C 
ATOM     12  O   UNL     1     149.885 166.450 189.447  0.00  0.00    -0.246 OA
ATOM     13  C   UNL     1     150.224 165.990 191.769  0.00  0.00    +0.021 C 
ATOM     14  C   UNL     1     151.156 166.841 192.242  0.00  0.00    -0.066 C 
ATOM     15  C   UNL     1     151.476 168.196 191.629  0.00  0.00    -0.028 C 
ATOM     16  C   UNL     1     151.193 169.360 192.589  0.00  0.00    -0.031 C 
ATOM     17  C   UNL     1     151.166 170.685 191.875  0.00  0.00    -0.087 C 
ATOM     18  C   UNL     1     150.087 171.432 191.583  0.00  0.00    -0.085 C 
ATOM     19  H   UNL     1     148.583 170.104 192.328  0.00  0.00    +0.034 HD
ATOM     20  H   UNL     1     148.435 170.628 189.747  0.00  0.00    +0.027 HD
ATOM     21  H   UNL     1     147.641 172.107 190.232  0.00  0.00    +0.027 HD
ATOM     22  H   UNL     1     145.919 170.531 189.725  0.00  0.00    +0.029 HD
ATOM     23  H   UNL     1     145.883 170.769 191.449  0.00  0.00    +0.029 HD
ATOM     24  H   UNL     1     147.202 168.620 191.739  0.00  0.00    +0.060 HD
ATOM     25  H   UNL     1     148.199 168.463 189.434  0.00  0.00    +0.033 HD
ATOM     26  H   UNL     1     146.575 168.324 188.745  0.00  0.00    +0.033 HD
ATOM     27  H   UNL     1     147.491 166.071 188.926  0.00  0.00    +0.074 HD
ATOM     28  H   UNL     1     145.862 165.047 190.533  0.00  0.00    +0.035 HD
ATOM     29  H   UNL     1     145.146 166.193 189.372  0.00  0.00    +0.035 HD
ATOM     30  H   UNL     1     150.006 165.051 192.265  0.00  0.00    +0.069 HD
ATOM     31  H   UNL     1     152.534 168.210 191.333  0.00  0.00    +0.031 HD
ATOM     32  H   UNL     1     150.906 168.354 190.708  0.00  0.00    +0.031 HD
ATOM     33  H   UNL     1     150.260 169.183 193.135  0.00  0.00    +0.031 HD
ATOM     34  H   UNL     1     151.977 169.407 193.356  0.00  0.00    +0.031 HD
ATOM     35  H   UNL     1     152.143 171.071 191.581  0.00  0.00    +0.057 HD
ATOM     36  H   UNL     1     150.255 172.380 191.072  0.00  0.00    +0.057 HD
ENDROOT
BRANCH   8  37
ATOM     37  C   UNL     1     143.703 166.585 191.618  0.00  0.00    +0.087 C 
ATOM     38  C   UNL     1     143.117 165.777 190.455  0.00  0.00    +0.026 C 
ATOM     39  S   UNL     1     142.196 166.975 189.444  0.00  0.00    -0.066 S 
ATOM     40  C   UNL     1     142.089 168.140 190.736  0.00  0.00    +0.272 C 
ATOM     41  O   UNL     1     141.406 169.150 190.707  0.00  0.00    -0.263 OA
ATOM     42  N   UNL     1     142.849 167.746 191.795  0.00  0.00    -0.298 N 
ATOM     43  H   UNL     1     143.619 165.984 192.532  0.00  0.00    +0.056 HD
ATOM     44  H   UNL     1     143.861 165.241 189.861  0.00  0.00    +0.040 HD
ATOM     45  H   UNL     1     142.393 165.047 190.835  0.00  0.00    +0.040 HD
ATOM     46  H   UNL     1     142.845 168.329 192.621  0.00  0.00    +0.150 HD
ENDBRANCH   8  37
BRANCH   1  47
ATOM     47  C   UNL     1     148.065 172.096 192.868  0.00  0.00    -0.059 C 
ATOM     48  H   UNL     1     148.266 171.781 193.898  0.00  0.00    +0.024 HD
ATOM     49  H   UNL     1     148.499 173.093 192.733  0.00  0.00    +0.024 HD
ATOM     50  H   UNL     1     146.979 172.184 192.760  0.00  0.00    +0.024 HD
ENDBRANCH   1  47
BRANCH  14  51
ATOM     51  C   UNL     1     151.966 166.468 193.456  0.00  0.00    -0.043 C 
ATOM     52  H   UNL     1     152.938 166.974 193.476  0.00  0.00    +0.027 HD
ATOM     53  H   UNL     1     152.155 165.390 193.480  0.00  0.00    +0.027 HD
ATOM     54  H   UNL     1     151.432 166.749 194.370  0.00  0.00    +0.027 HD
ENDBRANCH  14  51
BRANCH   8  55
ATOM     55  O   UNL     1     145.919 166.674 192.621  0.00  0.00    -0.363 OA
ATOM     56  H   UNL     1     145.980 167.510 193.116  0.00  0.00    +0.213 HD
ENDBRANCH   8  55
TORSDOF 4
ENDMDL
MODEL 6
REMARK VINA RESULT:      -6.3     16.485     18.857
REMARK  Name = Latrunculin B_conf3
REMARK  4 active torsions:
REMARK  status: ('A' for Active; 'I' for Inactive)
REMARK    1  A    between atoms: C_1  and  C_2
REMARK    2  A    between atoms: C_9  and  C_11
REMARK    3  A    between atoms: C_9  and  O_17
REMARK    4  A    between atoms: C_22  and  C_27
REMARK                            x       y       z     vdW  Elec       q    Type
REMARK                         _______ _______ _______ _____ _____    ______ ____
ROOT
ATOM      1  C   UNL     1     148.936 172.065 192.315  0.00  0.00    -0.026 C 
ATOM      2  C   UNL     1     148.822 173.086 191.163  0.00  0.00    -0.045 C 
ATOM      3  C   UNL     1     147.467 173.808 191.095  0.00  0.00    -0.026 C 
ATOM      4  C   UNL     1     146.277 172.916 190.707  0.00  0.00    +0.065 C 
ATOM      5  C   UNL     1     146.365 172.419 189.262  0.00  0.00    +0.011 C 
ATOM      6  C   UNL     1     145.122 171.606 188.896  0.00  0.00    +0.111 C 
ATOM      7  C   UNL     1     143.856 172.407 189.209  0.00  0.00    +0.040 C 
ATOM      8  C   UNL     1     143.874 172.970 190.643  0.00  0.00    +0.190 C 
ATOM      9  O   UNL     1     145.088 173.700 190.861  0.00  0.00    -0.344 OA
ATOM     10  O   UNL     1     145.079 170.382 189.662  0.00  0.00    -0.458 OA
ATOM     11  C   UNL     1     145.908 169.399 189.224  0.00  0.00    +0.332 C 
ATOM     12  O   UNL     1     146.619 169.431 188.235  0.00  0.00    -0.246 OA
ATOM     13  C   UNL     1     145.833 168.278 190.176  0.00  0.00    +0.021 C 
ATOM     14  C   UNL     1     146.898 167.795 190.848  0.00  0.00    -0.066 C 
ATOM     15  C   UNL     1     148.304 168.367 190.759  0.00  0.00    -0.028 C 
ATOM     16  C   UNL     1     148.808 168.906 192.106  0.00  0.00    -0.031 C 
ATOM     17  C   UNL     1     150.023 169.779 191.944  0.00  0.00    -0.087 C 
ATOM     18  C   UNL     1     150.086 171.117 192.050  0.00  0.00    -0.085 C 
ATOM     19  H   UNL     1     148.006 171.498 192.376  0.00  0.00    +0.034 HD
ATOM     20  H   UNL     1     149.017 172.597 190.202  0.00  0.00    +0.027 HD
ATOM     21  H   UNL     1     149.609 173.844 191.273  0.00  0.00    +0.027 HD
ATOM     22  H   UNL     1     147.542 174.631 190.371  0.00  0.00    +0.029 HD
ATOM     23  H   UNL     1     147.254 174.297 192.054  0.00  0.00    +0.029 HD
ATOM     24  H   UNL     1     146.223 172.072 191.402  0.00  0.00    +0.060 HD
ATOM     25  H   UNL     1     147.265 171.815 189.126  0.00  0.00    +0.033 HD
ATOM     26  H   UNL     1     146.431 173.278 188.583  0.00  0.00    +0.033 HD
ATOM     27  H   UNL     1     145.122 171.365 187.826  0.00  0.00    +0.074 HD
ATOM     28  H   UNL     1     142.983 171.757 189.073  0.00  0.00    +0.035 HD
ATOM     29  H   UNL     1     143.792 173.235 188.493  0.00  0.00    +0.035 HD
ATOM     30  H   UNL     1     144.842 167.857 190.303  0.00  0.00    +0.069 HD
ATOM     31  H   UNL     1     148.983 167.585 190.396  0.00  0.00    +0.031 HD
ATOM     32  H   UNL     1     148.354 169.172 190.018  0.00  0.00    +0.031 HD
ATOM     33  H   UNL     1     148.004 169.437 192.627  0.00  0.00    +0.031 HD
ATOM     34  H   UNL     1     149.080 168.068 192.761  0.00  0.00    +0.031 HD
ATOM     35  H   UNL     1     150.950 169.245 191.729  0.00  0.00    +0.057 HD
ATOM     36  H   UNL     1     151.061 171.587 191.918  0.00  0.00    +0.057 HD
ENDROOT
BRANCH   8  37
ATOM     37  C   UNL     1     142.701 173.991 190.842  0.00  0.00    +0.087 C 
ATOM     38  C   UNL     1     143.192 175.370 191.297  0.00  0.00    +0.026 C 
ATOM     39  S   UNL     1     142.891 175.428 193.089  0.00  0.00    -0.066 S 
ATOM     40  C   UNL     1     141.726 174.132 193.041  0.00  0.00    +0.272 C 
ATOM     41  O   UNL     1     141.016 173.799 193.974  0.00  0.00    -0.263 OA
ATOM     42  N   UNL     1     141.699 173.564 191.803  0.00  0.00    -0.298 N 
ATOM     43  H   UNL     1     142.191 174.108 189.878  0.00  0.00    +0.056 HD
ATOM     44  H   UNL     1     144.239 175.574 191.061  0.00  0.00    +0.040 HD
ATOM     45  H   UNL     1     142.579 176.154 190.838  0.00  0.00    +0.040 HD
ATOM     46  H   UNL     1     141.039 172.816 191.642  0.00  0.00    +0.150 HD
ENDBRANCH   8  37
BRANCH   1  47
ATOM     47  C   UNL     1     149.141 172.754 193.665  0.00  0.00    -0.059 C 
ATOM     48  H   UNL     1     148.179 172.983 194.137  0.00  0.00    +0.024 HD
ATOM     49  H   UNL     1     149.710 172.124 194.356  0.00  0.00    +0.024 HD
ATOM     50  H   UNL     1     149.679 173.700 193.549  0.00  0.00    +0.024 HD
ENDBRANCH   1  47
BRANCH  14  51
ATOM     51  C   UNL     1     146.735 166.604 191.757  0.00  0.00    -0.043 C 
ATOM     52  H   UNL     1     145.775 166.616 192.284  0.00  0.00    +0.027 HD
ATOM     53  H   UNL     1     147.527 166.583 192.512  0.00  0.00    +0.027 HD
ATOM     54  H   UNL     1     146.780 165.676 191.177  0.00  0.00    +0.027 HD
ENDBRANCH  14  51
BRANCH   8  55
ATOM     55  O   UNL     1     143.743 171.928 191.603  0.00  0.00    -0.363 OA
ATOM     56  H   UNL     1     143.039 171.327 191.303  0.00  0.00    +0.213 HD
ENDBRANCH   8  55
TORSDOF 4
ENDMDL
MODEL 7
REMARK VINA RESULT:      -6.2      2.609      3.954
REMARK  Name = Latrunculin B_conf3
REMARK  4 active torsions:
REMARK  status: ('A' for Active; 'I' for Inactive)
REMARK    1  A    between atoms: C_1  and  C_2
REMARK    2  A    between atoms: C_9  and  C_11
REMARK    3  A    between atoms: C_9  and  O_17
REMARK    4  A    between atoms: C_22  and  C_27
REMARK                            x       y       z     vdW  Elec       q    Type
REMARK                         _______ _______ _______ _____ _____    ______ ____
ROOT
ATOM      1  C   UNL     1     130.510 159.959 198.782  0.00  0.00    -0.026 C 
ATOM      2  C   UNL     1     129.970 160.795 199.963  0.00  0.00    -0.045 C 
ATOM      3  C   UNL     1     130.237 162.303 199.839  0.00  0.00    -0.026 C 
ATOM      4  C   UNL     1     131.716 162.710 199.948  0.00  0.00    +0.065 C 
ATOM      5  C   UNL     1     132.285 162.472 201.349  0.00  0.00    +0.011 C 
ATOM      6  C   UNL     1     133.730 162.967 201.432  0.00  0.00    +0.111 C 
ATOM      7  C   UNL     1     133.820 164.419 200.956  0.00  0.00    +0.040 C 
ATOM      8  C   UNL     1     133.137 164.617 199.589  0.00  0.00    +0.190 C 
ATOM      9  O   UNL     1     131.798 164.107 199.641  0.00  0.00    -0.344 OA
ATOM     10  O   UNL     1     134.586 162.165 200.589  0.00  0.00    -0.458 OA
ATOM     11  C   UNL     1     134.923 160.951 201.098  0.00  0.00    +0.332 C 
ATOM     12  O   UNL     1     134.630 160.514 202.198  0.00  0.00    -0.246 OA
ATOM     13  C   UNL     1     135.688 160.220 200.074  0.00  0.00    +0.021 C 
ATOM     14  C   UNL     1     135.311 159.028 199.570  0.00  0.00    -0.066 C 
ATOM     15  C   UNL     1     134.029 158.300 199.945  0.00  0.00    -0.028 C 
ATOM     16  C   UNL     1     133.085 158.114 198.748  0.00  0.00    -0.031 C 
ATOM     17  C   UNL     1     131.696 157.728 199.182  0.00  0.00    -0.087 C 
ATOM     18  C   UNL     1     130.597 158.502 199.181  0.00  0.00    -0.085 C 
ATOM     19  H   UNL     1     131.504 160.323 198.518  0.00  0.00    +0.034 HD
ATOM     20  H   UNL     1     130.391 160.432 200.907  0.00  0.00    +0.027 HD
ATOM     21  H   UNL     1     128.885 160.644 200.045  0.00  0.00    +0.027 HD
ATOM     22  H   UNL     1     129.668 162.827 200.619  0.00  0.00    +0.029 HD
ATOM     23  H   UNL     1     129.828 162.680 198.893  0.00  0.00    +0.029 HD
ATOM     24  H   UNL     1     132.293 162.159 199.199  0.00  0.00    +0.060 HD
ATOM     25  H   UNL     1     132.235 161.410 201.600  0.00  0.00    +0.033 HD
ATOM     26  H   UNL     1     131.687 163.021 202.086  0.00  0.00    +0.033 HD
ATOM     27  H   UNL     1     134.093 162.920 202.467  0.00  0.00    +0.074 HD
ATOM     28  H   UNL     1     134.877 164.706 200.891  0.00  0.00    +0.035 HD
ATOM     29  H   UNL     1     133.330 165.053 201.704  0.00  0.00    +0.035 HD
ATOM     30  H   UNL     1     136.594 160.716 199.745  0.00  0.00    +0.069 HD
ATOM     31  H   UNL     1     134.288 157.320 200.368  0.00  0.00    +0.031 HD
ATOM     32  H   UNL     1     133.492 158.834 200.736  0.00  0.00    +0.031 HD
ATOM     33  H   UNL     1     133.071 159.018 198.131  0.00  0.00    +0.031 HD
ATOM     34  H   UNL     1     133.467 157.318 198.096  0.00  0.00    +0.031 HD
ATOM     35  H   UNL     1     131.587 156.697 199.520  0.00  0.00    +0.057 HD
ATOM     36  H   UNL     1     129.663 158.050 199.515  0.00  0.00    +0.057 HD
ENDROOT
BRANCH   8  37
ATOM     37  C   UNL     1     133.016 166.144 199.256  0.00  0.00    +0.087 C 
ATOM     38  C   UNL     1     131.791 166.794 199.909  0.00  0.00    +0.026 C 
ATOM     39  S   UNL     1     130.542 166.912 198.592  0.00  0.00    -0.066 S 
ATOM     40  C   UNL     1     131.720 166.747 197.317  0.00  0.00    +0.272 C 
ATOM     41  O   UNL     1     131.490 166.915 196.132  0.00  0.00    -0.263 OA
ATOM     42  N   UNL     1     132.940 166.437 197.836  0.00  0.00    -0.298 N 
ATOM     43  H   UNL     1     133.916 166.642 199.638  0.00  0.00    +0.056 HD
ATOM     44  H   UNL     1     131.406 166.255 200.778  0.00  0.00    +0.040 HD
ATOM     45  H   UNL     1     132.033 167.816 200.220  0.00  0.00    +0.040 HD
ATOM     46  H   UNL     1     133.715 166.343 197.194  0.00  0.00    +0.150 HD
ENDBRANCH   8  37
BRANCH   1  47
ATOM     47  C   UNL     1     129.628 160.099 197.539  0.00  0.00    -0.059 C 
ATOM     48  H   UNL     1     130.229 160.040 196.625  0.00  0.00    +0.024 HD
ATOM     49  H   UNL     1     128.871 159.309 197.492  0.00  0.00    +0.024 HD
ATOM     50  H   UNL     1     129.111 161.063 197.528  0.00  0.00    +0.024 HD
ENDBRANCH   1  47
BRANCH  14  51
ATOM     51  C   UNL     1     136.189 158.325 198.567  0.00  0.00    -0.043 C 
ATOM     52  H   UNL     1     135.651 158.085 197.644  0.00  0.00    +0.027 HD
ATOM     53  H   UNL     1     136.572 157.386 198.979  0.00  0.00    +0.027 HD
ATOM     54  H   UNL     1     137.039 158.961 198.296  0.00  0.00    +0.027 HD
ENDBRANCH  14  51
BRANCH   8  55
ATOM     55  O   UNL     1     133.871 163.977 198.552  0.00  0.00    -0.363 OA
ATOM     56  H   UNL     1     133.469 163.105 198.391  0.00  0.00    +0.213 HD
ENDBRANCH   8  55
TORSDOF 4
ENDMDL
MODEL 8
REMARK VINA RESULT:      -6.1     29.773     31.398
REMARK  Name = Latrunculin B_conf3
REMARK  4 active torsions:
REMARK  status: ('A' for Active; 'I' for Inactive)
REMARK    1  A    between atoms: C_1  and  C_2
REMARK    2  A    between atoms: C_9  and  C_11
REMARK    3  A    between atoms: C_9  and  O_17
REMARK    4  A    between atoms: C_22  and  C_27
REMARK                            x       y       z     vdW  Elec       q    Type
REMARK                         _______ _______ _______ _____ _____    ______ ____
ROOT
ATOM      1  C   UNL     1     155.783 173.911 182.176  0.00  0.00    -0.026 C 
ATOM      2  C   UNL     1     156.247 173.960 183.648  0.00  0.00    -0.045 C 
ATOM      3  C   UNL     1     157.751 173.715 183.842  0.00  0.00    -0.026 C 
ATOM      4  C   UNL     1     158.220 172.286 183.519  0.00  0.00    +0.065 C 
ATOM      5  C   UNL     1     157.671 171.254 184.506  0.00  0.00    +0.011 C 
ATOM      6  C   UNL     1     158.230 169.864 184.195  0.00  0.00    +0.111 C 
ATOM      7  C   UNL     1     159.758 169.913 184.121  0.00  0.00    +0.040 C 
ATOM      8  C   UNL     1     160.251 171.040 183.195  0.00  0.00    +0.190 C 
ATOM      9  O   UNL     1     159.651 172.282 183.584  0.00  0.00    -0.344 OA
ATOM     10  O   UNL     1     157.735 169.396 182.921  0.00  0.00    -0.458 OA
ATOM     11  C   UNL     1     156.458 168.931 182.935  0.00  0.00    +0.332 C 
ATOM     12  O   UNL     1     155.734 168.816 183.908  0.00  0.00    -0.246 OA
ATOM     13  C   UNL     1     156.071 168.612 181.550  0.00  0.00    +0.021 C 
ATOM     14  C   UNL     1     155.025 169.180 180.917  0.00  0.00    -0.066 C 
ATOM     15  C   UNL     1     154.136 170.258 181.518  0.00  0.00    -0.028 C 
ATOM     16  C   UNL     1     154.197 171.577 180.735  0.00  0.00    -0.031 C 
ATOM     17  C   UNL     1     153.614 172.723 181.518  0.00  0.00    -0.087 C 
ATOM     18  C   UNL     1     154.282 173.726 182.115  0.00  0.00    -0.085 C 
ATOM     19  H   UNL     1     156.272 173.070 181.681  0.00  0.00    +0.034 HD
ATOM     20  H   UNL     1     155.683 173.235 184.247  0.00  0.00    +0.027 HD
ATOM     21  H   UNL     1     156.003 174.945 184.070  0.00  0.00    +0.027 HD
ATOM     22  H   UNL     1     158.014 173.945 184.883  0.00  0.00    +0.029 HD
ATOM     23  H   UNL     1     158.328 174.429 183.241  0.00  0.00    +0.029 HD
ATOM     24  H   UNL     1     157.923 172.037 182.495  0.00  0.00    +0.060 HD
ATOM     25  H   UNL     1     156.579 171.239 184.467  0.00  0.00    +0.033 HD
ATOM     26  H   UNL     1     157.968 171.527 185.526  0.00  0.00    +0.033 HD
ATOM     27  H   UNL     1     157.945 169.151 184.979  0.00  0.00    +0.074 HD
ATOM     28  H   UNL     1     160.126 168.944 183.762  0.00  0.00    +0.035 HD
ATOM     29  H   UNL     1     160.142 170.079 185.135  0.00  0.00    +0.035 HD
ATOM     30  H   UNL     1     156.698 167.874 181.063  0.00  0.00    +0.069 HD
ATOM     31  H   UNL     1     153.101 169.890 181.544  0.00  0.00    +0.031 HD
ATOM     32  H   UNL     1     154.409 170.455 182.560  0.00  0.00    +0.031 HD
ATOM     33  H   UNL     1     155.226 171.789 180.427  0.00  0.00    +0.031 HD
ATOM     34  H   UNL     1     153.624 171.481 179.803  0.00  0.00    +0.031 HD
ATOM     35  H   UNL     1     152.526 172.731 181.586  0.00  0.00    +0.057 HD
ATOM     36  H   UNL     1     153.694 174.487 182.629  0.00  0.00    +0.057 HD
ENDROOT
BRANCH   8  37
ATOM     37  C   UNL     1     161.800 171.231 183.345  0.00  0.00    +0.087 C 
ATOM     38  C   UNL     1     162.237 172.684 183.138  0.00  0.00    +0.026 C 
ATOM     39  S   UNL     1     162.890 172.760 181.442  0.00  0.00    -0.066 S 
ATOM     40  C   UNL     1     163.131 171.036 181.346  0.00  0.00    +0.272 C 
ATOM     41  O   UNL     1     163.726 170.466 180.449  0.00  0.00    -0.263 OA
ATOM     42  N   UNL     1     162.588 170.420 182.433  0.00  0.00    -0.298 N 
ATOM     43  H   UNL     1     162.078 170.929 184.363  0.00  0.00    +0.056 HD
ATOM     44  H   UNL     1     161.444 173.419 183.294  0.00  0.00    +0.040 HD
ATOM     45  H   UNL     1     163.064 172.925 183.815  0.00  0.00    +0.040 HD
ATOM     46  H   UNL     1     162.690 169.417 182.506  0.00  0.00    +0.150 HD
ENDBRANCH   8  37
BRANCH   1  47
ATOM     47  C   UNL     1     156.174 175.179 181.416  0.00  0.00    -0.059 C 
ATOM     48  H   UNL     1     156.083 175.031 180.334  0.00  0.00    +0.024 HD
ATOM     49  H   UNL     1     155.537 176.027 181.692  0.00  0.00    +0.024 HD
ATOM     50  H   UNL     1     157.213 175.458 181.620  0.00  0.00    +0.024 HD
ENDBRANCH   1  47
BRANCH  14  51
ATOM     51  C   UNL     1     154.668 168.747 179.519  0.00  0.00    -0.043 C 
ATOM     52  H   UNL     1     153.691 168.253 179.476  0.00  0.00    +0.027 HD
ATOM     53  H   UNL     1     155.411 168.043 179.130  0.00  0.00    +0.027 HD
ATOM     54  H   UNL     1     154.626 169.615 178.852  0.00  0.00    +0.027 HD
ENDBRANCH  14  51
BRANCH   8  55
ATOM     55  O   UNL     1     159.954 170.751 181.834  0.00  0.00    -0.363 OA
ATOM     56  H   UNL     1     159.569 169.858 181.792  0.00  0.00    +0.213 HD
ENDBRANCH   8  55
TORSDOF 4
ENDMDL
MODEL 9
REMARK VINA RESULT:      -6.1      3.608      7.145
REMARK  Name = Latrunculin B_conf3
REMARK  4 active torsions:
REMARK  status: ('A' for Active; 'I' for Inactive)
REMARK    1  A    between atoms: C_1  and  C_2
REMARK    2  A    between atoms: C_9  and  C_11
REMARK    3  A    between atoms: C_9  and  O_17
REMARK    4  A    between atoms: C_22  and  C_27
REMARK                            x       y       z     vdW  Elec       q    Type
REMARK                         _______ _______ _______ _____ _____    ______ ____
ROOT
ATOM      1  C   UNL     1     134.895 161.516 200.154  0.00  0.00    -0.026 C 
ATOM      2  C   UNL     1     134.696 160.342 201.137  0.00  0.00    -0.045 C 
ATOM      3  C   UNL     1     135.420 159.050 200.726  0.00  0.00    -0.026 C 
ATOM      4  C   UNL     1     134.862 158.369 199.465  0.00  0.00    +0.065 C 
ATOM      5  C   UNL     1     133.454 157.808 199.677  0.00  0.00    +0.011 C 
ATOM      6  C   UNL     1     132.976 157.070 198.425  0.00  0.00    +0.111 C 
ATOM      7  C   UNL     1     134.011 156.026 197.999  0.00  0.00    +0.040 C 
ATOM      8  C   UNL     1     135.426 156.627 197.906  0.00  0.00    +0.190 C 
ATOM      9  O   UNL     1     135.749 157.294 199.132  0.00  0.00    -0.344 OA
ATOM     10  O   UNL     1     132.799 157.997 197.332  0.00  0.00    -0.458 OA
ATOM     11  C   UNL     1     131.663 158.741 197.385  0.00  0.00    +0.332 C 
ATOM     12  O   UNL     1     130.772 158.655 198.213  0.00  0.00    -0.246 OA
ATOM     13  C   UNL     1     131.696 159.709 196.276  0.00  0.00    +0.021 C 
ATOM     14  C   UNL     1     131.642 161.045 196.449  0.00  0.00    -0.066 C 
ATOM     15  C   UNL     1     131.593 161.737 197.802  0.00  0.00    -0.028 C 
ATOM     16  C   UNL     1     132.811 162.639 198.049  0.00  0.00    -0.031 C 
ATOM     17  C   UNL     1     132.939 163.028 199.497  0.00  0.00    -0.087 C 
ATOM     18  C   UNL     1     133.834 162.568 200.389  0.00  0.00    -0.085 C 
ATOM     19  H   UNL     1     134.813 161.139 199.133  0.00  0.00    +0.034 HD
ATOM     20  H   UNL     1     133.628 160.131 201.264  0.00  0.00    +0.027 HD
ATOM     21  H   UNL     1     135.060 160.637 202.130  0.00  0.00    +0.027 HD
ATOM     22  H   UNL     1     135.371 158.338 201.561  0.00  0.00    +0.029 HD
ATOM     23  H   UNL     1     136.490 159.247 200.587  0.00  0.00    +0.029 HD
ATOM     24  H   UNL     1     134.870 159.088 198.639  0.00  0.00    +0.060 HD
ATOM     25  H   UNL     1     132.761 158.615 199.927  0.00  0.00    +0.033 HD
ATOM     26  H   UNL     1     133.464 157.101 200.515  0.00  0.00    +0.033 HD
ATOM     27  H   UNL     1     132.027 156.556 198.622  0.00  0.00    +0.074 HD
ATOM     28  H   UNL     1     133.715 155.610 197.028  0.00  0.00    +0.035 HD
ATOM     29  H   UNL     1     134.005 155.219 198.742  0.00  0.00    +0.035 HD
ATOM     30  H   UNL     1     131.768 159.266 195.289  0.00  0.00    +0.069 HD
ATOM     31  H   UNL     1     130.673 162.334 197.862  0.00  0.00    +0.031 HD
ATOM     32  H   UNL     1     131.527 161.006 198.615  0.00  0.00    +0.031 HD
ATOM     33  H   UNL     1     133.723 162.152 197.686  0.00  0.00    +0.031 HD
ATOM     34  H   UNL     1     132.716 163.560 197.459  0.00  0.00    +0.031 HD
ATOM     35  H   UNL     1     132.225 163.779 199.839  0.00  0.00    +0.057 HD
ATOM     36  H   UNL     1     133.792 162.977 201.399  0.00  0.00    +0.057 HD
ENDROOT
BRANCH   8  37
ATOM     37  C   UNL     1     136.490 155.490 197.727  0.00  0.00    +0.087 C 
ATOM     38  C   UNL     1     135.898 154.223 197.100  0.00  0.00    +0.026 C 
ATOM     39  S   UNL     1     135.627 153.074 198.483  0.00  0.00    -0.066 S 
ATOM     40  C   UNL     1     136.733 153.917 199.536  0.00  0.00    +0.272 C 
ATOM     41  O   UNL     1     137.113 153.505 200.618  0.00  0.00    -0.263 OA
ATOM     42  N   UNL     1     137.138 155.084 198.962  0.00  0.00    -0.298 N 
ATOM     43  H   UNL     1     137.277 155.868 197.063  0.00  0.00    +0.056 HD
ATOM     44  H   UNL     1     134.979 154.389 196.533  0.00  0.00    +0.040 HD
ATOM     45  H   UNL     1     136.633 153.759 196.432  0.00  0.00    +0.040 HD
ATOM     46  H   UNL     1     137.806 155.650 199.467  0.00  0.00    +0.150 HD
ENDBRANCH   8  37
BRANCH   1  47
ATOM     47  C   UNL     1     136.282 162.146 200.298  0.00  0.00    -0.059 C 
ATOM     48  H   UNL     1     136.639 162.074 201.331  0.00  0.00    +0.024 HD
ATOM     49  H   UNL     1     137.018 161.651 199.655  0.00  0.00    +0.024 HD
ATOM     50  H   UNL     1     136.263 163.208 200.033  0.00  0.00    +0.024 HD
ENDBRANCH   1  47
BRANCH  14  51
ATOM     51  C   UNL     1     131.621 161.958 195.250  0.00  0.00    -0.043 C 
ATOM     52  H   UNL     1     131.145 161.488 194.382  0.00  0.00    +0.027 HD
ATOM     53  H   UNL     1     132.638 162.236 194.957  0.00  0.00    +0.027 HD
ATOM     54  H   UNL     1     131.060 162.870 195.477  0.00  0.00    +0.027 HD
ENDBRANCH  14  51
BRANCH   8  55
ATOM     55  O   UNL     1     135.528 157.528 196.809  0.00  0.00    -0.363 OA
ATOM     56  H   UNL     1     134.824 158.194 196.900  0.00  0.00    +0.213 HD
ENDBRANCH   8  55
TORSDOF 4
ENDMDL
MODEL 10
REMARK VINA RESULT:      -6.1      3.802      6.341
REMARK  Name = Latrunculin B_conf3
REMARK  4 active torsions:
REMARK  status: ('A' for Active; 'I' for Inactive)
REMARK    1  A    between atoms: C_1  and  C_2
REMARK    2  A    between atoms: C_9  and  C_11
REMARK    3  A    between atoms: C_9  and  O_17
REMARK    4  A    between atoms: C_22  and  C_27
REMARK                            x       y       z     vdW  Elec       q    Type
REMARK                         _______ _______ _______ _____ _____    ______ ____
ROOT
ATOM      1  C   UNL     1     134.488 161.193 200.716  0.00  0.00    -0.026 C 
ATOM      2  C   UNL     1     135.268 162.423 200.205  0.00  0.00    -0.045 C 
ATOM      3  C   UNL     1     134.661 163.770 200.625  0.00  0.00    -0.026 C 
ATOM      4  C   UNL     1     133.302 164.096 199.981  0.00  0.00    +0.065 C 
ATOM      5  C   UNL     1     133.411 164.333 198.473  0.00  0.00    +0.011 C 
ATOM      6  C   UNL     1     132.054 164.735 197.893  0.00  0.00    +0.111 C 
ATOM      7  C   UNL     1     131.474 165.916 198.674  0.00  0.00    +0.040 C 
ATOM      8  C   UNL     1     131.489 165.661 200.193  0.00  0.00    +0.190 C 
ATOM      9  O   UNL     1     132.809 165.287 200.607  0.00  0.00    -0.344 OA
ATOM     10  O   UNL     1     131.122 163.635 197.986  0.00  0.00    -0.458 OA
ATOM     11  C   UNL     1     131.286 162.660 197.054  0.00  0.00    +0.332 C 
ATOM     12  O   UNL     1     132.083 162.659 196.132  0.00  0.00    -0.246 OA
ATOM     13  C   UNL     1     130.347 161.568 197.362  0.00  0.00    +0.021 C 
ATOM     14  C   UNL     1     130.732 160.301 197.613  0.00  0.00    -0.066 C 
ATOM     15  C   UNL     1     132.178 159.834 197.665  0.00  0.00    -0.028 C 
ATOM     16  C   UNL     1     132.575 159.297 199.048  0.00  0.00    -0.031 C 
ATOM     17  C   UNL     1     134.068 159.177 199.198  0.00  0.00    -0.087 C 
ATOM     18  C   UNL     1     134.881 159.967 199.919  0.00  0.00    -0.085 C 
ATOM     19  H   UNL     1     133.419 161.377 200.594  0.00  0.00    +0.034 HD
ATOM     20  H   UNL     1     135.352 162.391 199.112  0.00  0.00    +0.027 HD
ATOM     21  H   UNL     1     136.299 162.379 200.582  0.00  0.00    +0.027 HD
ATOM     22  H   UNL     1     135.371 164.571 200.374  0.00  0.00    +0.029 HD
ATOM     23  H   UNL     1     134.563 163.814 201.717  0.00  0.00    +0.029 HD
ATOM     24  H   UNL     1     132.603 163.282 200.194  0.00  0.00    +0.060 HD
ATOM     25  H   UNL     1     133.783 163.433 197.977  0.00  0.00    +0.033 HD
ATOM     26  H   UNL     1     134.125 165.143 198.280  0.00  0.00    +0.033 HD
ATOM     27  H   UNL     1     132.159 165.033 196.842  0.00  0.00    +0.074 HD
ATOM     28  H   UNL     1     130.447 166.095 198.334  0.00  0.00    +0.035 HD
ATOM     29  H   UNL     1     132.077 166.803 198.447  0.00  0.00    +0.035 HD
ATOM     30  H   UNL     1     129.302 161.859 197.373  0.00  0.00    +0.069 HD
ATOM     31  H   UNL     1     132.326 159.052 196.908  0.00  0.00    +0.031 HD
ATOM     32  H   UNL     1     132.862 160.645 197.394  0.00  0.00    +0.031 HD
ATOM     33  H   UNL     1     132.145 159.924 199.837  0.00  0.00    +0.031 HD
ATOM     34  H   UNL     1     132.140 158.299 199.196  0.00  0.00    +0.031 HD
ATOM     35  H   UNL     1     134.520 158.340 198.664  0.00  0.00    +0.057 HD
ATOM     36  H   UNL     1     135.943 159.722 199.928  0.00  0.00    +0.057 HD
ENDROOT
BRANCH   8  37
ATOM     37  C   UNL     1     131.137 166.977 200.970  0.00  0.00    +0.087 C 
ATOM     38  C   UNL     1     132.261 168.016 200.906  0.00  0.00    +0.026 C 
ATOM     39  S   UNL     1     133.131 167.894 202.498  0.00  0.00    -0.066 S 
ATOM     40  C   UNL     1     131.794 167.096 203.284  0.00  0.00    +0.272 C 
ATOM     41  O   UNL     1     131.718 166.885 204.483  0.00  0.00    -0.263 OA
ATOM     42  N   UNL     1     130.833 166.773 202.375  0.00  0.00    -0.298 N 
ATOM     43  H   UNL     1     130.241 167.410 200.508  0.00  0.00    +0.056 HD
ATOM     44  H   UNL     1     132.947 167.886 200.065  0.00  0.00    +0.040 HD
ATOM     45  H   UNL     1     131.835 169.024 200.845  0.00  0.00    +0.040 HD
ATOM     46  H   UNL     1     129.992 166.329 202.716  0.00  0.00    +0.150 HD
ENDBRANCH   8  37
BRANCH   1  47
ATOM     47  C   UNL     1     134.741 160.939 202.204  0.00  0.00    -0.059 C 
ATOM     48  H   UNL     1     134.277 160.001 202.525  0.00  0.00    +0.024 HD
ATOM     49  H   UNL     1     135.812 160.875 202.424  0.00  0.00    +0.024 HD
ATOM     50  H   UNL     1     134.318 161.740 202.818  0.00  0.00    +0.024 HD
ENDBRANCH   1  47
BRANCH  14  51
ATOM     51  C   UNL     1     129.694 159.236 197.859  0.00  0.00    -0.043 C 
ATOM     52  H   UNL     1     128.794 159.640 198.335  0.00  0.00    +0.027 HD
ATOM     53  H   UNL     1     130.090 158.453 198.513  0.00  0.00    +0.027 HD
ATOM     54  H   UNL     1     129.388 158.779 196.912  0.00  0.00    +0.027 HD
ENDBRANCH  14  51
BRANCH   8  55
ATOM     55  O   UNL     1     130.552 164.652 200.552  0.00  0.00    -0.363 OA
ATOM     56  H   UNL     1     129.766 165.089 200.924  0.00  0.00    +0.213 HD
ENDBRANCH   8  55
TORSDOF 4
ENDMDL
