MODEL 1
REMARK VINA RESULT:      -6.9      0.000      0.000
REMARK  Name = Latrunculin B_conf1
REMARK  4 active torsions:
REMARK  status: ('A' for Active; 'I' for Inactive)
REMARK    1  A    between atoms: C_1  and  C_2
REMARK    2  A    between atoms: C_9  and  C_11
REMARK    3  A    between atoms: C_9  and  O_17
REMARK    4  A    between atoms: C_22  and  C_27
REMARK                            x       y       z     vdW  Elec       q    Type
REMARK                         _______ _______ _______ _____ _____    ______ ____
ROOT
ATOM      1  C   UNL     1     161.931 162.937 192.476  0.00  0.00    -0.026 C 
ATOM      2  C   UNL     1     162.666 161.626 192.827  0.00  0.00    -0.045 C 
ATOM      3  C   UNL     1     162.610 161.221 194.311  0.00  0.00    -0.026 C 
ATOM      4  C   UNL     1     161.188 160.980 194.827  0.00  0.00    +0.065 C 
ATOM      5  C   UNL     1     161.191 160.634 196.312  0.00  0.00    +0.011 C 
ATOM      6  C   UNL     1     159.755 160.411 196.789  0.00  0.00    +0.111 C 
ATOM      7  C   UNL     1     159.078 159.354 195.909  0.00  0.00    +0.040 C 
ATOM      8  C   UNL     1     159.259 159.622 194.402  0.00  0.00    +0.190 C 
ATOM      9  O   UNL     1     160.619 159.899 194.087  0.00  0.00    -0.344 OA
ATOM     10  O   UNL     1     158.992 161.629 196.704  0.00  0.00    -0.458 OA
ATOM     11  C   UNL     1     159.240 162.565 197.646  0.00  0.00    +0.332 C 
ATOM     12  O   UNL     1     159.979 162.468 198.609  0.00  0.00    -0.246 OA
ATOM     13  C   UNL     1     158.459 163.768 197.312  0.00  0.00    +0.021 C 
ATOM     14  C   UNL     1     158.962 164.801 196.608  0.00  0.00    -0.066 C 
ATOM     15  C   UNL     1     160.385 164.867 196.083  0.00  0.00    -0.028 C 
ATOM     16  C   UNL     1     160.470 164.926 194.549  0.00  0.00    -0.031 C 
ATOM     17  C   UNL     1     161.901 164.946 194.082  0.00  0.00    -0.087 C 
ATOM     18  C   UNL     1     162.513 164.116 193.220  0.00  0.00    -0.085 C 
ATOM     19  H   UNL     1     160.868 162.817 192.703  0.00  0.00    +0.034 HD
ATOM     20  H   UNL     1     163.723 161.711 192.540  0.00  0.00    +0.027 HD
ATOM     21  H   UNL     1     162.254 160.809 192.220  0.00  0.00    +0.027 HD
ATOM     22  H   UNL     1     163.192 160.297 194.418  0.00  0.00    +0.029 HD
ATOM     23  H   UNL     1     163.108 161.982 194.922  0.00  0.00    +0.029 HD
ATOM     24  H   UNL     1     160.593 161.884 194.666  0.00  0.00    +0.060 HD
ATOM     25  H   UNL     1     161.672 161.438 196.878  0.00  0.00    +0.033 HD
ATOM     26  H   UNL     1     161.766 159.714 196.480  0.00  0.00    +0.033 HD
ATOM     27  H   UNL     1     159.746 160.059 197.828  0.00  0.00    +0.074 HD
ATOM     28  H   UNL     1     159.517 158.384 196.168  0.00  0.00    +0.035 HD
ATOM     29  H   UNL     1     158.007 159.317 196.148  0.00  0.00    +0.035 HD
ATOM     30  H   UNL     1     157.439 163.755 197.676  0.00  0.00    +0.069 HD
ATOM     31  H   UNL     1     160.975 164.014 196.437  0.00  0.00    +0.031 HD
ATOM     32  H   UNL     1     160.867 165.757 196.512  0.00  0.00    +0.031 HD
ATOM     33  H   UNL     1     159.993 165.844 194.185  0.00  0.00    +0.031 HD
ATOM     34  H   UNL     1     159.911 164.092 194.117  0.00  0.00    +0.031 HD
ATOM     35  H   UNL     1     162.504 165.755 194.499  0.00  0.00    +0.057 HD
ATOM     36  H   UNL     1     163.567 164.312 193.013  0.00  0.00    +0.057 HD
ENDROOT
BRANCH   8  37
ATOM     37  C   UNL     1     158.762 158.389 193.567  0.00  0.00    +0.087 C 
ATOM     38  C   UNL     1     159.885 157.600 192.894  0.00  0.00    +0.026 C 
ATOM     39  S   UNL     1     159.957 158.219 191.186  0.00  0.00    -0.066 S 
ATOM     40  C   UNL     1     158.327 158.840 191.235  0.00  0.00    +0.272 C 
ATOM     41  O   UNL     1     157.706 159.241 190.268  0.00  0.00    -0.263 OA
ATOM     42  N   UNL     1     157.841 158.777 192.506  0.00  0.00    -0.298 N 
ATOM     43  H   UNL     1     158.186 157.736 194.233  0.00  0.00    +0.056 HD
ATOM     44  H   UNL     1     160.857 157.686 193.387  0.00  0.00    +0.040 HD
ATOM     45  H   UNL     1     159.619 156.538 192.846  0.00  0.00    +0.040 HD
ATOM     46  H   UNL     1     156.879 159.047 192.672  0.00  0.00    +0.150 HD
ENDBRANCH   8  37
BRANCH   1  47
ATOM     47  C   UNL     1     162.026 163.196 190.968  0.00  0.00    -0.059 C 
ATOM     48  H   UNL     1     161.281 163.934 190.655  0.00  0.00    +0.024 HD
ATOM     49  H   UNL     1     163.014 163.586 190.699  0.00  0.00    +0.024 HD
ATOM     50  H   UNL     1     161.855 162.280 190.389  0.00  0.00    +0.024 HD
ENDBRANCH   1  47
BRANCH  14  51
ATOM     51  C   UNL     1     158.104 166.008 196.335  0.00  0.00    -0.043 C 
ATOM     52  H   UNL     1     157.186 165.714 195.817  0.00  0.00    +0.027 HD
ATOM     53  H   UNL     1     158.614 166.743 195.702  0.00  0.00    +0.027 HD
ATOM     54  H   UNL     1     157.834 166.510 197.269  0.00  0.00    +0.027 HD
ENDBRANCH  14  51
BRANCH   8  55
ATOM     55  O   UNL     1     158.460 160.741 194.023  0.00  0.00    -0.363 OA
ATOM     56  H   UNL     1     159.074 161.496 194.070  0.00  0.00    +0.213 HD
ENDBRANCH   8  55
TORSDOF 4
ENDMDL
MODEL 2
REMARK VINA RESULT:      -6.6     11.926     14.433
REMARK  Name = Latrunculin B_conf1
REMARK  4 active torsions:
REMARK  status: ('A' for Active; 'I' for Inactive)
REMARK    1  A    between atoms: C_1  and  C_2
REMARK    2  A    between atoms: C_9  and  C_11
REMARK    3  A    between atoms: C_9  and  O_17
REMARK    4  A    between atoms: C_22  and  C_27
REMARK                            x       y       z     vdW  Elec       q    Type
REMARK                         _______ _______ _______ _____ _____    ______ ____
ROOT
ATOM      1  C   UNL     1     145.501 168.727 190.359  0.00  0.00    -0.026 C 
ATOM      2  C   UNL     1     146.184 167.461 189.800  0.00  0.00    -0.045 C 
ATOM      3  C   UNL     1     147.708 167.568 189.611  0.00  0.00    -0.026 C 
ATOM      4  C   UNL     1     148.469 167.838 190.914  0.00  0.00    +0.065 C 
ATOM      5  C   UNL     1     149.965 167.985 190.658  0.00  0.00    +0.011 C 
ATOM      6  C   UNL     1     150.685 168.261 191.979  0.00  0.00    +0.111 C 
ATOM      7  C   UNL     1     150.336 167.168 192.995  0.00  0.00    +0.040 C 
ATOM      8  C   UNL     1     148.822 166.898 193.090  0.00  0.00    +0.190 C 
ATOM      9  O   UNL     1     148.243 166.741 191.801  0.00  0.00    -0.344 OA
ATOM     10  O   UNL     1     150.285 169.532 192.524  0.00  0.00    -0.458 OA
ATOM     11  C   UNL     1     150.793 170.633 191.929  0.00  0.00    +0.332 C 
ATOM     12  O   UNL     1     151.616 170.677 191.032  0.00  0.00    -0.246 OA
ATOM     13  C   UNL     1     150.171 171.816 192.547  0.00  0.00    +0.021 C 
ATOM     14  C   UNL     1     149.086 172.430 192.035  0.00  0.00    -0.066 C 
ATOM     15  C   UNL     1     148.378 171.997 190.763  0.00  0.00    -0.028 C 
ATOM     16  C   UNL     1     146.925 171.549 190.993  0.00  0.00    -0.031 C 
ATOM     17  C   UNL     1     146.286 171.090 189.709  0.00  0.00    -0.087 C 
ATOM     18  C   UNL     1     145.695 169.913 189.442  0.00  0.00    -0.085 C 
ATOM     19  H   UNL     1     145.902 168.934 191.355  0.00  0.00    +0.034 HD
ATOM     20  H   UNL     1     145.741 167.205 188.828  0.00  0.00    +0.027 HD
ATOM     21  H   UNL     1     145.967 166.613 190.463  0.00  0.00    +0.027 HD
ATOM     22  H   UNL     1     148.051 166.617 189.186  0.00  0.00    +0.029 HD
ATOM     23  H   UNL     1     147.937 168.347 188.875  0.00  0.00    +0.029 HD
ATOM     24  H   UNL     1     148.086 168.756 191.367  0.00  0.00    +0.060 HD
ATOM     25  H   UNL     1     150.139 168.793 189.940  0.00  0.00    +0.033 HD
ATOM     26  H   UNL     1     150.364 167.058 190.225  0.00  0.00    +0.033 HD
ATOM     27  H   UNL     1     151.772 168.266 191.829  0.00  0.00    +0.074 HD
ATOM     28  H   UNL     1     150.856 166.255 192.682  0.00  0.00    +0.035 HD
ATOM     29  H   UNL     1     150.720 167.456 193.982  0.00  0.00    +0.035 HD
ATOM     30  H   UNL     1     150.654 172.154 193.455  0.00  0.00    +0.069 HD
ATOM     31  H   UNL     1     148.923 171.187 190.265  0.00  0.00    +0.031 HD
ATOM     32  H   UNL     1     148.395 172.840 190.059  0.00  0.00    +0.031 HD
ATOM     33  H   UNL     1     146.332 172.390 191.373  0.00  0.00    +0.031 HD
ATOM     34  H   UNL     1     146.897 170.774 191.764  0.00  0.00    +0.031 HD
ATOM     35  H   UNL     1     146.304 171.826 188.904  0.00  0.00    +0.057 HD
ATOM     36  H   UNL     1     145.286 169.784 188.438  0.00  0.00    +0.057 HD
ENDROOT
BRANCH   8  37
ATOM     37  C   UNL     1     148.551 165.615 193.953  0.00  0.00    +0.087 C 
ATOM     38  C   UNL     1     147.488 165.806 195.035  0.00  0.00    +0.026 C 
ATOM     39  S   UNL     1     148.410 166.151 196.564  0.00  0.00    -0.066 S 
ATOM     40  C   UNL     1     149.880 165.432 195.961  0.00  0.00    +0.272 C 
ATOM     41  O   UNL     1     150.866 165.193 196.635  0.00  0.00    -0.263 OA
ATOM     42  N   UNL     1     149.751 165.146 194.635  0.00  0.00    -0.298 N 
ATOM     43  H   UNL     1     148.261 164.804 193.275  0.00  0.00    +0.056 HD
ATOM     44  H   UNL     1     146.764 166.596 194.823  0.00  0.00    +0.040 HD
ATOM     45  H   UNL     1     146.939 164.871 195.189  0.00  0.00    +0.040 HD
ATOM     46  H   UNL     1     150.508 164.665 194.166  0.00  0.00    +0.150 HD
ENDBRANCH   8  37
BRANCH   1  47
ATOM     47  C   UNL     1     144.001 168.469 190.539  0.00  0.00    -0.059 C 
ATOM     48  H   UNL     1     143.444 168.795 189.655  0.00  0.00    +0.024 HD
ATOM     49  H   UNL     1     143.802 167.401 190.683  0.00  0.00    +0.024 HD
ATOM     50  H   UNL     1     143.600 169.007 191.407  0.00  0.00    +0.024 HD
ENDBRANCH   1  47
BRANCH  14  51
ATOM     51  C   UNL     1     148.529 173.654 192.713  0.00  0.00    -0.043 C 
ATOM     52  H   UNL     1     147.644 173.393 193.303  0.00  0.00    +0.027 HD
ATOM     53  H   UNL     1     148.226 174.423 191.994  0.00  0.00    +0.027 HD
ATOM     54  H   UNL     1     149.274 174.101 193.378  0.00  0.00    +0.027 HD
ENDBRANCH  14  51
BRANCH   8  55
ATOM     55  O   UNL     1     148.189 167.994 193.749  0.00  0.00    -0.363 OA
ATOM     56  H   UNL     1     148.690 168.091 194.579  0.00  0.00    +0.213 HD
ENDBRANCH   8  55
TORSDOF 4
ENDMDL
MODEL 3
REMARK VINA RESULT:      -6.5     26.350     28.444
REMARK  Name = Latrunculin B_conf1
REMARK  4 active torsions:
REMARK  status: ('A' for Active; 'I' for Inactive)
REMARK    1  A    between atoms: C_1  and  C_2
REMARK    2  A    between atoms: C_9  and  C_11
REMARK    3  A    between atoms: C_9  and  O_17
REMARK    4  A    between atoms: C_22  and  C_27
REMARK                            x       y       z     vdW  Elec       q    Type
REMARK                         _______ _______ _______ _____ _____    ______ ____
ROOT
ATOM      1  C   UNL     1     130.300 161.176 198.128  0.00  0.00    -0.026 C 
ATOM      2  C   UNL     1     129.664 162.151 199.142  0.00  0.00    -0.045 C 
ATOM      3  C   UNL     1     130.387 162.247 200.497  0.00  0.00    -0.026 C 
ATOM      4  C   UNL     1     131.833 162.742 200.387  0.00  0.00    +0.065 C 
ATOM      5  C   UNL     1     132.513 162.768 201.752  0.00  0.00    +0.011 C 
ATOM      6  C   UNL     1     133.953 163.258 201.596  0.00  0.00    +0.111 C 
ATOM      7  C   UNL     1     133.964 164.611 200.874  0.00  0.00    +0.040 C 
ATOM      8  C   UNL     1     133.103 164.614 199.595  0.00  0.00    +0.190 C 
ATOM      9  O   UNL     1     131.815 164.061 199.838  0.00  0.00    -0.344 OA
ATOM     10  O   UNL     1     134.731 162.325 200.823  0.00  0.00    -0.458 OA
ATOM     11  C   UNL     1     135.105 161.186 201.447  0.00  0.00    +0.332 C 
ATOM     12  O   UNL     1     134.928 160.890 202.616  0.00  0.00    -0.246 OA
ATOM     13  C   UNL     1     135.774 160.323 200.460  0.00  0.00    +0.021 C 
ATOM     14  C   UNL     1     135.133 159.358 199.770  0.00  0.00    -0.066 C 
ATOM     15  C   UNL     1     133.659 159.029 199.927  0.00  0.00    -0.028 C 
ATOM     16  C   UNL     1     132.841 159.262 198.646  0.00  0.00    -0.031 C 
ATOM     17  C   UNL     1     131.382 158.963 198.869  0.00  0.00    -0.087 C 
ATOM     18  C   UNL     1     130.321 159.760 198.657  0.00  0.00    -0.085 C 
ATOM     19  H   UNL     1     131.310 161.521 197.892  0.00  0.00    +0.034 HD
ATOM     20  H   UNL     1     128.625 161.852 199.335  0.00  0.00    +0.027 HD
ATOM     21  H   UNL     1     129.612 163.152 198.694  0.00  0.00    +0.027 HD
ATOM     22  H   UNL     1     129.815 162.946 201.122  0.00  0.00    +0.029 HD
ATOM     23  H   UNL     1     130.360 161.275 201.003  0.00  0.00    +0.029 HD
ATOM     24  H   UNL     1     132.387 162.077 199.718  0.00  0.00    +0.060 HD
ATOM     25  H   UNL     1     132.484 161.769 202.198  0.00  0.00    +0.033 HD
ATOM     26  H   UNL     1     131.978 163.453 202.423  0.00  0.00    +0.033 HD
ATOM     27  H   UNL     1     134.424 163.383 202.579  0.00  0.00    +0.074 HD
ATOM     28  H   UNL     1     133.583 165.358 201.579  0.00  0.00    +0.035 HD
ATOM     29  H   UNL     1     134.998 164.877 200.620  0.00  0.00    +0.035 HD
ATOM     30  H   UNL     1     136.829 160.528 200.327  0.00  0.00    +0.069 HD
ATOM     31  H   UNL     1     133.211 159.609 200.743  0.00  0.00    +0.031 HD
ATOM     32  H   UNL     1     133.574 157.978 200.232  0.00  0.00    +0.031 HD
ATOM     33  H   UNL     1     133.195 158.593 197.852  0.00  0.00    +0.031 HD
ATOM     34  H   UNL     1     132.999 160.282 198.288  0.00  0.00    +0.031 HD
ATOM     35  H   UNL     1     131.175 157.958 199.241  0.00  0.00    +0.057 HD
ATOM     36  H   UNL     1     129.338 159.342 198.881  0.00  0.00    +0.057 HD
ENDROOT
BRANCH   8  37
ATOM     37  C   UNL     1     132.957 166.076 199.043  0.00  0.00    +0.087 C 
ATOM     38  C   UNL     1     131.680 166.786 199.493  0.00  0.00    +0.026 C 
ATOM     39  S   UNL     1     130.503 166.580 198.123  0.00  0.00    -0.066 S 
ATOM     40  C   UNL     1     131.760 166.268 196.954  0.00  0.00    +0.272 C 
ATOM     41  O   UNL     1     131.595 166.221 195.749  0.00  0.00    -0.263 OA
ATOM     42  N   UNL     1     132.958 166.118 197.586  0.00  0.00    -0.298 N 
ATOM     43  H   UNL     1     133.839 166.648 199.355  0.00  0.00    +0.056 HD
ATOM     44  H   UNL     1     131.263 166.415 200.432  0.00  0.00    +0.040 HD
ATOM     45  H   UNL     1     131.868 167.860 199.603  0.00  0.00    +0.040 HD
ATOM     46  H   UNL     1     133.791 165.994 197.024  0.00  0.00    +0.150 HD
ENDBRANCH   8  37
BRANCH   1  47
ATOM     47  C   UNL     1     129.512 161.211 196.813  0.00  0.00    -0.059 C 
ATOM     48  H   UNL     1     128.599 161.804 196.926  0.00  0.00    +0.024 HD
ATOM     49  H   UNL     1     130.107 161.665 196.012  0.00  0.00    +0.024 HD
ATOM     50  H   UNL     1     129.222 160.204 196.489  0.00  0.00    +0.024 HD
ENDBRANCH   1  47
BRANCH  14  51
ATOM     51  C   UNL     1     135.899 158.498 198.800  0.00  0.00    -0.043 C 
ATOM     52  H   UNL     1     136.915 158.883 198.670  0.00  0.00    +0.027 HD
ATOM     53  H   UNL     1     135.429 158.473 197.810  0.00  0.00    +0.027 HD
ATOM     54  H   UNL     1     135.958 157.466 199.161  0.00  0.00    +0.027 HD
ENDBRANCH  14  51
BRANCH   8  55
ATOM     55  O   UNL     1     133.754 163.843 198.587  0.00  0.00    -0.363 OA
ATOM     56  H   UNL     1     134.669 164.176 198.590  0.00  0.00    +0.213 HD
ENDBRANCH   8  55
TORSDOF 4
ENDMDL
MODEL 4
REMARK VINA RESULT:      -6.4     13.056     15.418
REMARK  Name = Latrunculin B_conf1
REMARK  4 active torsions:
REMARK  status: ('A' for Active; 'I' for Inactive)
REMARK    1  A    between atoms: C_1  and  C_2
REMARK    2  A    between atoms: C_9  and  C_11
REMARK    3  A    between atoms: C_9  and  O_17
REMARK    4  A    between atoms: C_22  and  C_27
REMARK                            x       y       z     vdW  Elec       q    Type
REMARK                         _______ _______ _______ _____ _____    ______ ____
ROOT
ATOM      1  C   UNL     1     148.001 171.366 192.009  0.00  0.00    -0.026 C 
ATOM      2  C   UNL     1     146.984 171.328 190.848  0.00  0.00    -0.045 C 
ATOM      3  C   UNL     1     147.263 170.266 189.770  0.00  0.00    -0.026 C 
ATOM      4  C   UNL     1     147.246 168.830 190.305  0.00  0.00    +0.065 C 
ATOM      5  C   UNL     1     147.579 167.828 189.204  0.00  0.00    +0.011 C 
ATOM      6  C   UNL     1     147.560 166.411 189.781  0.00  0.00    +0.111 C 
ATOM      7  C   UNL     1     146.215 166.151 190.468  0.00  0.00    +0.040 C 
ATOM      8  C   UNL     1     145.806 167.282 191.432  0.00  0.00    +0.190 C 
ATOM      9  O   UNL     1     145.941 168.558 190.819  0.00  0.00    -0.344 OA
ATOM     10  O   UNL     1     148.608 166.240 190.754  0.00  0.00    -0.458 OA
ATOM     11  C   UNL     1     149.864 166.111 190.274  0.00  0.00    +0.332 C 
ATOM     12  O   UNL     1     150.207 166.042 189.106  0.00  0.00    -0.246 OA
ATOM     13  C   UNL     1     150.790 166.074 191.418  0.00  0.00    +0.021 C 
ATOM     14  C   UNL     1     151.423 167.167 191.888  0.00  0.00    -0.066 C 
ATOM     15  C   UNL     1     151.279 168.559 191.301  0.00  0.00    -0.028 C 
ATOM     16  C   UNL     1     150.668 169.576 192.278  0.00  0.00    -0.031 C 
ATOM     17  C   UNL     1     150.507 170.926 191.632  0.00  0.00    -0.087 C 
ATOM     18  C   UNL     1     149.396 171.673 191.516  0.00  0.00    -0.085 C 
ATOM     19  H   UNL     1     147.974 170.407 192.534  0.00  0.00    +0.034 HD
ATOM     20  H   UNL     1     146.954 172.309 190.356  0.00  0.00    +0.027 HD
ATOM     21  H   UNL     1     145.978 171.164 191.257  0.00  0.00    +0.027 HD
ATOM     22  H   UNL     1     146.487 170.371 189.001  0.00  0.00    +0.029 HD
ATOM     23  H   UNL     1     148.222 170.474 189.283  0.00  0.00    +0.029 HD
ATOM     24  H   UNL     1     147.981 168.742 191.110  0.00  0.00    +0.060 HD
ATOM     25  H   UNL     1     148.557 168.063 188.773  0.00  0.00    +0.033 HD
ATOM     26  H   UNL     1     146.832 167.892 188.402  0.00  0.00    +0.033 HD
ATOM     27  H   UNL     1     147.694 165.670 188.982  0.00  0.00    +0.074 HD
ATOM     28  H   UNL     1     145.462 166.045 189.680  0.00  0.00    +0.035 HD
ATOM     29  H   UNL     1     146.268 165.202 191.018  0.00  0.00    +0.035 HD
ATOM     30  H   UNL     1     150.919 165.093 191.859  0.00  0.00    +0.069 HD
ATOM     31  H   UNL     1     150.674 168.540 190.387  0.00  0.00    +0.031 HD
ATOM     32  H   UNL     1     152.274 168.903 190.988  0.00  0.00    +0.031 HD
ATOM     33  H   UNL     1     151.329 169.704 193.145  0.00  0.00    +0.031 HD
ATOM     34  H   UNL     1     149.720 169.192 192.664  0.00  0.00    +0.031 HD
ATOM     35  H   UNL     1     151.426 171.345 191.219  0.00  0.00    +0.057 HD
ATOM     36  H   UNL     1     149.499 172.635 191.010  0.00  0.00    +0.057 HD
ENDROOT
BRANCH   8  37
ATOM     37  C   UNL     1     144.325 167.078 191.911  0.00  0.00    +0.087 C 
ATOM     38  C   UNL     1     143.485 166.204 190.980  0.00  0.00    +0.026 C 
ATOM     39  S   UNL     1     142.562 167.364 189.928  0.00  0.00    -0.066 S 
ATOM     40  C   UNL     1     142.740 168.686 191.052  0.00  0.00    +0.272 C 
ATOM     41  O   UNL     1     142.151 169.748 190.978  0.00  0.00    -0.263 OA
ATOM     42  N   UNL     1     143.609 168.342 192.044  0.00  0.00    -0.298 N 
ATOM     43  H   UNL     1     144.349 166.646 192.919  0.00  0.00    +0.056 HD
ATOM     44  H   UNL     1     144.063 165.498 190.379  0.00  0.00    +0.040 HD
ATOM     45  H   UNL     1     142.751 165.636 191.562  0.00  0.00    +0.040 HD
ATOM     46  H   UNL     1     143.761 168.992 192.804  0.00  0.00    +0.150 HD
ENDBRANCH   8  37
BRANCH   1  47
ATOM     47  C   UNL     1     147.581 172.431 193.029  0.00  0.00    -0.059 C 
ATOM     48  H   UNL     1     147.058 173.255 192.534  0.00  0.00    +0.024 HD
ATOM     49  H   UNL     1     146.902 172.009 193.779  0.00  0.00    +0.024 HD
ATOM     50  H   UNL     1     148.447 172.850 193.555  0.00  0.00    +0.024 HD
ENDBRANCH   1  47
BRANCH  14  51
ATOM     51  C   UNL     1     152.378 167.038 193.046  0.00  0.00    -0.043 C 
ATOM     52  H   UNL     1     152.627 165.985 193.218  0.00  0.00    +0.027 HD
ATOM     53  H   UNL     1     151.954 167.429 193.977  0.00  0.00    +0.027 HD
ATOM     54  H   UNL     1     153.302 167.589 192.848  0.00  0.00    +0.027 HD
ENDBRANCH  14  51
BRANCH   8  55
ATOM     55  O   UNL     1     146.636 167.236 192.591  0.00  0.00    -0.363 OA
ATOM     56  H   UNL     1     146.505 168.105 193.010  0.00  0.00    +0.213 HD
ENDBRANCH   8  55
TORSDOF 4
ENDMDL
MODEL 5
REMARK VINA RESULT:      -6.4     14.713     17.406
REMARK  Name = Latrunculin B_conf1
REMARK  4 active torsions:
REMARK  status: ('A' for Active; 'I' for Inactive)
REMARK    1  A    between atoms: C_1  and  C_2
REMARK    2  A    between atoms: C_9  and  C_11
REMARK    3  A    between atoms: C_9  and  O_17
REMARK    4  A    between atoms: C_22  and  C_27
REMARK                            x       y       z     vdW  Elec       q    Type
REMARK                         _______ _______ _______ _____ _____    ______ ____
ROOT
ATOM      1  C   UNL     1     148.468 167.447 191.946  0.00  0.00    -0.026 C 
ATOM      2  C   UNL     1     149.150 168.063 190.706  0.00  0.00    -0.045 C 
ATOM      3  C   UNL     1     148.215 168.344 189.517  0.00  0.00    -0.026 C 
ATOM      4  C   UNL     1     147.096 169.340 189.839  0.00  0.00    +0.065 C 
ATOM      5  C   UNL     1     146.173 169.539 188.641  0.00  0.00    +0.011 C 
ATOM      6  C   UNL     1     145.068 170.532 189.007  0.00  0.00    +0.111 C 
ATOM      7  C   UNL     1     145.692 171.831 189.529  0.00  0.00    +0.040 C 
ATOM      8  C   UNL     1     146.770 171.588 190.604  0.00  0.00    +0.190 C 
ATOM      9  O   UNL     1     147.695 170.589 190.192  0.00  0.00    -0.344 OA
ATOM     10  O   UNL     1     144.215 169.992 190.035  0.00  0.00    -0.458 OA
ATOM     11  C   UNL     1     143.338 169.038 189.654  0.00  0.00    +0.332 C 
ATOM     12  O   UNL     1     143.127 168.635 188.524  0.00  0.00    -0.246 OA
ATOM     13  C   UNL     1     142.657 168.536 190.859  0.00  0.00    +0.021 C 
ATOM     14  C   UNL     1     143.065 167.443 191.534  0.00  0.00    -0.066 C 
ATOM     15  C   UNL     1     144.256 166.588 191.139  0.00  0.00    -0.028 C 
ATOM     16  C   UNL     1     145.375 166.573 192.193  0.00  0.00    -0.031 C 
ATOM     17  C   UNL     1     146.547 165.748 191.733  0.00  0.00    -0.087 C 
ATOM     18  C   UNL     1     147.837 166.111 191.626  0.00  0.00    -0.085 C 
ATOM     19  H   UNL     1     147.722 168.151 192.325  0.00  0.00    +0.034 HD
ATOM     20  H   UNL     1     149.948 167.394 190.357  0.00  0.00    +0.027 HD
ATOM     21  H   UNL     1     149.647 168.998 190.997  0.00  0.00    +0.027 HD
ATOM     22  H   UNL     1     148.833 168.749 188.705  0.00  0.00    +0.029 HD
ATOM     23  H   UNL     1     147.787 167.404 189.151  0.00  0.00    +0.029 HD
ATOM     24  H   UNL     1     146.516 168.962 190.686  0.00  0.00    +0.060 HD
ATOM     25  H   UNL     1     145.751 168.577 188.336  0.00  0.00    +0.033 HD
ATOM     26  H   UNL     1     146.742 169.942 187.793  0.00  0.00    +0.033 HD
ATOM     27  H   UNL     1     144.457 170.767 188.127  0.00  0.00    +0.074 HD
ATOM     28  H   UNL     1     146.135 172.347 188.670  0.00  0.00    +0.035 HD
ATOM     29  H   UNL     1     144.902 172.472 189.941  0.00  0.00    +0.035 HD
ATOM     30  H   UNL     1     141.799 169.121 191.166  0.00  0.00    +0.069 HD
ATOM     31  H   UNL     1     144.677 166.917 190.182  0.00  0.00    +0.031 HD
ATOM     32  H   UNL     1     143.900 165.563 190.967  0.00  0.00    +0.031 HD
ATOM     33  H   UNL     1     145.004 166.126 193.124  0.00  0.00    +0.031 HD
ATOM     34  H   UNL     1     145.666 167.599 192.435  0.00  0.00    +0.031 HD
ATOM     35  H   UNL     1     146.302 164.719 191.466  0.00  0.00    +0.057 HD
ATOM     36  H   UNL     1     148.535 165.350 191.273  0.00  0.00    +0.057 HD
ENDROOT
BRANCH   8  37
ATOM     37  C   UNL     1     147.536 172.922 190.916  0.00  0.00    +0.087 C 
ATOM     38  C   UNL     1     149.025 172.732 191.207  0.00  0.00    +0.026 C 
ATOM     39  S   UNL     1     149.164 172.698 193.019  0.00  0.00    -0.066 S 
ATOM     40  C   UNL     1     147.643 173.520 193.253  0.00  0.00    +0.272 C 
ATOM     41  O   UNL     1     147.247 173.965 194.315  0.00  0.00    -0.263 OA
ATOM     42  N   UNL     1     146.979 173.622 192.067  0.00  0.00    -0.298 N 
ATOM     43  H   UNL     1     147.400 173.601 190.065  0.00  0.00    +0.056 HD
ATOM     44  H   UNL     1     149.461 171.835 190.760  0.00  0.00    +0.040 HD
ATOM     45  H   UNL     1     149.590 173.600 190.852  0.00  0.00    +0.040 HD
ATOM     46  H   UNL     1     146.107 174.134 192.042  0.00  0.00    +0.150 HD
ENDBRANCH   8  37
BRANCH   1  47
ATOM     47  C   UNL     1     149.499 167.262 193.065  0.00  0.00    -0.059 C 
ATOM     48  H   UNL     1     150.198 166.457 192.818  0.00  0.00    +0.024 HD
ATOM     49  H   UNL     1     150.084 168.177 193.213  0.00  0.00    +0.024 HD
ATOM     50  H   UNL     1     149.019 167.010 194.019  0.00  0.00    +0.024 HD
ENDBRANCH   1  47
BRANCH  14  51
ATOM     51  C   UNL     1     142.294 166.978 192.741  0.00  0.00    -0.043 C 
ATOM     52  H   UNL     1     141.954 167.836 193.329  0.00  0.00    +0.027 HD
ATOM     53  H   UNL     1     142.901 166.349 193.402  0.00  0.00    +0.027 HD
ATOM     54  H   UNL     1     141.421 166.391 192.440  0.00  0.00    +0.027 HD
ENDBRANCH  14  51
BRANCH   8  55
ATOM     55  O   UNL     1     146.143 171.166 191.814  0.00  0.00    -0.363 OA
ATOM     56  H   UNL     1     145.431 171.817 191.949  0.00  0.00    +0.213 HD
ENDBRANCH   8  55
TORSDOF 4
ENDMDL
MODEL 6
REMARK VINA RESULT:      -6.3     26.486     28.593
REMARK  Name = Latrunculin B_conf1
REMARK  4 active torsions:
REMARK  status: ('A' for Active; 'I' for Inactive)
REMARK    1  A    between atoms: C_1  and  C_2
REMARK    2  A    between atoms: C_9  and  C_11
REMARK    3  A    between atoms: C_9  and  O_17
REMARK    4  A    between atoms: C_22  and  C_27
REMARK                            x       y       z     vdW  Elec       q    Type
REMARK                         _______ _______ _______ _____ _____    ______ ____
ROOT
ATOM      1  C   UNL     1     129.430 161.816 199.436  0.00  0.00    -0.026 C 
ATOM      2  C   UNL     1     129.795 162.671 200.668  0.00  0.00    -0.045 C 
ATOM      3  C   UNL     1     131.000 162.167 201.481  0.00  0.00    -0.026 C 
ATOM      4  C   UNL     1     132.305 162.122 200.680  0.00  0.00    +0.065 C 
ATOM      5  C   UNL     1     133.450 161.566 201.521  0.00  0.00    +0.011 C 
ATOM      6  C   UNL     1     134.729 161.530 200.683  0.00  0.00    +0.111 C 
ATOM      7  C   UNL     1     135.006 162.923 200.104  0.00  0.00    +0.040 C 
ATOM      8  C   UNL     1     133.770 163.548 199.429  0.00  0.00    +0.190 C 
ATOM      9  O   UNL     1     132.621 163.451 200.263  0.00  0.00    -0.344 OA
ATOM     10  O   UNL     1     134.600 160.602 199.591  0.00  0.00    -0.458 OA
ATOM     11  C   UNL     1     134.675 159.289 199.900  0.00  0.00    +0.332 C 
ATOM     12  O   UNL     1     134.919 158.798 200.989  0.00  0.00    -0.246 OA
ATOM     13  C   UNL     1     134.397 158.514 198.680  0.00  0.00    +0.021 C 
ATOM     14  C   UNL     1     133.172 158.044 198.369  0.00  0.00    -0.066 C 
ATOM     15  C   UNL     1     131.937 158.237 199.230  0.00  0.00    -0.028 C 
ATOM     16  C   UNL     1     130.832 159.054 198.541  0.00  0.00    -0.031 C 
ATOM     17  C   UNL     1     129.650 159.252 199.453  0.00  0.00    -0.087 C 
ATOM     18  C   UNL     1     129.066 160.403 199.830  0.00  0.00    -0.085 C 
ATOM     19  H   UNL     1     130.273 161.822 198.739  0.00  0.00    +0.034 HD
ATOM     20  H   UNL     1     128.931 162.727 201.344  0.00  0.00    +0.027 HD
ATOM     21  H   UNL     1     129.991 163.702 200.344  0.00  0.00    +0.027 HD
ATOM     22  H   UNL     1     131.125 162.847 202.333  0.00  0.00    +0.029 HD
ATOM     23  H   UNL     1     130.780 161.176 201.896  0.00  0.00    +0.029 HD
ATOM     24  H   UNL     1     132.161 161.489 199.800  0.00  0.00    +0.060 HD
ATOM     25  H   UNL     1     133.190 160.567 201.884  0.00  0.00    +0.033 HD
ATOM     26  H   UNL     1     133.618 162.209 202.395  0.00  0.00    +0.033 HD
ATOM     27  H   UNL     1     135.585 161.233 201.302  0.00  0.00    +0.074 HD
ATOM     28  H   UNL     1     135.338 163.559 200.932  0.00  0.00    +0.035 HD
ATOM     29  H   UNL     1     135.826 162.855 199.377  0.00  0.00    +0.035 HD
ATOM     30  H   UNL     1     135.258 158.354 198.044  0.00  0.00    +0.069 HD
ATOM     31  H   UNL     1     132.191 158.719 200.181  0.00  0.00    +0.031 HD
ATOM     32  H   UNL     1     131.548 157.245 199.497  0.00  0.00    +0.031 HD
ATOM     33  H   UNL     1     130.473 158.520 197.651  0.00  0.00    +0.031 HD
ATOM     34  H   UNL     1     131.241 160.005 198.190  0.00  0.00    +0.031 HD
ATOM     35  H   UNL     1     129.215 158.329 199.840  0.00  0.00    +0.057 HD
ATOM     36  H   UNL     1     128.209 160.322 200.501  0.00  0.00    +0.057 HD
ENDROOT
BRANCH   8  37
ATOM     37  C   UNL     1     134.045 165.054 199.079  0.00  0.00    +0.087 C 
ATOM     38  C   UNL     1     133.061 166.032 199.721  0.00  0.00    +0.026 C 
ATOM     39  S   UNL     1     131.818 166.378 198.440  0.00  0.00    -0.066 S 
ATOM     40  C   UNL     1     132.872 165.886 197.140  0.00  0.00    +0.272 C 
ATOM     41  O   UNL     1     132.648 166.065 195.957  0.00  0.00    -0.263 OA
ATOM     42  N   UNL     1     133.996 165.304 197.644  0.00  0.00    -0.298 N 
ATOM     43  H   UNL     1     135.071 165.292 199.385  0.00  0.00    +0.056 HD
ATOM     44  H   UNL     1     132.593 165.665 200.638  0.00  0.00    +0.040 HD
ATOM     45  H   UNL     1     133.567 166.976 199.949  0.00  0.00    +0.040 HD
ATOM     46  H   UNL     1     134.728 165.026 197.003  0.00  0.00    +0.150 HD
ENDBRANCH   8  37
BRANCH   1  47
ATOM     47  C   UNL     1     128.249 162.452 198.695  0.00  0.00    -0.059 C 
ATOM     48  H   UNL     1     127.690 161.695 198.136  0.00  0.00    +0.024 HD
ATOM     49  H   UNL     1     127.555 162.927 199.398  0.00  0.00    +0.024 HD
ATOM     50  H   UNL     1     128.584 163.217 197.983  0.00  0.00    +0.024 HD
ENDBRANCH   1  47
BRANCH  14  51
ATOM     51  C   UNL     1     132.979 157.234 197.114  0.00  0.00    -0.043 C 
ATOM     52  H   UNL     1     133.948 156.953 196.689  0.00  0.00    +0.027 HD
ATOM     53  H   UNL     1     132.432 157.789 196.344  0.00  0.00    +0.027 HD
ATOM     54  H   UNL     1     132.412 156.322 197.326  0.00  0.00    +0.027 HD
ENDBRANCH  14  51
BRANCH   8  55
ATOM     55  O   UNL     1     133.508 162.869 198.203  0.00  0.00    -0.363 OA
ATOM     56  H   UNL     1     133.310 163.585 197.574  0.00  0.00    +0.213 HD
ENDBRANCH   8  55
TORSDOF 4
ENDMDL
MODEL 7
REMARK VINA RESULT:      -6.3     13.536     16.246
REMARK  Name = Latrunculin B_conf1
REMARK  4 active torsions:
REMARK  status: ('A' for Active; 'I' for Inactive)
REMARK    1  A    between atoms: C_1  and  C_2
REMARK    2  A    between atoms: C_9  and  C_11
REMARK    3  A    between atoms: C_9  and  O_17
REMARK    4  A    between atoms: C_22  and  C_27
REMARK                            x       y       z     vdW  Elec       q    Type
REMARK                         _______ _______ _______ _____ _____    ______ ____
ROOT
ATOM      1  C   UNL     1     156.119 174.089 181.960  0.00  0.00    -0.026 C 
ATOM      2  C   UNL     1     156.582 174.429 183.393  0.00  0.00    -0.045 C 
ATOM      3  C   UNL     1     156.411 173.297 184.421  0.00  0.00    -0.026 C 
ATOM      4  C   UNL     1     157.207 172.033 184.080  0.00  0.00    +0.065 C 
ATOM      5  C   UNL     1     156.959 170.931 185.104  0.00  0.00    +0.011 C 
ATOM      6  C   UNL     1     157.763 169.687 184.723  0.00  0.00    +0.111 C 
ATOM      7  C   UNL     1     159.242 170.059 184.561  0.00  0.00    +0.040 C 
ATOM      8  C   UNL     1     159.454 171.303 183.676  0.00  0.00    +0.190 C 
ATOM      9  O   UNL     1     158.596 172.367 184.068  0.00  0.00    -0.344 OA
ATOM     10  O   UNL     1     157.295 169.136 183.478  0.00  0.00    -0.458 OA
ATOM     11  C   UNL     1     156.125 168.460 183.518  0.00  0.00    +0.332 C 
ATOM     12  O   UNL     1     155.457 168.194 184.501  0.00  0.00    -0.246 OA
ATOM     13  C   UNL     1     155.764 168.091 182.139  0.00  0.00    +0.021 C 
ATOM     14  C   UNL     1     154.943 168.832 181.369  0.00  0.00    -0.066 C 
ATOM     15  C   UNL     1     154.281 170.122 181.818  0.00  0.00    -0.028 C 
ATOM     16  C   UNL     1     154.715 171.350 181.001  0.00  0.00    -0.031 C 
ATOM     17  C   UNL     1     154.064 172.606 181.515  0.00  0.00    -0.087 C 
ATOM     18  C   UNL     1     154.647 173.748 181.918  0.00  0.00    -0.085 C 
ATOM     19  H   UNL     1     156.723 173.260 181.581  0.00  0.00    +0.034 HD
ATOM     20  H   UNL     1     156.028 175.304 183.759  0.00  0.00    +0.027 HD
ATOM     21  H   UNL     1     157.638 174.729 183.367  0.00  0.00    +0.027 HD
ATOM     22  H   UNL     1     156.750 173.684 185.391  0.00  0.00    +0.029 HD
ATOM     23  H   UNL     1     155.348 173.052 184.531  0.00  0.00    +0.029 HD
ATOM     24  H   UNL     1     156.909 171.681 183.088  0.00  0.00    +0.060 HD
ATOM     25  H   UNL     1     155.888 170.706 185.153  0.00  0.00    +0.033 HD
ATOM     26  H   UNL     1     157.278 171.266 186.100  0.00  0.00    +0.033 HD
ATOM     27  H   UNL     1     157.679 168.921 185.504  0.00  0.00    +0.074 HD
ATOM     28  H   UNL     1     159.642 170.244 185.564  0.00  0.00    +0.035 HD
ATOM     29  H   UNL     1     159.783 169.206 184.131  0.00  0.00    +0.035 HD
ATOM     30  H   UNL     1     156.216 167.172 181.788  0.00  0.00    +0.069 HD
ATOM     31  H   UNL     1     154.477 170.317 182.879  0.00  0.00    +0.031 HD
ATOM     32  H   UNL     1     153.193 169.994 181.738  0.00  0.00    +0.031 HD
ATOM     33  H   UNL     1     154.410 171.228 179.954  0.00  0.00    +0.031 HD
ATOM     34  H   UNL     1     155.806 171.426 181.001  0.00  0.00    +0.031 HD
ATOM     35  H   UNL     1     152.974 172.573 181.547  0.00  0.00    +0.057 HD
ATOM     36  H   UNL     1     153.984 174.548 182.254  0.00  0.00    +0.057 HD
ENDROOT
BRANCH   8  37
ATOM     37  C   UNL     1     160.950 171.773 183.750  0.00  0.00    +0.087 C 
ATOM     38  C   UNL     1     161.231 173.073 182.998  0.00  0.00    +0.026 C 
ATOM     39  S   UNL     1     161.889 172.566 181.381  0.00  0.00    -0.066 S 
ATOM     40  C   UNL     1     162.360 170.987 181.954  0.00  0.00    +0.272 C 
ATOM     41  O   UNL     1     163.054 170.200 181.336  0.00  0.00    -0.263 OA
ATOM     42  N   UNL     1     161.868 170.778 183.207  0.00  0.00    -0.298 N 
ATOM     43  H   UNL     1     161.222 171.879 184.807  0.00  0.00    +0.056 HD
ATOM     44  H   UNL     1     160.362 173.726 182.884  0.00  0.00    +0.040 HD
ATOM     45  H   UNL     1     162.019 173.638 183.509  0.00  0.00    +0.040 HD
ATOM     46  H   UNL     1     162.117 169.925 183.691  0.00  0.00    +0.150 HD
ENDBRANCH   8  37
BRANCH   1  47
ATOM     47  C   UNL     1     156.387 175.280 181.033  0.00  0.00    -0.059 C 
ATOM     48  H   UNL     1     157.328 175.773 181.300  0.00  0.00    +0.024 HD
ATOM     49  H   UNL     1     156.466 174.955 179.990  0.00  0.00    +0.024 HD
ATOM     50  H   UNL     1     155.587 176.028 181.095  0.00  0.00    +0.024 HD
ENDBRANCH   1  47
BRANCH  14  51
ATOM     51  C   UNL     1     154.600 168.367 179.978  0.00  0.00    -0.043 C 
ATOM     52  H   UNL     1     155.235 168.869 179.241  0.00  0.00    +0.027 HD
ATOM     53  H   UNL     1     153.559 168.585 179.715  0.00  0.00    +0.027 HD
ATOM     54  H   UNL     1     154.743 167.286 179.885  0.00  0.00    +0.027 HD
ENDBRANCH  14  51
BRANCH   8  55
ATOM     55  O   UNL     1     159.182 170.966 182.317  0.00  0.00    -0.363 OA
ATOM     56  H   UNL     1     159.756 170.199 182.145  0.00  0.00    +0.213 HD
ENDBRANCH   8  55
TORSDOF 4
ENDMDL
MODEL 8
REMARK VINA RESULT:      -6.2     13.870     16.599
REMARK  Name = Latrunculin B_conf1
REMARK  4 active torsions:
REMARK  status: ('A' for Active; 'I' for Inactive)
REMARK    1  A    between atoms: C_1  and  C_2
REMARK    2  A    between atoms: C_9  and  C_11
REMARK    3  A    between atoms: C_9  and  O_17
REMARK    4  A    between atoms: C_22  and  C_27
REMARK                            x       y       z     vdW  Elec       q    Type
REMARK                         _______ _______ _______ _____ _____    ______ ____
ROOT
ATOM      1  C   UNL     1     157.148 174.256 182.352  0.00  0.00    -0.026 C 
ATOM      2  C   UNL     1     158.540 174.920 182.391  0.00  0.00    -0.045 C 
ATOM      3  C   UNL     1     159.588 174.192 183.250  0.00  0.00    -0.026 C 
ATOM      4  C   UNL     1     159.887 172.766 182.775  0.00  0.00    +0.065 C 
ATOM      5  C   UNL     1     160.892 172.078 183.693  0.00  0.00    +0.011 C 
ATOM      6  C   UNL     1     161.155 170.657 183.190  0.00  0.00    +0.111 C 
ATOM      7  C   UNL     1     161.590 170.703 181.721  0.00  0.00    +0.040 C 
ATOM      8  C   UNL     1     160.664 171.572 180.848  0.00  0.00    +0.190 C 
ATOM      9  O   UNL     1     160.422 172.837 181.452  0.00  0.00    -0.344 OA
ATOM     10  O   UNL     1     159.966 169.851 183.287  0.00  0.00    -0.458 OA
ATOM     11  C   UNL     1     159.619 169.431 184.523  0.00  0.00    +0.332 C 
ATOM     12  O   UNL     1     160.240 169.588 185.560  0.00  0.00    -0.246 OA
ATOM     13  C   UNL     1     158.324 168.737 184.424  0.00  0.00    +0.021 C 
ATOM     14  C   UNL     1     157.143 169.347 184.646  0.00  0.00    -0.066 C 
ATOM     15  C   UNL     1     156.993 170.806 185.036  0.00  0.00    -0.028 C 
ATOM     16  C   UNL     1     156.226 171.642 183.998  0.00  0.00    -0.031 C 
ATOM     17  C   UNL     1     156.145 173.087 184.413  0.00  0.00    -0.087 C 
ATOM     18  C   UNL     1     156.531 174.178 183.730  0.00  0.00    -0.085 C 
ATOM     19  H   UNL     1     157.243 173.261 181.909  0.00  0.00    +0.034 HD
ATOM     20  H   UNL     1     158.446 175.946 182.771  0.00  0.00    +0.027 HD
ATOM     21  H   UNL     1     158.923 175.012 181.366  0.00  0.00    +0.027 HD
ATOM     22  H   UNL     1     160.512 174.784 183.210  0.00  0.00    +0.029 HD
ATOM     23  H   UNL     1     159.266 174.179 184.298  0.00  0.00    +0.029 HD
ATOM     24  H   UNL     1     158.956 172.193 182.762  0.00  0.00    +0.060 HD
ATOM     25  H   UNL     1     160.508 172.066 184.719  0.00  0.00    +0.033 HD
ATOM     26  H   UNL     1     161.839 172.633 183.695  0.00  0.00    +0.033 HD
ATOM     27  H   UNL     1     161.953 170.184 183.777  0.00  0.00    +0.074 HD
ATOM     28  H   UNL     1     162.609 171.105 181.696  0.00  0.00    +0.035 HD
ATOM     29  H   UNL     1     161.618 169.681 181.321  0.00  0.00    +0.035 HD
ATOM     30  H   UNL     1     158.395 167.692 184.151  0.00  0.00    +0.069 HD
ATOM     31  H   UNL     1     157.971 171.270 185.211  0.00  0.00    +0.031 HD
ATOM     32  H   UNL     1     156.470 170.850 186.001  0.00  0.00    +0.031 HD
ATOM     33  H   UNL     1     155.199 171.269 183.904  0.00  0.00    +0.031 HD
ATOM     34  H   UNL     1     156.691 171.524 183.015  0.00  0.00    +0.031 HD
ATOM     35  H   UNL     1     155.700 173.253 185.395  0.00  0.00    +0.057 HD
ATOM     36  H   UNL     1     156.377 175.143 184.216  0.00  0.00    +0.057 HD
ENDROOT
BRANCH   8  37
ATOM     37  C   UNL     1     161.294 171.777 179.425  0.00  0.00    +0.087 C 
ATOM     38  C   UNL     1     162.258 170.667 179.006  0.00  0.00    +0.026 C 
ATOM     39  S   UNL     1     163.919 171.299 179.390  0.00  0.00    -0.066 S 
ATOM     40  C   UNL     1     163.396 172.964 179.395  0.00  0.00    +0.272 C 
ATOM     41  O   UNL     1     164.140 173.927 179.426  0.00  0.00    -0.263 OA
ATOM     42  N   UNL     1     162.037 173.027 179.325  0.00  0.00    -0.298 N 
ATOM     43  H   UNL     1     160.476 171.862 178.699  0.00  0.00    +0.056 HD
ATOM     44  H   UNL     1     162.079 169.705 179.491  0.00  0.00    +0.040 HD
ATOM     45  H   UNL     1     162.209 170.518 177.922  0.00  0.00    +0.040 HD
ATOM     46  H   UNL     1     161.596 173.935 179.255  0.00  0.00    +0.150 HD
ENDBRANCH   8  37
BRANCH   1  47
ATOM     47  C   UNL     1     156.220 175.054 181.429  0.00  0.00    -0.059 C 
ATOM     48  H   UNL     1     155.709 175.846 181.985  0.00  0.00    +0.024 HD
ATOM     49  H   UNL     1     156.786 175.528 180.619  0.00  0.00    +0.024 HD
ATOM     50  H   UNL     1     155.453 174.414 180.975  0.00  0.00    +0.024 HD
ENDBRANCH   1  47
BRANCH  14  51
ATOM     51  C   UNL     1     155.864 168.557 184.553  0.00  0.00    -0.043 C 
ATOM     52  H   UNL     1     155.232 168.751 185.426  0.00  0.00    +0.027 HD
ATOM     53  H   UNL     1     156.047 167.477 184.516  0.00  0.00    +0.027 HD
ATOM     54  H   UNL     1     155.307 168.827 183.650  0.00  0.00    +0.027 HD
ENDBRANCH  14  51
BRANCH   8  55
ATOM     55  O   UNL     1     159.419 170.900 180.668  0.00  0.00    -0.363 OA
ATOM     56  H   UNL     1     158.770 171.485 181.098  0.00  0.00    +0.213 HD
ENDBRANCH   8  55
TORSDOF 4
ENDMDL
MODEL 9
REMARK VINA RESULT:      -6.1     15.687     18.344
REMARK  Name = Latrunculin B_conf1
REMARK  4 active torsions:
REMARK  status: ('A' for Active; 'I' for Inactive)
REMARK    1  A    between atoms: C_1  and  C_2
REMARK    2  A    between atoms: C_9  and  C_11
REMARK    3  A    between atoms: C_9  and  O_17
REMARK    4  A    between atoms: C_22  and  C_27
REMARK                            x       y       z     vdW  Elec       q    Type
REMARK                         _______ _______ _______ _____ _____    ______ ____
ROOT
ATOM      1  C   UNL     1     153.749 171.643 179.764  0.00  0.00    -0.026 C 
ATOM      2  C   UNL     1     153.227 172.963 180.372  0.00  0.00    -0.045 C 
ATOM      3  C   UNL     1     153.554 173.172 181.861  0.00  0.00    -0.026 C 
ATOM      4  C   UNL     1     155.057 173.213 182.158  0.00  0.00    +0.065 C 
ATOM      5  C   UNL     1     155.320 173.370 183.652  0.00  0.00    +0.011 C 
ATOM      6  C   UNL     1     156.829 173.398 183.906  0.00  0.00    +0.111 C 
ATOM      7  C   UNL     1     157.477 174.489 183.045  0.00  0.00    +0.040 C 
ATOM      8  C   UNL     1     157.037 174.430 181.569  0.00  0.00    +0.190 C 
ATOM      9  O   UNL     1     155.623 174.321 181.455  0.00  0.00    -0.344 OA
ATOM     10  O   UNL     1     157.429 172.135 183.564  0.00  0.00    -0.458 OA
ATOM     11  C   UNL     1     157.226 171.115 184.427  0.00  0.00    +0.332 C 
ATOM     12  O   UNL     1     156.658 171.159 185.504  0.00  0.00    -0.246 OA
ATOM     13  C   UNL     1     157.807 169.897 183.840  0.00  0.00    +0.021 C 
ATOM     14  C   UNL     1     157.090 169.011 183.121  0.00  0.00    -0.066 C 
ATOM     15  C   UNL     1     155.605 169.142 182.835  0.00  0.00    -0.028 C 
ATOM     16  C   UNL     1     155.279 169.284 181.339  0.00  0.00    -0.031 C 
ATOM     17  C   UNL     1     153.800 169.455 181.116  0.00  0.00    -0.087 C 
ATOM     18  C   UNL     1     153.160 170.439 180.463  0.00  0.00    -0.085 C 
ATOM     19  H   UNL     1     154.840 171.635 179.824  0.00  0.00    +0.034 HD
ATOM     20  H   UNL     1     152.135 173.013 180.257  0.00  0.00    +0.027 HD
ATOM     21  H   UNL     1     153.630 173.807 179.798  0.00  0.00    +0.027 HD
ATOM     22  H   UNL     1     153.103 174.125 182.163  0.00  0.00    +0.029 HD
ATOM     23  H   UNL     1     153.075 172.390 182.461  0.00  0.00    +0.029 HD
ATOM     24  H   UNL     1     155.516 172.286 181.804  0.00  0.00    +0.060 HD
ATOM     25  H   UNL     1     154.846 172.549 184.199  0.00  0.00    +0.033 HD
ATOM     26  H   UNL     1     154.884 174.311 184.012  0.00  0.00    +0.033 HD
ATOM     27  H   UNL     1     157.036 173.615 184.961  0.00  0.00    +0.074 HD
ATOM     28  H   UNL     1     157.193 175.455 183.478  0.00  0.00    +0.035 HD
ATOM     29  H   UNL     1     158.569 174.397 183.107  0.00  0.00    +0.035 HD
ATOM     30  H   UNL     1     158.866 169.769 184.029  0.00  0.00    +0.069 HD
ATOM     31  H   UNL     1     155.175 169.996 183.373  0.00  0.00    +0.031 HD
ATOM     32  H   UNL     1     155.099 168.255 183.239  0.00  0.00    +0.031 HD
ATOM     33  H   UNL     1     155.589 168.378 180.803  0.00  0.00    +0.031 HD
ATOM     34  H   UNL     1     155.855 170.110 180.914  0.00  0.00    +0.031 HD
ATOM     35  H   UNL     1     153.182 168.660 181.537  0.00  0.00    +0.057 HD
ATOM     36  H   UNL     1     152.071 170.370 180.412  0.00  0.00    +0.057 HD
ENDROOT
BRANCH   8  37
ATOM     37  C   UNL     1     157.534 175.706 180.802  0.00  0.00    +0.087 C 
ATOM     38  C   UNL     1     156.417 176.501 180.127  0.00  0.00    +0.026 C 
ATOM     39  S   UNL     1     156.411 175.953 178.394  0.00  0.00    -0.066 S 
ATOM     40  C   UNL     1     158.051 175.362 178.469  0.00  0.00    +0.272 C 
ATOM     41  O   UNL     1     158.710 175.013 177.506  0.00  0.00    -0.263 OA
ATOM     42  N   UNL     1     158.496 175.380 179.756  0.00  0.00    -0.298 N 
ATOM     43  H   UNL     1     158.076 176.341 181.513  0.00  0.00    +0.056 HD
ATOM     44  H   UNL     1     155.432 176.375 180.585  0.00  0.00    +0.040 HD
ATOM     45  H   UNL     1     156.662 177.568 180.131  0.00  0.00    +0.040 HD
ATOM     46  H   UNL     1     159.457 175.123 179.941  0.00  0.00    +0.150 HD
ENDBRANCH   8  37
BRANCH   1  47
ATOM     47  C   UNL     1     153.395 171.585 178.274  0.00  0.00    -0.059 C 
ATOM     48  H   UNL     1     154.299 171.637 177.660  0.00  0.00    +0.024 HD
ATOM     49  H   UNL     1     152.881 170.648 178.030  0.00  0.00    +0.024 HD
ATOM     50  H   UNL     1     152.741 172.415 177.981  0.00  0.00    +0.024 HD
ENDBRANCH   1  47
BRANCH  14  51
ATOM     51  C   UNL     1     157.756 167.772 182.581  0.00  0.00    -0.043 C 
ATOM     52  H   UNL     1     157.728 166.970 183.325  0.00  0.00    +0.027 HD
ATOM     53  H   UNL     1     158.808 167.946 182.327  0.00  0.00    +0.027 HD
ATOM     54  H   UNL     1     157.252 167.427 181.673  0.00  0.00    +0.027 HD
ENDBRANCH  14  51
BRANCH   8  55
ATOM     55  O   UNL     1     157.639 173.297 180.944  0.00  0.00    -0.363 OA
ATOM     56  H   UNL     1     157.965 173.643 180.094  0.00  0.00    +0.213 HD
ENDBRANCH   8  55
TORSDOF 4
ENDMDL
MODEL 10
REMARK VINA RESULT:      -6.0      3.294      5.669
REMARK  Name = Latrunculin B_conf1
REMARK  4 active torsions:
REMARK  status: ('A' for Active; 'I' for Inactive)
REMARK    1  A    between atoms: C_1  and  C_2
REMARK    2  A    between atoms: C_9  and  C_11
REMARK    3  A    between atoms: C_9  and  O_17
REMARK    4  A    between atoms: C_22  and  C_27
REMARK                            x       y       z     vdW  Elec       q    Type
REMARK                         _______ _______ _______ _____ _____    ______ ____
ROOT
ATOM      1  C   UNL     1     161.758 163.377 192.697  0.00  0.00    -0.026 C 
ATOM      2  C   UNL     1     161.721 164.435 193.821  0.00  0.00    -0.045 C 
ATOM      3  C   UNL     1     160.656 164.200 194.906  0.00  0.00    -0.026 C 
ATOM      4  C   UNL     1     160.834 162.881 195.665  0.00  0.00    +0.065 C 
ATOM      5  C   UNL     1     159.723 162.679 196.689  0.00  0.00    +0.011 C 
ATOM      6  C   UNL     1     159.933 161.350 197.417  0.00  0.00    +0.111 C 
ATOM      7  C   UNL     1     161.343 161.308 198.018  0.00  0.00    +0.040 C 
ATOM      8  C   UNL     1     162.437 161.711 197.010  0.00  0.00    +0.190 C 
ATOM      9  O   UNL     1     162.097 162.915 196.333  0.00  0.00    -0.344 OA
ATOM     10  O   UNL     1     159.793 160.242 196.509  0.00  0.00    -0.458 OA
ATOM     11  C   UNL     1     158.535 159.924 196.131  0.00  0.00    +0.332 C 
ATOM     12  O   UNL     1     157.495 160.416 196.532  0.00  0.00    -0.246 OA
ATOM     13  C   UNL     1     158.617 158.859 195.118  0.00  0.00    +0.021 C 
ATOM     14  C   UNL     1     158.613 159.102 193.792  0.00  0.00    -0.066 C 
ATOM     15  C   UNL     1     158.511 160.486 193.176  0.00  0.00    -0.028 C 
ATOM     16  C   UNL     1     159.747 160.882 192.351  0.00  0.00    -0.031 C 
ATOM     17  C   UNL     1     159.612 162.277 191.801  0.00  0.00    -0.087 C 
ATOM     18  C   UNL     1     160.448 163.319 191.946  0.00  0.00    -0.085 C 
ATOM     19  H   UNL     1     162.001 162.405 193.135  0.00  0.00    +0.034 HD
ATOM     20  H   UNL     1     161.545 165.427 193.384  0.00  0.00    +0.027 HD
ATOM     21  H   UNL     1     162.709 164.487 194.297  0.00  0.00    +0.027 HD
ATOM     22  H   UNL     1     160.725 165.034 195.616  0.00  0.00    +0.029 HD
ATOM     23  H   UNL     1     159.656 164.244 194.460  0.00  0.00    +0.029 HD
ATOM     24  H   UNL     1     160.823 162.054 194.949  0.00  0.00    +0.060 HD
ATOM     25  H   UNL     1     158.750 162.703 196.188  0.00  0.00    +0.033 HD
ATOM     26  H   UNL     1     159.742 163.492 197.427  0.00  0.00    +0.033 HD
ATOM     27  H   UNL     1     159.203 161.238 198.229  0.00  0.00    +0.074 HD
ATOM     28  H   UNL     1     161.353 161.996 198.871  0.00  0.00    +0.035 HD
ATOM     29  H   UNL     1     161.545 160.297 198.394  0.00  0.00    +0.035 HD
ATOM     30  H   UNL     1     158.687 157.858 195.524  0.00  0.00    +0.069 HD
ATOM     31  H   UNL     1     158.341 161.248 193.945  0.00  0.00    +0.031 HD
ATOM     32  H   UNL     1     157.619 160.510 192.535  0.00  0.00    +0.031 HD
ATOM     33  H   UNL     1     159.858 160.202 191.498  0.00  0.00    +0.031 HD
ATOM     34  H   UNL     1     160.647 160.768 192.960  0.00  0.00    +0.031 HD
ATOM     35  H   UNL     1     158.719 162.442 191.197  0.00  0.00    +0.057 HD
ATOM     36  H   UNL     1     160.162 164.252 191.456  0.00  0.00    +0.057 HD
ENDROOT
BRANCH   8  37
ATOM     37  C   UNL     1     163.814 161.885 197.743  0.00  0.00    +0.087 C 
ATOM     38  C   UNL     1     165.022 161.475 196.902  0.00  0.00    +0.026 C 
ATOM     39  S   UNL     1     165.418 159.777 197.418  0.00  0.00    -0.066 S 
ATOM     40  C   UNL     1     164.588 159.939 198.944  0.00  0.00    +0.272 C 
ATOM     41  O   UNL     1     164.653 159.140 199.860  0.00  0.00    -0.263 OA
ATOM     42  N   UNL     1     163.886 161.106 198.973  0.00  0.00    -0.298 N 
ATOM     43  H   UNL     1     163.905 162.933 198.052  0.00  0.00    +0.056 HD
ATOM     44  H   UNL     1     164.863 161.533 195.822  0.00  0.00    +0.040 HD
ATOM     45  H   UNL     1     165.884 162.102 197.154  0.00  0.00    +0.040 HD
ATOM     46  H   UNL     1     163.405 161.362 199.825  0.00  0.00    +0.150 HD
ENDBRANCH   8  37
BRANCH   1  47
ATOM     47  C   UNL     1     162.888 163.705 191.715  0.00  0.00    -0.059 C 
ATOM     48  H   UNL     1     163.698 164.239 192.222  0.00  0.00    +0.024 HD
ATOM     49  H   UNL     1     163.311 162.789 191.285  0.00  0.00    +0.024 HD
ATOM     50  H   UNL     1     162.535 164.334 190.889  0.00  0.00    +0.024 HD
ENDBRANCH   1  47
BRANCH  14  51
ATOM     51  C   UNL     1     158.669 157.953 192.820  0.00  0.00    -0.043 C 
ATOM     52  H   UNL     1     158.571 158.318 191.793  0.00  0.00    +0.027 HD
ATOM     53  H   UNL     1     157.864 157.230 192.989  0.00  0.00    +0.027 HD
ATOM     54  H   UNL     1     159.618 157.415 192.912  0.00  0.00    +0.027 HD
ENDBRANCH  14  51
BRANCH   8  55
ATOM     55  O   UNL     1     162.597 160.670 196.048  0.00  0.00    -0.363 OA
ATOM     56  H   UNL     1     161.692 160.338 195.906  0.00  0.00    +0.213 HD
ENDBRANCH   8  55
TORSDOF 4
ENDMDL
