MODEL 1
REMARK VINA RESULT:      -7.2      0.000      0.000
REMARK  Name = Latrunculin B_conf2
REMARK  4 active torsions:
REMARK  status: ('A' for Active; 'I' for Inactive)
REMARK    1  A    between atoms: C_1  and  C_2
REMARK    2  A    between atoms: C_9  and  C_11
REMARK    3  A    between atoms: C_9  and  O_17
REMARK    4  A    between atoms: C_22  and  C_27
REMARK                            x       y       z     vdW  Elec       q    Type
REMARK                         _______ _______ _______ _____ _____    ______ ____
ROOT
ATOM      1  C   UNL     1     132.861 158.255 196.211  0.00  0.00    -0.026 C 
ATOM      2  C   UNL     1     131.910 158.597 197.377  0.00  0.00    -0.045 C 
ATOM      3  C   UNL     1     132.251 159.907 198.102  0.00  0.00    -0.026 C 
ATOM      4  C   UNL     1     133.563 159.880 198.904  0.00  0.00    +0.065 C 
ATOM      5  C   UNL     1     133.490 158.944 200.111  0.00  0.00    +0.011 C 
ATOM      6  C   UNL     1     134.786 159.013 200.924  0.00  0.00    +0.111 C 
ATOM      7  C   UNL     1     135.110 160.465 201.279  0.00  0.00    +0.040 C 
ATOM      8  C   UNL     1     135.057 161.381 200.043  0.00  0.00    +0.190 C 
ATOM      9  O   UNL     1     133.811 161.216 199.359  0.00  0.00    -0.344 OA
ATOM     10  O   UNL     1     135.889 158.483 200.155  0.00  0.00    -0.458 OA
ATOM     11  C   UNL     1     135.947 157.127 200.090  0.00  0.00    +0.332 C 
ATOM     12  O   UNL     1     135.213 156.338 200.658  0.00  0.00    -0.246 OA
ATOM     13  C   UNL     1     137.045 156.757 199.180  0.00  0.00    +0.021 C 
ATOM     14  C   UNL     1     136.874 156.018 198.065  0.00  0.00    -0.066 C 
ATOM     15  C   UNL     1     135.530 155.511 197.566  0.00  0.00    -0.028 C 
ATOM     16  C   UNL     1     135.162 156.077 196.186  0.00  0.00    -0.031 C 
ATOM     17  C   UNL     1     133.707 155.865 195.862  0.00  0.00    -0.087 C 
ATOM     18  C   UNL     1     132.732 156.790 195.853  0.00  0.00    -0.085 C 
ATOM     19  H   UNL     1     133.886 158.464 196.519  0.00  0.00    +0.034 HD
ATOM     20  H   UNL     1     130.884 158.675 196.993  0.00  0.00    +0.027 HD
ATOM     21  H   UNL     1     131.892 157.777 198.104  0.00  0.00    +0.027 HD
ATOM     22  H   UNL     1     132.283 160.736 197.384  0.00  0.00    +0.029 HD
ATOM     23  H   UNL     1     131.426 160.157 198.783  0.00  0.00    +0.029 HD
ATOM     24  H   UNL     1     134.382 159.588 198.239  0.00  0.00    +0.060 HD
ATOM     25  H   UNL     1     132.658 159.243 200.760  0.00  0.00    +0.033 HD
ATOM     26  H   UNL     1     133.305 157.918 199.781  0.00  0.00    +0.033 HD
ATOM     27  H   UNL     1     134.687 158.442 201.855  0.00  0.00    +0.074 HD
ATOM     28  H   UNL     1     136.106 160.505 201.734  0.00  0.00    +0.035 HD
ATOM     29  H   UNL     1     134.374 160.806 202.017  0.00  0.00    +0.035 HD
ATOM     30  H   UNL     1     138.021 157.126 199.475  0.00  0.00    +0.069 HD
ATOM     31  H   UNL     1     135.559 154.414 197.520  0.00  0.00    +0.031 HD
ATOM     32  H   UNL     1     134.730 155.760 198.272  0.00  0.00    +0.031 HD
ATOM     33  H   UNL     1     135.756 155.576 195.410  0.00  0.00    +0.031 HD
ATOM     34  H   UNL     1     135.433 157.136 196.125  0.00  0.00    +0.031 HD
ATOM     35  H   UNL     1     133.437 154.844 195.594  0.00  0.00    +0.057 HD
ATOM     36  H   UNL     1     131.729 156.462 195.575  0.00  0.00    +0.057 HD
ENDROOT
BRANCH   8  37
ATOM     37  C   UNL     1     135.138 162.879 200.471  0.00  0.00    +0.087 C 
ATOM     38  C   UNL     1     134.441 163.131 201.810  0.00  0.00    +0.026 C 
ATOM     39  S   UNL     1     134.101 164.918 201.785  0.00  0.00    -0.066 S 
ATOM     40  C   UNL     1     134.043 164.970 200.039  0.00  0.00    +0.272 C 
ATOM     41  O   UNL     1     133.616 165.903 199.383  0.00  0.00    -0.263 OA
ATOM     42  N   UNL     1     134.560 163.817 199.525  0.00  0.00    -0.298 N 
ATOM     43  H   UNL     1     136.197 163.157 200.579  0.00  0.00    +0.056 HD
ATOM     44  H   UNL     1     135.066 162.859 202.664  0.00  0.00    +0.040 HD
ATOM     45  H   UNL     1     133.482 162.610 201.889  0.00  0.00    +0.040 HD
ATOM     46  H   UNL     1     134.628 163.741 198.520  0.00  0.00    +0.150 HD
ENDBRANCH   8  37
BRANCH   1  47
ATOM     47  C   UNL     1     132.574 159.112 194.975  0.00  0.00    -0.059 C 
ATOM     48  H   UNL     1     133.369 159.845 194.809  0.00  0.00    +0.024 HD
ATOM     49  H   UNL     1     131.627 159.656 195.073  0.00  0.00    +0.024 HD
ATOM     50  H   UNL     1     132.510 158.490 194.075  0.00  0.00    +0.024 HD
ENDBRANCH   1  47
BRANCH  14  51
ATOM     51  C   UNL     1     138.067 155.635 197.227  0.00  0.00    -0.043 C 
ATOM     52  H   UNL     1     138.954 155.525 197.859  0.00  0.00    +0.027 HD
ATOM     53  H   UNL     1     138.295 156.391 196.467  0.00  0.00    +0.027 HD
ATOM     54  H   UNL     1     137.887 154.689 196.707  0.00  0.00    +0.027 HD
ENDBRANCH  14  51
BRANCH   8  55
ATOM     55  O   UNL     1     136.146 161.114 199.161  0.00  0.00    -0.363 OA
ATOM     56  H   UNL     1     136.505 160.238 199.389  0.00  0.00    +0.213 HD
ENDBRANCH   8  55
TORSDOF 4
ENDMDL
MODEL 2
REMARK VINA RESULT:      -7.0      3.821      6.992
REMARK  Name = Latrunculin B_conf2
REMARK  4 active torsions:
REMARK  status: ('A' for Active; 'I' for Inactive)
REMARK    1  A    between atoms: C_1  and  C_2
REMARK    2  A    between atoms: C_9  and  C_11
REMARK    3  A    between atoms: C_9  and  O_17
REMARK    4  A    between atoms: C_22  and  C_27
REMARK                            x       y       z     vdW  Elec       q    Type
REMARK                         _______ _______ _______ _____ _____    ______ ____
ROOT
ATOM      1  C   UNL     1     132.148 158.632 197.066  0.00  0.00    -0.026 C 
ATOM      2  C   UNL     1     133.401 158.012 196.412  0.00  0.00    -0.045 C 
ATOM      3  C   UNL     1     133.954 156.785 197.151  0.00  0.00    -0.026 C 
ATOM      4  C   UNL     1     134.565 157.083 198.530  0.00  0.00    +0.065 C 
ATOM      5  C   UNL     1     135.847 157.910 198.435  0.00  0.00    +0.011 C 
ATOM      6  C   UNL     1     136.463 158.109 199.822  0.00  0.00    +0.111 C 
ATOM      7  C   UNL     1     136.642 156.760 200.520  0.00  0.00    +0.040 C 
ATOM      8  C   UNL     1     135.350 155.923 200.486  0.00  0.00    +0.190 C 
ATOM      9  O   UNL     1     134.863 155.822 199.144  0.00  0.00    -0.344 OA
ATOM     10  O   UNL     1     135.597 158.926 200.642  0.00  0.00    -0.458 OA
ATOM     11  C   UNL     1     135.644 160.259 200.379  0.00  0.00    +0.332 C 
ATOM     12  O   UNL     1     136.375 160.819 199.581  0.00  0.00    -0.246 OA
ATOM     13  C   UNL     1     134.626 160.927 201.209  0.00  0.00    +0.021 C 
ATOM     14  C   UNL     1     133.615 161.661 200.702  0.00  0.00    -0.066 C 
ATOM     15  C   UNL     1     133.353 161.858 199.217  0.00  0.00    -0.028 C 
ATOM     16  C   UNL     1     131.994 161.294 198.777  0.00  0.00    -0.031 C 
ATOM     17  C   UNL     1     131.895 161.169 197.281  0.00  0.00    -0.087 C 
ATOM     18  C   UNL     1     131.941 160.040 196.552  0.00  0.00    -0.085 C 
ATOM     19  H   UNL     1     132.291 158.657 198.147  0.00  0.00    +0.034 HD
ATOM     20  H   UNL     1     133.158 157.712 195.383  0.00  0.00    +0.027 HD
ATOM     21  H   UNL     1     134.191 158.765 196.320  0.00  0.00    +0.027 HD
ATOM     22  H   UNL     1     133.169 156.027 197.259  0.00  0.00    +0.029 HD
ATOM     23  H   UNL     1     134.719 156.310 196.521  0.00  0.00    +0.029 HD
ATOM     24  H   UNL     1     133.820 157.595 199.147  0.00  0.00    +0.060 HD
ATOM     25  H   UNL     1     136.577 157.387 197.804  0.00  0.00    +0.033 HD
ATOM     26  H   UNL     1     135.638 158.878 197.972  0.00  0.00    +0.033 HD
ATOM     27  H   UNL     1     137.446 158.591 199.742  0.00  0.00    +0.074 HD
ATOM     28  H   UNL     1     136.949 156.935 201.558  0.00  0.00    +0.035 HD
ATOM     29  H   UNL     1     137.442 156.216 200.005  0.00  0.00    +0.035 HD
ATOM     30  H   UNL     1     134.749 160.787 202.276  0.00  0.00    +0.069 HD
ATOM     31  H   UNL     1     133.400 162.931 198.988  0.00  0.00    +0.031 HD
ATOM     32  H   UNL     1     134.139 161.389 198.615  0.00  0.00    +0.031 HD
ATOM     33  H   UNL     1     131.190 161.962 199.113  0.00  0.00    +0.031 HD
ATOM     34  H   UNL     1     131.804 160.335 199.270  0.00  0.00    +0.031 HD
ATOM     35  H   UNL     1     131.757 162.109 196.746  0.00  0.00    +0.057 HD
ATOM     36  H   UNL     1     131.835 160.134 195.471  0.00  0.00    +0.057 HD
ENDROOT
BRANCH   8  37
ATOM     37  C   UNL     1     135.630 154.468 200.972  0.00  0.00    +0.087 C 
ATOM     38  C   UNL     1     136.846 153.854 200.273  0.00  0.00    +0.026 C 
ATOM     39  S   UNL     1     136.600 152.064 200.481  0.00  0.00    -0.066 S 
ATOM     40  C   UNL     1     134.863 152.228 200.585  0.00  0.00    +0.272 C 
ATOM     41  O   UNL     1     134.070 151.306 200.510  0.00  0.00    -0.263 OA
ATOM     42  N   UNL     1     134.533 153.537 200.777  0.00  0.00    -0.298 N 
ATOM     43  H   UNL     1     135.832 154.491 202.053  0.00  0.00    +0.056 HD
ATOM     44  H   UNL     1     137.791 154.179 200.718  0.00  0.00    +0.040 HD
ATOM     45  H   UNL     1     136.864 154.066 199.200  0.00  0.00    +0.040 HD
ATOM     46  H   UNL     1     133.556 153.760 200.902  0.00  0.00    +0.150 HD
ENDBRANCH   8  37
BRANCH   1  47
ATOM     47  C   UNL     1     130.894 157.797 196.793  0.00  0.00    -0.059 C 
ATOM     48  H   UNL     1     130.242 158.289 196.065  0.00  0.00    +0.024 HD
ATOM     49  H   UNL     1     130.314 157.630 197.707  0.00  0.00    +0.024 HD
ATOM     50  H   UNL     1     131.161 156.816 196.383  0.00  0.00    +0.024 HD
ENDBRANCH   1  47
BRANCH  14  51
ATOM     51  C   UNL     1     132.656 162.360 201.630  0.00  0.00    -0.043 C 
ATOM     52  H   UNL     1     131.674 162.459 201.156  0.00  0.00    +0.027 HD
ATOM     53  H   UNL     1     132.997 163.367 201.893  0.00  0.00    +0.027 HD
ATOM     54  H   UNL     1     132.540 161.799 202.563  0.00  0.00    +0.027 HD
ENDBRANCH  14  51
BRANCH   8  55
ATOM     55  O   UNL     1     134.352 156.488 201.334  0.00  0.00    -0.363 OA
ATOM     56  H   UNL     1     134.721 157.298 201.729  0.00  0.00    +0.213 HD
ENDBRANCH   8  55
TORSDOF 4
ENDMDL
MODEL 3
REMARK VINA RESULT:      -6.4      4.831      7.540
REMARK  Name = Latrunculin B_conf2
REMARK  4 active torsions:
REMARK  status: ('A' for Active; 'I' for Inactive)
REMARK    1  A    between atoms: C_1  and  C_2
REMARK    2  A    between atoms: C_9  and  C_11
REMARK    3  A    between atoms: C_9  and  O_17
REMARK    4  A    between atoms: C_22  and  C_27
REMARK                            x       y       z     vdW  Elec       q    Type
REMARK                         _______ _______ _______ _____ _____    ______ ____
ROOT
ATOM      1  C   UNL     1     134.231 161.754 201.065  0.00  0.00    -0.026 C 
ATOM      2  C   UNL     1     135.081 163.020 200.826  0.00  0.00    -0.045 C 
ATOM      3  C   UNL     1     134.815 164.154 201.826  0.00  0.00    -0.026 C 
ATOM      4  C   UNL     1     133.429 164.809 201.706  0.00  0.00    +0.065 C 
ATOM      5  C   UNL     1     133.262 165.589 200.401  0.00  0.00    +0.011 C 
ATOM      6  C   UNL     1     131.902 166.290 200.364  0.00  0.00    +0.111 C 
ATOM      7  C   UNL     1     131.708 167.135 201.625  0.00  0.00    +0.040 C 
ATOM      8  C   UNL     1     131.999 166.329 202.904  0.00  0.00    +0.190 C 
ATOM      9  O   UNL     1     133.286 165.709 202.813  0.00  0.00    -0.344 OA
ATOM     10  O   UNL     1     130.836 165.316 200.311  0.00  0.00    -0.458 OA
ATOM     11  C   UNL     1     130.631 164.753 199.091  0.00  0.00    +0.332 C 
ATOM     12  O   UNL     1     131.205 165.033 198.053  0.00  0.00    -0.246 OA
ATOM     13  C   UNL     1     129.604 163.706 199.235  0.00  0.00    +0.021 C 
ATOM     14  C   UNL     1     129.811 162.410 198.925  0.00  0.00    -0.066 C 
ATOM     15  C   UNL     1     131.135 161.841 198.440  0.00  0.00    -0.028 C 
ATOM     16  C   UNL     1     131.713 160.791 199.400  0.00  0.00    -0.031 C 
ATOM     17  C   UNL     1     133.161 160.500 199.108  0.00  0.00    -0.087 C 
ATOM     18  C   UNL     1     134.231 160.891 199.823  0.00  0.00    -0.085 C 
ATOM     19  H   UNL     1     133.208 162.056 201.298  0.00  0.00    +0.034 HD
ATOM     20  H   UNL     1     136.146 162.754 200.885  0.00  0.00    +0.027 HD
ATOM     21  H   UNL     1     134.927 163.393 199.808  0.00  0.00    +0.027 HD
ATOM     22  H   UNL     1     134.956 163.792 202.852  0.00  0.00    +0.029 HD
ATOM     23  H   UNL     1     135.583 164.928 201.694  0.00  0.00    +0.029 HD
ATOM     24  H   UNL     1     132.660 164.035 201.794  0.00  0.00    +0.060 HD
ATOM     25  H   UNL     1     134.047 166.351 200.325  0.00  0.00    +0.033 HD
ATOM     26  H   UNL     1     133.364 164.916 199.545  0.00  0.00    +0.033 HD
ATOM     27  H   UNL     1     131.832 166.950 199.491  0.00  0.00    +0.074 HD
ATOM     28  H   UNL     1     130.679 167.512 201.645  0.00  0.00    +0.035 HD
ATOM     29  H   UNL     1     132.393 167.989 201.569  0.00  0.00    +0.035 HD
ATOM     30  H   UNL     1     128.650 164.056 199.612  0.00  0.00    +0.069 HD
ATOM     31  H   UNL     1     130.986 161.393 197.448  0.00  0.00    +0.031 HD
ATOM     32  H   UNL     1     131.876 162.635 198.301  0.00  0.00    +0.031 HD
ATOM     33  H   UNL     1     131.155 159.851 199.301  0.00  0.00    +0.031 HD
ATOM     34  H   UNL     1     131.573 161.108 200.438  0.00  0.00    +0.031 HD
ATOM     35  H   UNL     1     133.341 159.892 198.222  0.00  0.00    +0.057 HD
ATOM     36  H   UNL     1     135.214 160.573 199.472  0.00  0.00    +0.057 HD
ENDROOT
BRANCH   8  37
ATOM     37  C   UNL     1     132.043 167.273 204.144  0.00  0.00    +0.087 C 
ATOM     38  C   UNL     1     130.811 167.106 205.037  0.00  0.00    +0.026 C 
ATOM     39  S   UNL     1     130.754 168.658 205.983  0.00  0.00    -0.066 S 
ATOM     40  C   UNL     1     131.577 169.554 204.729  0.00  0.00    +0.272 C 
ATOM     41  O   UNL     1     131.653 170.767 204.674  0.00  0.00    -0.263 OA
ATOM     42  N   UNL     1     132.132 168.689 203.832  0.00  0.00    -0.298 N 
ATOM     43  H   UNL     1     132.934 167.028 204.741  0.00  0.00    +0.056 HD
ATOM     44  H   UNL     1     130.891 166.239 205.700  0.00  0.00    +0.040 HD
ATOM     45  H   UNL     1     129.883 167.031 204.461  0.00  0.00    +0.040 HD
ATOM     46  H   UNL     1     132.681 169.082 203.080  0.00  0.00    +0.150 HD
ENDBRANCH   8  37
BRANCH   1  47
ATOM     47  C   UNL     1     134.747 160.941 202.255  0.00  0.00    -0.059 C 
ATOM     48  H   UNL     1     135.839 160.983 202.318  0.00  0.00    +0.024 HD
ATOM     49  H   UNL     1     134.454 159.888 202.181  0.00  0.00    +0.024 HD
ATOM     50  H   UNL     1     134.349 161.333 203.198  0.00  0.00    +0.024 HD
ENDBRANCH   1  47
BRANCH  14  51
ATOM     51  C   UNL     1     128.681 161.419 199.045  0.00  0.00    -0.043 C 
ATOM     52  H   UNL     1     127.933 161.783 199.756  0.00  0.00    +0.027 HD
ATOM     53  H   UNL     1     129.026 160.443 199.401  0.00  0.00    +0.027 HD
ATOM     54  H   UNL     1     128.198 161.264 198.075  0.00  0.00    +0.027 HD
ENDBRANCH  14  51
BRANCH   8  55
ATOM     55  O   UNL     1     130.991 165.347 203.131  0.00  0.00    -0.363 OA
ATOM     56  H   UNL     1     130.125 165.787 203.056  0.00  0.00    +0.213 HD
ENDBRANCH   8  55
TORSDOF 4
ENDMDL
MODEL 4
REMARK VINA RESULT:      -6.3     15.462     17.585
REMARK  Name = Latrunculin B_conf2
REMARK  4 active torsions:
REMARK  status: ('A' for Active; 'I' for Inactive)
REMARK    1  A    between atoms: C_1  and  C_2
REMARK    2  A    between atoms: C_9  and  C_11
REMARK    3  A    between atoms: C_9  and  O_17
REMARK    4  A    between atoms: C_22  and  C_27
REMARK                            x       y       z     vdW  Elec       q    Type
REMARK                         _______ _______ _______ _____ _____    ______ ____
ROOT
ATOM      1  C   UNL     1     143.155 167.624 191.843  0.00  0.00    -0.026 C 
ATOM      2  C   UNL     1     143.910 166.609 190.958  0.00  0.00    -0.045 C 
ATOM      3  C   UNL     1     145.266 166.166 191.527  0.00  0.00    -0.026 C 
ATOM      4  C   UNL     1     146.344 167.262 191.554  0.00  0.00    +0.065 C 
ATOM      5  C   UNL     1     146.791 167.678 190.152  0.00  0.00    +0.011 C 
ATOM      6  C   UNL     1     147.922 168.707 190.231  0.00  0.00    +0.111 C 
ATOM      7  C   UNL     1     149.053 168.182 191.116  0.00  0.00    +0.040 C 
ATOM      8  C   UNL     1     148.530 167.673 192.471  0.00  0.00    +0.190 C 
ATOM      9  O   UNL     1     147.469 166.734 192.269  0.00  0.00    -0.344 OA
ATOM     10  O   UNL     1     147.438 169.940 190.808  0.00  0.00    -0.458 OA
ATOM     11  C   UNL     1     146.718 170.726 189.964  0.00  0.00    +0.332 C 
ATOM     12  O   UNL     1     146.503 170.523 188.782  0.00  0.00    -0.246 OA
ATOM     13  C   UNL     1     146.202 171.873 190.733  0.00  0.00    +0.021 C 
ATOM     14  C   UNL     1     144.890 172.159 190.857  0.00  0.00    -0.066 C 
ATOM     15  C   UNL     1     143.766 171.318 190.272  0.00  0.00    -0.028 C 
ATOM     16  C   UNL     1     142.840 170.738 191.352  0.00  0.00    -0.031 C 
ATOM     17  C   UNL     1     141.965 169.640 190.810  0.00  0.00    -0.087 C 
ATOM     18  C   UNL     1     142.084 168.319 191.031  0.00  0.00    -0.085 C 
ATOM     19  H   UNL     1     143.866 168.363 192.216  0.00  0.00    +0.034 HD
ATOM     20  H   UNL     1     143.286 165.715 190.824  0.00  0.00    +0.027 HD
ATOM     21  H   UNL     1     144.057 167.020 189.953  0.00  0.00    +0.027 HD
ATOM     22  H   UNL     1     145.135 165.762 192.538  0.00  0.00    +0.029 HD
ATOM     23  H   UNL     1     145.638 165.320 190.932  0.00  0.00    +0.029 HD
ATOM     24  H   UNL     1     145.963 168.125 192.109  0.00  0.00    +0.060 HD
ATOM     25  H   UNL     1     147.160 166.799 189.607  0.00  0.00    +0.033 HD
ATOM     26  H   UNL     1     145.946 168.087 189.593  0.00  0.00    +0.033 HD
ATOM     27  H   UNL     1     148.328 168.909 189.232  0.00  0.00    +0.074 HD
ATOM     28  H   UNL     1     149.783 168.985 191.273  0.00  0.00    +0.035 HD
ATOM     29  H   UNL     1     149.547 167.360 190.584  0.00  0.00    +0.035 HD
ATOM     30  H   UNL     1     146.965 172.485 191.200  0.00  0.00    +0.069 HD
ATOM     31  H   UNL     1     143.183 171.938 189.579  0.00  0.00    +0.031 HD
ATOM     32  H   UNL     1     144.165 170.493 189.672  0.00  0.00    +0.031 HD
ATOM     33  H   UNL     1     142.185 171.528 191.742  0.00  0.00    +0.031 HD
ATOM     34  H   UNL     1     143.426 170.393 192.210  0.00  0.00    +0.031 HD
ATOM     35  H   UNL     1     141.140 169.973 190.181  0.00  0.00    +0.057 HD
ATOM     36  H   UNL     1     141.346 167.662 190.570  0.00  0.00    +0.057 HD
ENDROOT
BRANCH   8  37
ATOM     37  C   UNL     1     149.657 166.918 193.241  0.00  0.00    +0.087 C 
ATOM     38  C   UNL     1     150.072 165.628 192.531  0.00  0.00    +0.026 C 
ATOM     39  S   UNL     1     150.856 164.647 193.847  0.00  0.00    -0.066 S 
ATOM     40  C   UNL     1     149.920 165.425 195.102  0.00  0.00    +0.272 C 
ATOM     41  O   UNL     1     149.831 165.030 196.250  0.00  0.00    -0.263 OA
ATOM     42  N   UNL     1     149.320 166.543 194.604  0.00  0.00    -0.298 N 
ATOM     43  H   UNL     1     150.538 167.572 193.306  0.00  0.00    +0.056 HD
ATOM     44  H   UNL     1     150.766 165.811 191.706  0.00  0.00    +0.040 HD
ATOM     45  H   UNL     1     149.215 165.060 192.156  0.00  0.00    +0.040 HD
ATOM     46  H   UNL     1     148.786 167.113 195.245  0.00  0.00    +0.150 HD
ENDBRANCH   8  37
BRANCH   1  47
ATOM     47  C   UNL     1     142.519 166.949 193.062  0.00  0.00    -0.059 C 
ATOM     48  H   UNL     1     143.035 167.233 193.984  0.00  0.00    +0.024 HD
ATOM     49  H   UNL     1     142.550 165.857 192.980  0.00  0.00    +0.024 HD
ATOM     50  H   UNL     1     141.470 167.247 193.168  0.00  0.00    +0.024 HD
ENDBRANCH   1  47
BRANCH  14  51
ATOM     51  C   UNL     1     144.457 173.389 191.612  0.00  0.00    -0.043 C 
ATOM     52  H   UNL     1     143.696 173.130 192.354  0.00  0.00    +0.027 HD
ATOM     53  H   UNL     1     144.027 174.148 190.950  0.00  0.00    +0.027 HD
ATOM     54  H   UNL     1     145.308 173.846 192.127  0.00  0.00    +0.027 HD
ENDBRANCH  14  51
BRANCH   8  55
ATOM     55  O   UNL     1     148.085 168.754 193.287  0.00  0.00    -0.363 OA
ATOM     56  H   UNL     1     147.968 168.415 194.193  0.00  0.00    +0.213 HD
ENDBRANCH   8  55
TORSDOF 4
ENDMDL
MODEL 5
REMARK VINA RESULT:      -6.3     29.938     31.519
REMARK  Name = Latrunculin B_conf2
REMARK  4 active torsions:
REMARK  status: ('A' for Active; 'I' for Inactive)
REMARK    1  A    between atoms: C_1  and  C_2
REMARK    2  A    between atoms: C_9  and  C_11
REMARK    3  A    between atoms: C_9  and  O_17
REMARK    4  A    between atoms: C_22  and  C_27
REMARK                            x       y       z     vdW  Elec       q    Type
REMARK                         _______ _______ _______ _____ _____    ______ ____
ROOT
ATOM      1  C   UNL     1     155.712 173.975 182.047  0.00  0.00    -0.026 C 
ATOM      2  C   UNL     1     156.180 174.089 183.513  0.00  0.00    -0.045 C 
ATOM      3  C   UNL     1     157.691 173.901 183.707  0.00  0.00    -0.026 C 
ATOM      4  C   UNL     1     158.206 172.479 183.434  0.00  0.00    +0.065 C 
ATOM      5  C   UNL     1     157.700 171.466 184.462  0.00  0.00    +0.011 C 
ATOM      6  C   UNL     1     158.305 170.085 184.200  0.00  0.00    +0.111 C 
ATOM      7  C   UNL     1     159.829 170.181 184.117  0.00  0.00    +0.040 C 
ATOM      8  C   UNL     1     160.280 171.292 183.152  0.00  0.00    +0.190 C 
ATOM      9  O   UNL     1     159.638 172.527 183.487  0.00  0.00    -0.344 OA
ATOM     10  O   UNL     1     157.821 169.557 182.944  0.00  0.00    -0.458 OA
ATOM     11  C   UNL     1     156.560 169.050 182.980  0.00  0.00    +0.332 C 
ATOM     12  O   UNL     1     155.845 168.945 183.961  0.00  0.00    -0.246 OA
ATOM     13  C   UNL     1     156.180 168.668 181.609  0.00  0.00    +0.021 C 
ATOM     14  C   UNL     1     155.112 169.178 180.962  0.00  0.00    -0.066 C 
ATOM     15  C   UNL     1     154.190 170.246 181.529  0.00  0.00    -0.028 C 
ATOM     16  C   UNL     1     154.202 171.538 180.698  0.00  0.00    -0.031 C 
ATOM     17  C   UNL     1     153.583 172.690 181.442  0.00  0.00    -0.087 C 
ATOM     18  C   UNL     1     154.218 173.736 182.000  0.00  0.00    -0.085 C 
ATOM     19  H   UNL     1     156.229 173.137 181.577  0.00  0.00    +0.034 HD
ATOM     20  H   UNL     1     155.904 175.078 183.903  0.00  0.00    +0.027 HD
ATOM     21  H   UNL     1     155.643 173.366 184.139  0.00  0.00    +0.027 HD
ATOM     22  H   UNL     1     158.241 174.612 183.078  0.00  0.00    +0.029 HD
ATOM     23  H   UNL     1     157.951 174.179 184.738  0.00  0.00    +0.029 HD
ATOM     24  H   UNL     1     157.912 172.180 182.423  0.00  0.00    +0.060 HD
ATOM     25  H   UNL     1     157.994 171.787 185.470  0.00  0.00    +0.033 HD
ATOM     26  H   UNL     1     156.609 171.413 184.433  0.00  0.00    +0.033 HD
ATOM     27  H   UNL     1     158.044 169.391 185.008  0.00  0.00    +0.074 HD
ATOM     28  H   UNL     1     160.229 169.214 183.790  0.00  0.00    +0.035 HD
ATOM     29  H   UNL     1     160.210 170.396 185.123  0.00  0.00    +0.035 HD
ATOM     30  H   UNL     1     156.828 167.934 181.147  0.00  0.00    +0.069 HD
ATOM     31  H   UNL     1     153.169 169.846 181.575  0.00  0.00    +0.031 HD
ATOM     32  H   UNL     1     154.461 170.491 182.561  0.00  0.00    +0.031 HD
ATOM     33  H   UNL     1     153.630 171.388 179.773  0.00  0.00    +0.031 HD
ATOM     34  H   UNL     1     155.222 171.773 180.377  0.00  0.00    +0.031 HD
ATOM     35  H   UNL     1     152.496 172.664 181.514  0.00  0.00    +0.057 HD
ATOM     36  H   UNL     1     153.606 174.495 182.488  0.00  0.00    +0.057 HD
ENDROOT
BRANCH   8  37
ATOM     37  C   UNL     1     161.815 171.536 183.281  0.00  0.00    +0.087 C 
ATOM     38  C   UNL     1     162.136 172.983 183.663  0.00  0.00    +0.026 C 
ATOM     39  S   UNL     1     163.866 173.190 183.138  0.00  0.00    -0.066 S 
ATOM     40  C   UNL     1     163.724 171.971 181.893  0.00  0.00    +0.272 C 
ATOM     41  O   UNL     1     164.533 171.789 181.002  0.00  0.00    -0.263 OA
ATOM     42  N   UNL     1     162.582 171.250 182.081  0.00  0.00    -0.298 N 
ATOM     43  H   UNL     1     162.210 170.878 184.069  0.00  0.00    +0.056 HD
ATOM     44  H   UNL     1     162.023 173.167 184.735  0.00  0.00    +0.040 HD
ATOM     45  H   UNL     1     161.530 173.707 183.110  0.00  0.00    +0.040 HD
ATOM     46  H   UNL     1     162.407 170.478 181.453  0.00  0.00    +0.150 HD
ENDBRANCH   8  37
BRANCH   1  47
ATOM     47  C   UNL     1     156.056 175.232 181.243  0.00  0.00    -0.059 C 
ATOM     48  H   UNL     1     157.067 175.171 180.828  0.00  0.00    +0.024 HD
ATOM     49  H   UNL     1     155.999 176.134 181.862  0.00  0.00    +0.024 HD
ATOM     50  H   UNL     1     155.364 175.359 180.403  0.00  0.00    +0.024 HD
ENDBRANCH   1  47
BRANCH  14  51
ATOM     51  C   UNL     1     154.762 168.682 179.582  0.00  0.00    -0.043 C 
ATOM     52  H   UNL     1     155.626 168.777 178.916  0.00  0.00    +0.027 HD
ATOM     53  H   UNL     1     153.939 169.250 179.137  0.00  0.00    +0.027 HD
ATOM     54  H   UNL     1     154.457 167.631 179.614  0.00  0.00    +0.027 HD
ENDBRANCH  14  51
BRANCH   8  55
ATOM     55  O   UNL     1     160.001 170.939 181.799  0.00  0.00    -0.363 OA
ATOM     56  H   UNL     1     160.821 170.590 181.407  0.00  0.00    +0.213 HD
ENDBRANCH   8  55
TORSDOF 4
ENDMDL
MODEL 6
REMARK VINA RESULT:      -6.2      2.688      4.014
REMARK  Name = Latrunculin B_conf2
REMARK  4 active torsions:
REMARK  status: ('A' for Active; 'I' for Inactive)
REMARK    1  A    between atoms: C_1  and  C_2
REMARK    2  A    between atoms: C_9  and  C_11
REMARK    3  A    between atoms: C_9  and  O_17
REMARK    4  A    between atoms: C_22  and  C_27
REMARK                            x       y       z     vdW  Elec       q    Type
REMARK                         _______ _______ _______ _____ _____    ______ ____
ROOT
ATOM      1  C   UNL     1     130.599 160.144 198.804  0.00  0.00    -0.026 C 
ATOM      2  C   UNL     1     130.055 160.958 199.997  0.00  0.00    -0.045 C 
ATOM      3  C   UNL     1     130.349 162.463 199.917  0.00  0.00    -0.026 C 
ATOM      4  C   UNL     1     131.833 162.840 200.066  0.00  0.00    +0.065 C 
ATOM      5  C   UNL     1     132.368 162.560 201.471  0.00  0.00    +0.011 C 
ATOM      6  C   UNL     1     133.820 163.028 201.596  0.00  0.00    +0.111 C 
ATOM      7  C   UNL     1     133.944 164.489 201.161  0.00  0.00    +0.040 C 
ATOM      8  C   UNL     1     133.289 164.735 199.790  0.00  0.00    +0.190 C 
ATOM      9  O   UNL     1     131.945 164.242 199.791  0.00  0.00    -0.344 OA
ATOM     10  O   UNL     1     134.678 162.233 200.746  0.00  0.00    -0.458 OA
ATOM     11  C   UNL     1     134.984 161.000 201.229  0.00  0.00    +0.332 C 
ATOM     12  O   UNL     1     134.664 160.541 202.311  0.00  0.00    -0.246 OA
ATOM     13  C   UNL     1     135.757 160.283 200.200  0.00  0.00    +0.021 C 
ATOM     14  C   UNL     1     135.369 159.111 199.658  0.00  0.00    -0.066 C 
ATOM     15  C   UNL     1     134.068 158.397 199.989  0.00  0.00    -0.028 C 
ATOM     16  C   UNL     1     133.144 158.257 198.770  0.00  0.00    -0.031 C 
ATOM     17  C   UNL     1     131.742 157.883 199.167  0.00  0.00    -0.087 C 
ATOM     18  C   UNL     1     130.656 158.675 199.165  0.00  0.00    -0.085 C 
ATOM     19  H   UNL     1     131.603 160.498 198.565  0.00  0.00    +0.034 HD
ATOM     20  H   UNL     1     128.966 160.824 200.057  0.00  0.00    +0.027 HD
ATOM     21  H   UNL     1     130.453 160.562 200.938  0.00  0.00    +0.027 HD
ATOM     22  H   UNL     1     129.966 162.871 198.974  0.00  0.00    +0.029 HD
ATOM     23  H   UNL     1     129.774 162.976 200.699  0.00  0.00    +0.029 HD
ATOM     24  H   UNL     1     132.416 162.297 199.316  0.00  0.00    +0.060 HD
ATOM     25  H   UNL     1     131.765 163.102 202.210  0.00  0.00    +0.033 HD
ATOM     26  H   UNL     1     132.294 161.493 201.697  0.00  0.00    +0.033 HD
ATOM     27  H   UNL     1     134.163 162.945 202.635  0.00  0.00    +0.074 HD
ATOM     28  H   UNL     1     135.007 164.759 201.123  0.00  0.00    +0.035 HD
ATOM     29  H   UNL     1     133.452 165.111 201.918  0.00  0.00    +0.035 HD
ATOM     30  H   UNL     1     136.678 160.771 199.903  0.00  0.00    +0.069 HD
ATOM     31  H   UNL     1     134.301 157.402 200.392  0.00  0.00    +0.031 HD
ATOM     32  H   UNL     1     133.524 158.921 200.783  0.00  0.00    +0.031 HD
ATOM     33  H   UNL     1     133.526 157.472 198.104  0.00  0.00    +0.031 HD
ATOM     34  H   UNL     1     133.158 159.177 198.176  0.00  0.00    +0.031 HD
ATOM     35  H   UNL     1     131.609 156.846 199.475  0.00  0.00    +0.057 HD
ATOM     36  H   UNL     1     129.707 158.230 199.470  0.00  0.00    +0.057 HD
ENDROOT
BRANCH   8  37
ATOM     37  C   UNL     1     133.206 166.263 199.492  0.00  0.00    +0.087 C 
ATOM     38  C   UNL     1     132.640 167.049 200.678  0.00  0.00    +0.026 C 
ATOM     39  S   UNL     1     132.049 168.595 199.924  0.00  0.00    -0.066 S 
ATOM     40  C   UNL     1     131.781 167.837 198.372  0.00  0.00    +0.272 C 
ATOM     41  O   UNL     1     131.153 168.332 197.454  0.00  0.00    -0.263 OA
ATOM     42  N   UNL     1     132.393 166.619 198.342  0.00  0.00    -0.298 N 
ATOM     43  H   UNL     1     134.219 166.637 199.287  0.00  0.00    +0.056 HD
ATOM     44  H   UNL     1     133.393 167.245 201.446  0.00  0.00    +0.040 HD
ATOM     45  H   UNL     1     131.781 166.552 201.139  0.00  0.00    +0.040 HD
ATOM     46  H   UNL     1     132.354 166.096 197.478  0.00  0.00    +0.150 HD
ENDBRANCH   8  37
BRANCH   1  47
ATOM     47  C   UNL     1     129.740 160.331 197.551  0.00  0.00    -0.059 C 
ATOM     48  H   UNL     1     129.994 161.261 197.033  0.00  0.00    +0.024 HD
ATOM     49  H   UNL     1     128.672 160.361 197.795  0.00  0.00    +0.024 HD
ATOM     50  H   UNL     1     129.897 159.509 196.843  0.00  0.00    +0.024 HD
ENDBRANCH   1  47
BRANCH  14  51
ATOM     51  C   UNL     1     136.255 158.417 198.655  0.00  0.00    -0.043 C 
ATOM     52  H   UNL     1     136.868 157.659 199.153  0.00  0.00    +0.027 HD
ATOM     53  H   UNL     1     136.935 159.115 198.155  0.00  0.00    +0.027 HD
ATOM     54  H   UNL     1     135.655 157.930 197.880  0.00  0.00    +0.027 HD
ENDBRANCH  14  51
BRANCH   8  55
ATOM     55  O   UNL     1     134.041 164.121 198.745  0.00  0.00    -0.363 OA
ATOM     56  H   UNL     1     134.498 163.349 199.123  0.00  0.00    +0.213 HD
ENDBRANCH   8  55
TORSDOF 4
ENDMDL
MODEL 7
REMARK VINA RESULT:      -6.0     31.129     32.614
REMARK  Name = Latrunculin B_conf2
REMARK  4 active torsions:
REMARK  status: ('A' for Active; 'I' for Inactive)
REMARK    1  A    between atoms: C_1  and  C_2
REMARK    2  A    between atoms: C_9  and  C_11
REMARK    3  A    between atoms: C_9  and  O_17
REMARK    4  A    between atoms: C_22  and  C_27
REMARK                            x       y       z     vdW  Elec       q    Type
REMARK                         _______ _______ _______ _____ _____    ______ ____
ROOT
ATOM      1  C   UNL     1     156.078 175.794 179.107  0.00  0.00    -0.026 C 
ATOM      2  C   UNL     1     156.811 176.541 180.241  0.00  0.00    -0.045 C 
ATOM      3  C   UNL     1     158.155 175.915 180.641  0.00  0.00    -0.026 C 
ATOM      4  C   UNL     1     158.051 174.543 181.327  0.00  0.00    +0.065 C 
ATOM      5  C   UNL     1     157.401 174.629 182.709  0.00  0.00    +0.011 C 
ATOM      6  C   UNL     1     157.395 173.257 183.387  0.00  0.00    +0.111 C 
ATOM      7  C   UNL     1     158.806 172.666 183.397  0.00  0.00    +0.040 C 
ATOM      8  C   UNL     1     159.453 172.708 182.001  0.00  0.00    +0.190 C 
ATOM      9  O   UNL     1     159.383 174.034 181.465  0.00  0.00    -0.344 OA
ATOM     10  O   UNL     1     156.533 172.346 182.668  0.00  0.00    -0.458 OA
ATOM     11  C   UNL     1     155.203 172.515 182.892  0.00  0.00    +0.332 C 
ATOM     12  O   UNL     1     154.688 173.298 183.670  0.00  0.00    -0.246 OA
ATOM     13  C   UNL     1     154.468 171.599 182.001  0.00  0.00    +0.021 C 
ATOM     14  C   UNL     1     153.566 172.011 181.087  0.00  0.00    -0.066 C 
ATOM     15  C   UNL     1     153.222 173.466 180.812  0.00  0.00    -0.028 C 
ATOM     16  C   UNL     1     153.560 173.890 179.375  0.00  0.00    -0.031 C 
ATOM     17  C   UNL     1     153.554 175.387 179.215  0.00  0.00    -0.087 C 
ATOM     18  C   UNL     1     154.620 176.196 179.082  0.00  0.00    -0.085 C 
ATOM     19  H   UNL     1     156.156 174.720 179.284  0.00  0.00    +0.034 HD
ATOM     20  H   UNL     1     156.995 177.578 179.929  0.00  0.00    +0.027 HD
ATOM     21  H   UNL     1     156.168 176.609 181.126  0.00  0.00    +0.027 HD
ATOM     22  H   UNL     1     158.806 175.830 179.761  0.00  0.00    +0.029 HD
ATOM     23  H   UNL     1     158.680 176.607 181.313  0.00  0.00    +0.029 HD
ATOM     24  H   UNL     1     157.490 173.861 180.680  0.00  0.00    +0.060 HD
ATOM     25  H   UNL     1     157.968 175.325 183.340  0.00  0.00    +0.033 HD
ATOM     26  H   UNL     1     156.381 175.013 182.622  0.00  0.00    +0.033 HD
ATOM     27  H   UNL     1     157.047 173.341 184.424  0.00  0.00    +0.074 HD
ATOM     28  H   UNL     1     158.754 171.631 183.756  0.00  0.00    +0.035 HD
ATOM     29  H   UNL     1     159.413 173.250 184.099  0.00  0.00    +0.035 HD
ATOM     30  H   UNL     1     154.705 170.550 182.135  0.00  0.00    +0.069 HD
ATOM     31  H   UNL     1     152.151 173.619 181.000  0.00  0.00    +0.031 HD
ATOM     32  H   UNL     1     153.746 174.131 181.506  0.00  0.00    +0.031 HD
ATOM     33  H   UNL     1     152.817 173.475 178.681  0.00  0.00    +0.031 HD
ATOM     34  H   UNL     1     154.519 173.461 179.068  0.00  0.00    +0.031 HD
ATOM     35  H   UNL     1     152.566 175.846 179.193  0.00  0.00    +0.057 HD
ATOM     36  H   UNL     1     154.430 177.263 178.958  0.00  0.00    +0.057 HD
ENDROOT
BRANCH   8  37
ATOM     37  C   UNL     1     160.966 172.340 182.091  0.00  0.00    +0.087 C 
ATOM     38  C   UNL     1     161.600 172.832 183.394  0.00  0.00    +0.026 C 
ATOM     39  S   UNL     1     163.378 172.882 183.013  0.00  0.00    -0.066 S 
ATOM     40  C   UNL     1     163.093 173.127 181.306  0.00  0.00    +0.272 C 
ATOM     41  O   UNL     1     163.939 173.470 180.500  0.00  0.00    -0.263 OA
ATOM     42  N   UNL     1     161.787 172.864 181.013  0.00  0.00    -0.298 N 
ATOM     43  H   UNL     1     161.064 171.245 182.055  0.00  0.00    +0.056 HD
ATOM     44  H   UNL     1     161.394 172.166 184.236  0.00  0.00    +0.040 HD
ATOM     45  H   UNL     1     161.286 173.848 183.656  0.00  0.00    +0.040 HD
ATOM     46  H   UNL     1     161.503 172.922 180.046  0.00  0.00    +0.150 HD
ENDBRANCH   8  37
BRANCH   1  47
ATOM     47  C   UNL     1     156.711 176.076 177.741  0.00  0.00    -0.059 C 
ATOM     48  H   UNL     1     156.527 175.254 177.043  0.00  0.00    +0.024 HD
ATOM     49  H   UNL     1     157.795 176.215 177.821  0.00  0.00    +0.024 HD
ATOM     50  H   UNL     1     156.290 176.985 177.297  0.00  0.00    +0.024 HD
ENDBRANCH   1  47
BRANCH  14  51
ATOM     51  C   UNL     1     152.816 170.997 180.262  0.00  0.00    -0.043 C 
ATOM     52  H   UNL     1     153.511 170.434 179.631  0.00  0.00    +0.027 HD
ATOM     53  H   UNL     1     152.079 171.467 179.603  0.00  0.00    +0.027 HD
ATOM     54  H   UNL     1     152.280 170.293 180.907  0.00  0.00    +0.027 HD
ENDBRANCH  14  51
BRANCH   8  55
ATOM     55  O   UNL     1     158.825 171.783 181.117  0.00  0.00    -0.363 OA
ATOM     56  H   UNL     1     159.298 171.816 180.266  0.00  0.00    +0.213 HD
ENDBRANCH   8  55
TORSDOF 4
ENDMDL
MODEL 8
REMARK VINA RESULT:      -6.0      3.749      6.268
REMARK  Name = Latrunculin B_conf2
REMARK  4 active torsions:
REMARK  status: ('A' for Active; 'I' for Inactive)
REMARK    1  A    between atoms: C_1  and  C_2
REMARK    2  A    between atoms: C_9  and  C_11
REMARK    3  A    between atoms: C_9  and  O_17
REMARK    4  A    between atoms: C_22  and  C_27
REMARK                            x       y       z     vdW  Elec       q    Type
REMARK                         _______ _______ _______ _____ _____    ______ ____
ROOT
ATOM      1  C   UNL     1     134.676 160.977 200.729  0.00  0.00    -0.026 C 
ATOM      2  C   UNL     1     135.440 162.256 200.326  0.00  0.00    -0.045 C 
ATOM      3  C   UNL     1     134.855 163.549 200.912  0.00  0.00    -0.026 C 
ATOM      4  C   UNL     1     133.477 163.944 200.354  0.00  0.00    +0.065 C 
ATOM      5  C   UNL     1     133.537 164.348 198.880  0.00  0.00    +0.011 C 
ATOM      6  C   UNL     1     132.162 164.813 198.394  0.00  0.00    +0.111 C 
ATOM      7  C   UNL     1     131.615 165.903 199.318  0.00  0.00    +0.040 C 
ATOM      8  C   UNL     1     131.684 165.486 200.798  0.00  0.00    +0.190 C 
ATOM      9  O   UNL     1     133.009 165.057 201.128  0.00  0.00    -0.344 OA
ATOM     10  O   UNL     1     131.228 163.710 198.401  0.00  0.00    -0.458 OA
ATOM     11  C   UNL     1     131.355 162.842 197.363  0.00  0.00    +0.332 C 
ATOM     12  O   UNL     1     132.118 162.941 196.419  0.00  0.00    -0.246 OA
ATOM     13  C   UNL     1     130.420 161.724 197.583  0.00  0.00    +0.021 C 
ATOM     14  C   UNL     1     130.808 160.436 197.681  0.00  0.00    -0.066 C 
ATOM     15  C   UNL     1     132.253 159.965 197.632  0.00  0.00    -0.028 C 
ATOM     16  C   UNL     1     132.694 159.279 198.933  0.00  0.00    -0.031 C 
ATOM     17  C   UNL     1     134.191 159.139 199.016  0.00  0.00    -0.087 C 
ATOM     18  C   UNL     1     135.033 159.846 199.790  0.00  0.00    -0.085 C 
ATOM     19  H   UNL     1     133.604 161.174 200.670  0.00  0.00    +0.034 HD
ATOM     20  H   UNL     1     136.484 162.171 200.658  0.00  0.00    +0.027 HD
ATOM     21  H   UNL     1     135.485 162.342 199.234  0.00  0.00    +0.027 HD
ATOM     22  H   UNL     1     134.794 163.472 202.004  0.00  0.00    +0.029 HD
ATOM     23  H   UNL     1     135.560 164.370 200.726  0.00  0.00    +0.029 HD
ATOM     24  H   UNL     1     132.781 163.112 200.498  0.00  0.00    +0.060 HD
ATOM     25  H   UNL     1     134.247 165.175 198.754  0.00  0.00    +0.033 HD
ATOM     26  H   UNL     1     133.889 163.509 198.274  0.00  0.00    +0.033 HD
ATOM     27  H   UNL     1     132.231 165.222 197.378  0.00  0.00    +0.074 HD
ATOM     28  H   UNL     1     130.578 166.119 199.036  0.00  0.00    +0.035 HD
ATOM     29  H   UNL     1     132.215 166.808 199.166  0.00  0.00    +0.035 HD
ATOM     30  H   UNL     1     129.379 162.013 197.660  0.00  0.00    +0.069 HD
ATOM     31  H   UNL     1     132.372 159.272 196.789  0.00  0.00    +0.031 HD
ATOM     32  H   UNL     1     132.931 160.801 197.429  0.00  0.00    +0.031 HD
ATOM     33  H   UNL     1     132.260 158.272 198.986  0.00  0.00    +0.031 HD
ATOM     34  H   UNL     1     132.296 159.816 199.800  0.00  0.00    +0.031 HD
ATOM     35  H   UNL     1     134.619 158.366 198.379  0.00  0.00    +0.057 HD
ATOM     36  H   UNL     1     136.094 159.598 199.735  0.00  0.00    +0.057 HD
ENDROOT
BRANCH   8  37
ATOM     37  C   UNL     1     131.362 166.700 201.721  0.00  0.00    +0.087 C 
ATOM     38  C   UNL     1     132.277 167.894 201.439  0.00  0.00    +0.026 C 
ATOM     39  S   UNL     1     132.180 168.878 202.965  0.00  0.00    -0.066 S 
ATOM     40  C   UNL     1     131.813 167.479 203.946  0.00  0.00    +0.272 C 
ATOM     41  O   UNL     1     131.846 167.453 205.163  0.00  0.00    -0.263 OA
ATOM     42  N   UNL     1     131.470 166.430 203.145  0.00  0.00    -0.298 N 
ATOM     43  H   UNL     1     130.324 167.014 201.541  0.00  0.00    +0.056 HD
ATOM     44  H   UNL     1     131.950 168.474 200.572  0.00  0.00    +0.040 HD
ATOM     45  H   UNL     1     133.321 167.599 201.297  0.00  0.00    +0.040 HD
ATOM     46  H   UNL     1     131.187 165.571 203.594  0.00  0.00    +0.150 HD
ENDBRANCH   8  37
BRANCH   1  47
ATOM     47  C   UNL     1     134.984 160.563 202.171  0.00  0.00    -0.059 C 
ATOM     48  H   UNL     1     135.784 159.818 202.206  0.00  0.00    +0.024 HD
ATOM     49  H   UNL     1     134.104 160.137 202.665  0.00  0.00    +0.024 HD
ATOM     50  H   UNL     1     135.314 161.426 202.762  0.00  0.00    +0.024 HD
ENDBRANCH   1  47
BRANCH  14  51
ATOM     51  C   UNL     1     129.775 159.351 197.844  0.00  0.00    -0.043 C 
ATOM     52  H   UNL     1     129.388 159.348 198.868  0.00  0.00    +0.027 HD
ATOM     53  H   UNL     1     130.188 158.356 197.645  0.00  0.00    +0.027 HD
ATOM     54  H   UNL     1     128.940 159.505 197.153  0.00  0.00    +0.027 HD
ENDBRANCH  14  51
BRANCH   8  55
ATOM     55  O   UNL     1     130.743 164.452 201.082  0.00  0.00    -0.363 OA
ATOM     56  H   UNL     1     129.932 164.873 201.418  0.00  0.00    +0.213 HD
ENDBRANCH   8  55
TORSDOF 4
ENDMDL
MODEL 9
REMARK VINA RESULT:      -6.0      5.421      8.772
REMARK  Name = Latrunculin B_conf2
REMARK  4 active torsions:
REMARK  status: ('A' for Active; 'I' for Inactive)
REMARK    1  A    between atoms: C_1  and  C_2
REMARK    2  A    between atoms: C_9  and  C_11
REMARK    3  A    between atoms: C_9  and  O_17
REMARK    4  A    between atoms: C_22  and  C_27
REMARK                            x       y       z     vdW  Elec       q    Type
REMARK                         _______ _______ _______ _____ _____    ______ ____
ROOT
ATOM      1  C   UNL     1     135.654 153.177 200.208  0.00  0.00    -0.026 C 
ATOM      2  C   UNL     1     134.865 152.434 199.109  0.00  0.00    -0.045 C 
ATOM      3  C   UNL     1     135.640 152.247 197.796  0.00  0.00    -0.026 C 
ATOM      4  C   UNL     1     135.913 153.544 197.017  0.00  0.00    +0.065 C 
ATOM      5  C   UNL     1     134.634 154.171 196.459  0.00  0.00    +0.011 C 
ATOM      6  C   UNL     1     134.962 155.410 195.622  0.00  0.00    +0.111 C 
ATOM      7  C   UNL     1     136.005 155.066 194.557  0.00  0.00    +0.040 C 
ATOM      8  C   UNL     1     137.220 154.337 195.159  0.00  0.00    +0.190 C 
ATOM      9  O   UNL     1     136.786 153.212 195.930  0.00  0.00    -0.344 OA
ATOM     10  O   UNL     1     135.507 156.452 196.462  0.00  0.00    -0.458 OA
ATOM     11  C   UNL     1     134.591 157.134 197.199  0.00  0.00    +0.332 C 
ATOM     12  O   UNL     1     133.381 156.996 197.168  0.00  0.00    -0.246 OA
ATOM     13  C   UNL     1     135.315 158.068 198.079  0.00  0.00    +0.021 C 
ATOM     14  C   UNL     1     135.221 158.050 199.425  0.00  0.00    -0.066 C 
ATOM     15  C   UNL     1     134.405 157.041 200.218  0.00  0.00    -0.028 C 
ATOM     16  C   UNL     1     135.274 156.179 201.146  0.00  0.00    -0.031 C 
ATOM     17  C   UNL     1     134.531 154.970 201.648  0.00  0.00    -0.087 C 
ATOM     18  C   UNL     1     134.703 153.692 201.266  0.00  0.00    -0.085 C 
ATOM     19  H   UNL     1     136.183 154.017 199.755  0.00  0.00    +0.034 HD
ATOM     20  H   UNL     1     134.577 151.441 199.481  0.00  0.00    +0.027 HD
ATOM     21  H   UNL     1     133.924 152.955 198.901  0.00  0.00    +0.027 HD
ATOM     22  H   UNL     1     136.590 151.736 197.991  0.00  0.00    +0.029 HD
ATOM     23  H   UNL     1     135.078 151.559 197.150  0.00  0.00    +0.029 HD
ATOM     24  H   UNL     1     136.435 154.250 197.670  0.00  0.00    +0.060 HD
ATOM     25  H   UNL     1     134.118 153.445 195.816  0.00  0.00    +0.033 HD
ATOM     26  H   UNL     1     133.956 154.435 197.275  0.00  0.00    +0.033 HD
ATOM     27  H   UNL     1     134.062 155.784 195.118  0.00  0.00    +0.074 HD
ATOM     28  H   UNL     1     136.328 155.992 194.066  0.00  0.00    +0.035 HD
ATOM     29  H   UNL     1     135.527 154.422 193.809  0.00  0.00    +0.035 HD
ATOM     30  H   UNL     1     135.939 158.787 197.562  0.00  0.00    +0.069 HD
ATOM     31  H   UNL     1     133.652 157.579 200.809  0.00  0.00    +0.031 HD
ATOM     32  H   UNL     1     133.843 156.379 199.549  0.00  0.00    +0.031 HD
ATOM     33  H   UNL     1     135.582 156.770 202.018  0.00  0.00    +0.031 HD
ATOM     34  H   UNL     1     136.203 155.895 200.641  0.00  0.00    +0.031 HD
ATOM     35  H   UNL     1     133.785 155.171 202.416  0.00  0.00    +0.057 HD
ATOM     36  H   UNL     1     134.085 152.935 201.750  0.00  0.00    +0.057 HD
ENDROOT
BRANCH   8  37
ATOM     37  C   UNL     1     138.136 153.779 194.027  0.00  0.00    +0.087 C 
ATOM     38  C   UNL     1     138.383 152.276 194.177  0.00  0.00    +0.026 C 
ATOM     39  S   UNL     1     139.901 151.994 193.216  0.00  0.00    -0.066 S 
ATOM     40  C   UNL     1     140.464 153.630 193.461  0.00  0.00    +0.272 C 
ATOM     41  O   UNL     1     141.592 154.022 193.227  0.00  0.00    -0.263 OA
ATOM     42  N   UNL     1     139.446 154.402 193.939  0.00  0.00    -0.298 N 
ATOM     43  H   UNL     1     137.643 153.950 193.059  0.00  0.00    +0.056 HD
ATOM     44  H   UNL     1     137.553 151.677 193.793  0.00  0.00    +0.040 HD
ATOM     45  H   UNL     1     138.584 151.985 195.213  0.00  0.00    +0.040 HD
ATOM     46  H   UNL     1     139.629 155.385 194.078  0.00  0.00    +0.150 HD
ENDBRANCH   8  37
BRANCH   1  47
ATOM     47  C   UNL     1     136.705 152.275 200.859  0.00  0.00    -0.059 C 
ATOM     48  H   UNL     1     137.663 152.341 200.333  0.00  0.00    +0.024 HD
ATOM     49  H   UNL     1     136.391 151.225 200.858  0.00  0.00    +0.024 HD
ATOM     50  H   UNL     1     136.883 152.570 201.899  0.00  0.00    +0.024 HD
ENDBRANCH   1  47
BRANCH  14  51
ATOM     51  C   UNL     1     135.949 159.085 200.243  0.00  0.00    -0.043 C 
ATOM     52  H   UNL     1     136.932 159.290 199.806  0.00  0.00    +0.027 HD
ATOM     53  H   UNL     1     136.110 158.755 201.275  0.00  0.00    +0.027 HD
ATOM     54  H   UNL     1     135.380 160.019 200.281  0.00  0.00    +0.027 HD
ENDBRANCH  14  51
BRANCH   8  55
ATOM     55  O   UNL     1     137.998 155.219 195.965  0.00  0.00    -0.363 OA
ATOM     56  H   UNL     1     138.866 155.326 195.535  0.00  0.00    +0.213 HD
ENDBRANCH   8  55
TORSDOF 4
ENDMDL
MODEL 10
REMARK VINA RESULT:      -5.9     29.411     30.771
REMARK  Name = Latrunculin B_conf2
REMARK  4 active torsions:
REMARK  status: ('A' for Active; 'I' for Inactive)
REMARK    1  A    between atoms: C_1  and  C_2
REMARK    2  A    between atoms: C_9  and  C_11
REMARK    3  A    between atoms: C_9  and  O_17
REMARK    4  A    between atoms: C_22  and  C_27
REMARK                            x       y       z     vdW  Elec       q    Type
REMARK                         _______ _______ _______ _____ _____    ______ ____
ROOT
ATOM      1  C   UNL     1     154.613 169.652 180.665  0.00  0.00    -0.026 C 
ATOM      2  C   UNL     1     153.684 170.777 181.170  0.00  0.00    -0.045 C 
ATOM      3  C   UNL     1     154.171 172.194 180.832  0.00  0.00    -0.026 C 
ATOM      4  C   UNL     1     155.448 172.631 181.569  0.00  0.00    +0.065 C 
ATOM      5  C   UNL     1     155.226 172.801 183.072  0.00  0.00    +0.011 C 
ATOM      6  C   UNL     1     156.499 173.316 183.749  0.00  0.00    +0.111 C 
ATOM      7  C   UNL     1     156.997 174.580 183.045  0.00  0.00    +0.040 C 
ATOM      8  C   UNL     1     157.094 174.385 181.521  0.00  0.00    +0.190 C 
ATOM      9  O   UNL     1     155.854 173.886 181.009  0.00  0.00    -0.344 OA
ATOM     10  O   UNL     1     157.544 172.321 183.675  0.00  0.00    -0.458 OA
ATOM     11  C   UNL     1     157.429 171.299 184.564  0.00  0.00    +0.332 C 
ATOM     12  O   UNL     1     156.586 171.182 185.435  0.00  0.00    -0.246 OA
ATOM     13  C   UNL     1     158.494 170.321 184.278  0.00  0.00    +0.021 C 
ATOM     14  C   UNL     1     158.258 169.031 183.963  0.00  0.00    -0.066 C 
ATOM     15  C   UNL     1     156.873 168.423 183.806  0.00  0.00    -0.028 C 
ATOM     16  C   UNL     1     156.616 167.901 182.385  0.00  0.00    -0.031 C 
ATOM     17  C   UNL     1     155.155 167.633 182.140  0.00  0.00    -0.087 C 
ATOM     18  C   UNL     1     154.306 168.364 181.397  0.00  0.00    -0.085 C 
ATOM     19  H   UNL     1     155.648 169.939 180.854  0.00  0.00    +0.034 HD
ATOM     20  H   UNL     1     152.686 170.644 180.731  0.00  0.00    +0.027 HD
ATOM     21  H   UNL     1     153.543 170.693 182.253  0.00  0.00    +0.027 HD
ATOM     22  H   UNL     1     154.328 172.289 179.750  0.00  0.00    +0.029 HD
ATOM     23  H   UNL     1     153.369 172.907 181.063  0.00  0.00    +0.029 HD
ATOM     24  H   UNL     1     156.240 171.900 181.376  0.00  0.00    +0.060 HD
ATOM     25  H   UNL     1     154.423 173.528 183.246  0.00  0.00    +0.033 HD
ATOM     26  H   UNL     1     154.920 171.851 183.517  0.00  0.00    +0.033 HD
ATOM     27  H   UNL     1     156.304 173.559 184.801  0.00  0.00    +0.074 HD
ATOM     28  H   UNL     1     157.979 174.849 183.452  0.00  0.00    +0.035 HD
ATOM     29  H   UNL     1     156.292 175.390 183.265  0.00  0.00    +0.035 HD
ATOM     30  H   UNL     1     159.501 170.716 184.342  0.00  0.00    +0.069 HD
ATOM     31  H   UNL     1     156.763 167.602 184.527  0.00  0.00    +0.031 HD
ATOM     32  H   UNL     1     156.094 169.150 184.059  0.00  0.00    +0.031 HD
ATOM     33  H   UNL     1     157.160 166.959 182.232  0.00  0.00    +0.031 HD
ATOM     34  H   UNL     1     157.022 168.598 181.645  0.00  0.00    +0.031 HD
ATOM     35  H   UNL     1     154.763 166.735 182.618  0.00  0.00    +0.057 HD
ATOM     36  H   UNL     1     153.277 168.011 181.314  0.00  0.00    +0.057 HD
ENDROOT
BRANCH   8  37
ATOM     37  C   UNL     1     157.355 175.750 180.813  0.00  0.00    +0.087 C 
ATOM     38  C   UNL     1     156.062 176.387 180.300  0.00  0.00    +0.026 C 
ATOM     39  S   UNL     1     156.634 177.546 179.020  0.00  0.00    -0.066 S 
ATOM     40  C   UNL     1     158.067 176.604 178.687  0.00  0.00    +0.272 C 
ATOM     41  O   UNL     1     158.792 176.756 177.720  0.00  0.00    -0.263 OA
ATOM     42  N   UNL     1     158.258 175.686 179.677  0.00  0.00    -0.298 N 
ATOM     43  H   UNL     1     157.813 176.440 181.537  0.00  0.00    +0.056 HD
ATOM     44  H   UNL     1     155.511 176.908 181.089  0.00  0.00    +0.040 HD
ATOM     45  H   UNL     1     155.397 175.661 179.821  0.00  0.00    +0.040 HD
ATOM     46  H   UNL     1     159.084 175.107 179.627  0.00  0.00    +0.150 HD
ENDBRANCH   8  37
BRANCH   1  47
ATOM     47  C   UNL     1     154.469 169.433 179.157  0.00  0.00    -0.059 C 
ATOM     48  H   UNL     1     154.943 170.242 178.593  0.00  0.00    +0.024 HD
ATOM     49  H   UNL     1     153.416 169.383 178.856  0.00  0.00    +0.024 HD
ATOM     50  H   UNL     1     154.949 168.496 178.851  0.00  0.00    +0.024 HD
ENDBRANCH   1  47
BRANCH  14  51
ATOM     51  C   UNL     1     159.413 168.087 183.748  0.00  0.00    -0.043 C 
ATOM     52  H   UNL     1     159.042 167.080 183.532  0.00  0.00    +0.027 HD
ATOM     53  H   UNL     1     160.058 168.019 184.630  0.00  0.00    +0.027 HD
ATOM     54  H   UNL     1     160.034 168.419 182.910  0.00  0.00    +0.027 HD
ENDBRANCH  14  51
BRANCH   8  55
ATOM     55  O   UNL     1     158.161 173.501 181.185  0.00  0.00    -0.363 OA
ATOM     56  H   UNL     1     157.904 173.019 180.378  0.00  0.00    +0.213 HD
ENDBRANCH   8  55
TORSDOF 4
ENDMDL
