MODEL 1
REMARK VINA RESULT:      -5.7      0.000      0.000
REMARK  Name = Lobophorolide_conf3
REMARK  23 active torsions:
REMARK  status: ('A' for Active; 'I' for Inactive)
REMARK    1  A    between atoms: C_1  and  C_2
REMARK    2  A    between atoms: C_4  and  O_53
REMARK    3  A    between atoms: C_6  and  C_8
REMARK    4  A    between atoms: C_8  and  C_9
REMARK    5  A    between atoms: C_9  and  C_10
REMARK    6  A    between atoms: C_10  and  C_11
REMARK    7  A    between atoms: C_10  and  C_12
REMARK    8  A    between atoms: C_12  and  C_13
REMARK    9  A    between atoms: C_12  and  O_52
REMARK   10  A    between atoms: C_13  and  C_14
REMARK   11  A    between atoms: C_13  and  C_15
REMARK   12  A    between atoms: C_16  and  C_51
REMARK   13  A    between atoms: C_17  and  O_49
REMARK   14  A    between atoms: C_19  and  O_47
REMARK   15  A    between atoms: C_23  and  O_45
REMARK   16  A    between atoms: C_32  and  O_43
REMARK   17  A    between atoms: C_33  and  O_42
REMARK   18  A    between atoms: C_35  and  C_41
REMARK   19  A    between atoms: O_43  and  C_44
REMARK   20  A    between atoms: O_45  and  C_46
REMARK   21  A    between atoms: O_47  and  C_48
REMARK   22  A    between atoms: O_49  and  C_50
REMARK   23  A    between atoms: O_53  and  C_54
REMARK                            x       y       z     vdW  Elec       q    Type
REMARK                         _______ _______ _______ _____ _____    ______ ____
ROOT
ATOM      1  C   UNL     1     152.501 165.110 188.543  0.00  0.00    +0.113 C 
ATOM      2  C   UNL     1     151.650 164.411 187.433  0.00  0.00    +0.020 C 
ATOM      3  C   UNL     1     150.615 163.335 187.868  0.00  0.00    +0.067 C 
ATOM      4  C   UNL     1     151.185 162.182 188.728  0.00  0.00    +0.003 C 
ATOM      5  C   UNL     1     150.114 161.107 189.031  0.00  0.00    +0.094 C 
ATOM      6  C   UNL     1     150.742 159.762 189.410  0.00  0.00    +0.145 C 
ATOM      7  C   UNL     1     151.036 159.477 190.879  0.00  0.00    +0.083 C 
ATOM      8  O   UNL     1     149.883 158.933 190.234  0.00  0.00    -0.363 OA
ATOM      9  C   UNL     1     151.406 158.921 188.314  0.00  0.00    +0.094 C 
ATOM     10  C   UNL     1     152.929 158.826 188.500  0.00  0.00    +0.003 C 
ATOM     11  C   UNL     1     153.669 158.054 187.387  0.00  0.00    +0.065 C 
ATOM     12  C   UNL     1     153.203 156.611 187.130  0.00  0.00    -0.008 C 
ATOM     13  C   UNL     1     153.679 155.679 188.200  0.00  0.00    -0.083 C 
ATOM     14  C   UNL     1     154.738 156.006 188.955  0.00  0.00    -0.059 C 
ATOM     15  C   UNL     1     155.514 157.298 188.784  0.00  0.00    +0.080 C 
ATOM     16  O   UNL     1     155.089 158.036 187.628  0.00  0.00    -0.369 OA
ATOM     17  C   UNL     1     157.012 156.987 188.662  0.00  0.00    +0.006 C 
ATOM     18  C   UNL     1     157.977 158.191 188.552  0.00  0.00    +0.090 C 
ATOM     19  C   UNL     1     157.824 159.277 189.659  0.00  0.00    +0.100 C 
ATOM     20  C   UNL     1     156.788 160.346 189.405  0.00  0.00    -0.051 C 
ATOM     21  C   UNL     1     156.834 161.632 189.812  0.00  0.00    -0.052 C 
ATOM     22  C   UNL     1     155.790 162.549 189.360  0.00  0.00    -0.052 C 
ATOM     23  C   UNL     1     155.855 163.885 189.452  0.00  0.00    +0.023 C 
ATOM     24  C   UNL     1     154.825 164.807 188.948  0.00  0.00    +0.332 C 
ATOM     25  O   UNL     1     155.095 165.966 188.675  0.00  0.00    -0.246 OA
ATOM     26  O   UNL     1     153.593 164.231 188.916  0.00  0.00    -0.458 OA
ATOM     27  H   UNL     1     152.910 165.999 188.054  0.00  0.00    +0.074 HD
ATOM     28  H   UNL     1     151.073 165.220 186.962  0.00  0.00    +0.036 HD
ATOM     29  H   UNL     1     150.211 162.870 186.958  0.00  0.00    +0.060 HD
ATOM     30  H   UNL     1     151.563 162.565 189.682  0.00  0.00    +0.032 HD
ATOM     31  H   UNL     1     152.028 161.732 188.195  0.00  0.00    +0.032 HD
ATOM     32  H   UNL     1     149.476 160.972 188.149  0.00  0.00    +0.063 HD
ATOM     33  H   UNL     1     151.813 158.780 191.164  0.00  0.00    +0.059 HD
ATOM     34  H   UNL     1     150.884 160.269 191.604  0.00  0.00    +0.059 HD
ATOM     35  H   UNL     1     150.992 157.904 188.360  0.00  0.00    +0.063 HD
ATOM     36  H   UNL     1     153.145 158.378 189.474  0.00  0.00    +0.032 HD
ATOM     37  H   UNL     1     153.359 159.834 188.548  0.00  0.00    +0.032 HD
ATOM     38  H   UNL     1     153.538 158.612 186.452  0.00  0.00    +0.060 HD
ATOM     39  H   UNL     1     153.637 156.261 186.185  0.00  0.00    +0.033 HD
ATOM     40  H   UNL     1     152.118 156.549 187.021  0.00  0.00    +0.033 HD
ATOM     41  H   UNL     1     153.169 154.731 188.341  0.00  0.00    +0.057 HD
ATOM     42  H   UNL     1     155.061 155.334 189.746  0.00  0.00    +0.059 HD
ATOM     43  H   UNL     1     155.337 157.908 189.675  0.00  0.00    +0.064 HD
ATOM     44  H   UNL     1     157.320 156.392 189.532  0.00  0.00    +0.032 HD
ATOM     45  H   UNL     1     157.156 156.351 187.781  0.00  0.00    +0.032 HD
ATOM     46  H   UNL     1     158.983 157.770 188.696  0.00  0.00    +0.063 HD
ATOM     47  H   UNL     1     158.802 159.767 189.729  0.00  0.00    +0.066 HD
ATOM     48  H   UNL     1     155.991 160.048 188.731  0.00  0.00    +0.060 HD
ATOM     49  H   UNL     1     154.930 162.097 188.870  0.00  0.00    +0.062 HD
ATOM     50  H   UNL     1     156.718 164.396 189.859  0.00  0.00    +0.069 HD
ENDROOT
BRANCH  21  51
ATOM     51  C   UNL     1     157.912 162.174 190.716  0.00  0.00    -0.040 C 
ATOM     52  H   UNL     1     157.870 161.759 191.729  0.00  0.00    +0.028 HD
ATOM     53  H   UNL     1     158.903 161.946 190.306  0.00  0.00    +0.028 HD
ATOM     54  H   UNL     1     157.822 163.260 190.833  0.00  0.00    +0.028 HD
ENDBRANCH  21  51
BRANCH   2  55
ATOM     55  C   UNL     1     152.561 163.851 186.328  0.00  0.00    -0.057 C 
ATOM     56  H   UNL     1     151.961 163.398 185.528  0.00  0.00    +0.023 HD
ATOM     57  H   UNL     1     153.190 164.624 185.877  0.00  0.00    +0.023 HD
ATOM     58  H   UNL     1     153.219 163.072 186.728  0.00  0.00    +0.023 HD
ENDBRANCH   2  55
BRANCH   1  59
ATOM     59  C   UNL     1     151.739 165.570 189.821  0.00  0.00    +0.020 C 
ATOM     60  H   UNL     1     150.674 165.558 189.569  0.00  0.00    +0.036 HD
BRANCH  59  61
ATOM     61  C   UNL     1     151.809 164.565 190.983  0.00  0.00    -0.057 C 
ATOM     62  H   UNL     1     150.804 164.257 191.292  0.00  0.00    +0.023 HD
ATOM     63  H   UNL     1     152.335 163.653 190.679  0.00  0.00    +0.023 HD
ATOM     64  H   UNL     1     152.325 164.974 191.855  0.00  0.00    +0.023 HD
ENDBRANCH  59  61
BRANCH  59  65
ATOM     65  C   UNL     1     152.101 167.014 190.277  0.00  0.00    +0.064 C 
ATOM     66  H   UNL     1     152.860 166.987 191.065  0.00  0.00    +0.060 HD
BRANCH  65  67
ATOM     67  C   UNL     1     150.945 167.947 190.765  0.00  0.00    -0.017 C 
ATOM     68  H   UNL     1     151.086 168.923 190.299  0.00  0.00    +0.032 HD
BRANCH  67  69
ATOM     69  C   UNL     1     149.573 167.405 190.356  0.00  0.00    -0.060 C 
ATOM     70  H   UNL     1     149.610 166.340 190.111  0.00  0.00    +0.023 HD
ATOM     71  H   UNL     1     149.179 167.940 189.486  0.00  0.00    +0.023 HD
ATOM     72  H   UNL     1     148.850 167.485 191.169  0.00  0.00    +0.023 HD
ENDBRANCH  67  69
BRANCH  67  73
ATOM     73  C   UNL     1     151.044 168.158 192.301  0.00  0.00    -0.046 C 
ATOM     74  H   UNL     1     151.506 169.142 192.467  0.00  0.00    +0.027 HD
ATOM     75  H   UNL     1     150.035 168.225 192.729  0.00  0.00    +0.027 HD
BRANCH  73  76
ATOM     76  C   UNL     1     151.841 167.147 193.134  0.00  0.00    -0.026 C 
ATOM     77  H   UNL     1     152.619 166.658 192.537  0.00  0.00    +0.029 HD
ATOM     78  H   UNL     1     152.414 167.731 193.870  0.00  0.00    +0.029 HD
BRANCH  76  83
ATOM     79  C   UNL     1     148.867 166.794 194.710  0.00  0.00    +0.059 C 
ATOM     80  C   UNL     1     148.850 165.723 195.796  0.00  0.00    -0.000 C 
ATOM     81  C   UNL     1     150.269 165.367 196.254  0.00  0.00    +0.063 C 
ATOM     82  C   UNL     1     151.345 166.088 195.439  0.00  0.00    -0.000 C 
ATOM     83  C   UNL     1     151.049 166.095 193.936  0.00  0.00    +0.061 C 
ATOM     84  O   UNL     1     149.664 166.331 193.623  0.00  0.00    -0.373 OA
ATOM     85  H   UNL     1     149.276 167.739 195.089  0.00  0.00    +0.059 HD
ATOM     86  H   UNL     1     148.263 166.068 196.654  0.00  0.00    +0.032 HD
ATOM     87  H   UNL     1     148.350 164.825 195.410  0.00  0.00    +0.032 HD
ATOM     88  H   UNL     1     150.403 165.652 197.305  0.00  0.00    +0.060 HD
ATOM     89  H   UNL     1     151.411 167.119 195.803  0.00  0.00    +0.032 HD
ATOM     90  H   UNL     1     152.312 165.611 195.619  0.00  0.00    +0.032 HD
ATOM     91  H   UNL     1     151.281 165.104 193.528  0.00  0.00    +0.060 HD
BRANCH  79  92
ATOM     92  C   UNL     1     147.464 167.063 194.182  0.00  0.00    -0.039 C 
ATOM     93  H   UNL     1     147.191 168.115 194.290  0.00  0.00    +0.025 HD
ATOM     94  H   UNL     1     147.398 166.790 193.126  0.00  0.00    +0.025 HD
ATOM     95  H   UNL     1     146.722 166.451 194.712  0.00  0.00    +0.025 HD
ENDBRANCH  79  92
BRANCH  81  96
ATOM     96  O   UNL     1     150.492 163.954 196.142  0.00  0.00    -0.380 OA
BRANCH  96  97
ATOM     97  C   UNL     1     151.638 163.511 196.862  0.00  0.00    +0.037 C 
ATOM     98  H   UNL     1     152.550 163.789 196.321  0.00  0.00    +0.052 HD
ATOM     99  H   UNL     1     151.596 162.421 196.938  0.00  0.00    +0.052 HD
ATOM    100  H   UNL     1     151.661 163.930 197.874  0.00  0.00    +0.052 HD
ENDBRANCH  96  97
ENDBRANCH  81  96
ENDBRANCH  76  83
ENDBRANCH  73  76
ENDBRANCH  67  73
ENDBRANCH  65  67
BRANCH  65 101
ATOM    101  O   UNL     1     152.728 167.652 189.152  0.00  0.00    -0.391 OA
ATOM    102  H   UNL     1     152.225 167.370 188.360  0.00  0.00    +0.210 HD
ENDBRANCH  65 101
ENDBRANCH  59  65
ENDBRANCH   1  59
BRANCH  19 103
ATOM    103  O   UNL     1     157.568 158.666 190.923  0.00  0.00    -0.385 OA
ATOM    104  H   UNL     1     157.040 157.863 190.756  0.00  0.00    +0.210 HD
ENDBRANCH  19 103
BRANCH  18 105
ATOM    105  O   UNL     1     157.937 158.814 187.260  0.00  0.00    -0.377 OA
BRANCH 105 106
ATOM    106  C   UNL     1     158.381 157.972 186.206  0.00  0.00    +0.037 C 
ATOM    107  H   UNL     1     159.431 157.686 186.322  0.00  0.00    +0.052 HD
ATOM    108  H   UNL     1     157.771 157.064 186.214  0.00  0.00    +0.052 HD
ATOM    109  H   UNL     1     158.236 158.475 185.243  0.00  0.00    +0.052 HD
ENDBRANCH 105 106
ENDBRANCH  18 105
BRANCH   9 110
ATOM    110  O   UNL     1     151.147 159.481 187.017  0.00  0.00    -0.377 OA
BRANCH 110 111
ATOM    111  C   UNL     1     150.194 158.728 186.278  0.00  0.00    +0.037 C 
ATOM    112  H   UNL     1     150.688 157.912 185.743  0.00  0.00    +0.052 HD
ATOM    113  H   UNL     1     149.729 159.390 185.543  0.00  0.00    +0.052 HD
ATOM    114  H   UNL     1     149.411 158.329 186.931  0.00  0.00    +0.052 HD
ENDBRANCH 110 111
ENDBRANCH   9 110
BRANCH   5 115
ATOM    115  O   UNL     1     149.313 161.607 190.122  0.00  0.00    -0.377 OA
BRANCH 115 116
ATOM    116  C   UNL     1     147.916 161.473 189.895  0.00  0.00    +0.037 C 
ATOM    117  H   UNL     1     147.588 162.158 189.107  0.00  0.00    +0.052 HD
ATOM    118  H   UNL     1     147.655 160.447 189.624  0.00  0.00    +0.052 HD
ATOM    119  H   UNL     1     147.393 161.735 190.818  0.00  0.00    +0.052 HD
ENDBRANCH 115 116
ENDBRANCH   5 115
BRANCH   3 120
ATOM    120  O   UNL     1     149.530 163.974 188.562  0.00  0.00    -0.379 OA
BRANCH 120 121
ATOM    121  C   UNL     1     148.675 164.718 187.703  0.00  0.00    +0.037 C 
ATOM    122  H   UNL     1     147.746 164.924 188.241  0.00  0.00    +0.052 HD
ATOM    123  H   UNL     1     148.434 164.137 186.809  0.00  0.00    +0.052 HD
ATOM    124  H   UNL     1     149.130 165.671 187.420  0.00  0.00    +0.052 HD
ENDBRANCH 120 121
ENDBRANCH   3 120
TORSDOF 23
ENDMDL
MODEL 2
REMARK VINA RESULT:      -5.7      2.426      3.509
REMARK  Name = Lobophorolide_conf3
REMARK  23 active torsions:
REMARK  status: ('A' for Active; 'I' for Inactive)
REMARK    1  A    between atoms: C_1  and  C_2
REMARK    2  A    between atoms: C_4  and  O_53
REMARK    3  A    between atoms: C_6  and  C_8
REMARK    4  A    between atoms: C_8  and  C_9
REMARK    5  A    between atoms: C_9  and  C_10
REMARK    6  A    between atoms: C_10  and  C_11
REMARK    7  A    between atoms: C_10  and  C_12
REMARK    8  A    between atoms: C_12  and  C_13
REMARK    9  A    between atoms: C_12  and  O_52
REMARK   10  A    between atoms: C_13  and  C_14
REMARK   11  A    between atoms: C_13  and  C_15
REMARK   12  A    between atoms: C_16  and  C_51
REMARK   13  A    between atoms: C_17  and  O_49
REMARK   14  A    between atoms: C_19  and  O_47
REMARK   15  A    between atoms: C_23  and  O_45
REMARK   16  A    between atoms: C_32  and  O_43
REMARK   17  A    between atoms: C_33  and  O_42
REMARK   18  A    between atoms: C_35  and  C_41
REMARK   19  A    between atoms: O_43  and  C_44
REMARK   20  A    between atoms: O_45  and  C_46
REMARK   21  A    between atoms: O_47  and  C_48
REMARK   22  A    between atoms: O_49  and  C_50
REMARK   23  A    between atoms: O_53  and  C_54
REMARK                            x       y       z     vdW  Elec       q    Type
REMARK                         _______ _______ _______ _____ _____    ______ ____
ROOT
ATOM      1  C   UNL     1     152.363 165.612 188.665  0.00  0.00    +0.113 C 
ATOM      2  C   UNL     1     151.453 165.005 187.547  0.00  0.00    +0.020 C 
ATOM      3  C   UNL     1     150.386 163.951 187.960  0.00  0.00    +0.067 C 
ATOM      4  C   UNL     1     150.929 162.735 188.747  0.00  0.00    +0.003 C 
ATOM      5  C   UNL     1     149.822 161.692 189.029  0.00  0.00    +0.094 C 
ATOM      6  C   UNL     1     150.402 160.305 189.324  0.00  0.00    +0.145 C 
ATOM      7  C   UNL     1     150.723 159.937 190.769  0.00  0.00    +0.083 C 
ATOM      8  O   UNL     1     149.531 159.473 190.133  0.00  0.00    -0.363 OA
ATOM      9  C   UNL     1     151.000 159.492 188.171  0.00  0.00    +0.094 C 
ATOM     10  C   UNL     1     152.522 159.325 188.308  0.00  0.00    +0.003 C 
ATOM     11  C   UNL     1     153.198 158.579 187.138  0.00  0.00    +0.065 C 
ATOM     12  C   UNL     1     152.664 157.171 186.826  0.00  0.00    -0.008 C 
ATOM     13  C   UNL     1     153.129 156.169 187.836  0.00  0.00    -0.083 C 
ATOM     14  C   UNL     1     154.220 156.415 188.575  0.00  0.00    -0.059 C 
ATOM     15  C   UNL     1     155.046 157.680 188.443  0.00  0.00    +0.080 C 
ATOM     16  O   UNL     1     154.622 158.490 187.337  0.00  0.00    -0.369 OA
ATOM     17  C   UNL     1     156.526 157.314 188.263  0.00  0.00    +0.006 C 
ATOM     18  C   UNL     1     157.537 158.481 188.183  0.00  0.00    +0.090 C 
ATOM     19  C   UNL     1     157.461 159.517 189.345  0.00  0.00    +0.100 C 
ATOM     20  C   UNL     1     156.465 160.638 189.173  0.00  0.00    -0.051 C 
ATOM     21  C   UNL     1     156.576 161.900 189.639  0.00  0.00    -0.052 C 
ATOM     22  C   UNL     1     155.562 162.880 189.262  0.00  0.00    -0.052 C 
ATOM     23  C   UNL     1     155.685 164.206 189.416  0.00  0.00    +0.023 C 
ATOM     24  C   UNL     1     154.683 165.194 188.988  0.00  0.00    +0.332 C 
ATOM     25  O   UNL     1     154.994 166.353 188.763  0.00  0.00    -0.246 OA
ATOM     26  O   UNL     1     153.427 164.672 188.963  0.00  0.00    -0.458 OA
ATOM     27  H   UNL     1     152.797 166.506 188.207  0.00  0.00    +0.074 HD
ATOM     28  H   UNL     1     150.899 165.859 187.133  0.00  0.00    +0.036 HD
ATOM     29  H   UNL     1     149.938 163.550 187.041  0.00  0.00    +0.060 HD
ATOM     30  H   UNL     1     151.349 163.055 189.707  0.00  0.00    +0.032 HD
ATOM     31  H   UNL     1     151.738 162.277 188.169  0.00  0.00    +0.032 HD
ATOM     32  H   UNL     1     149.156 161.627 188.161  0.00  0.00    +0.063 HD
ATOM     33  H   UNL     1     151.477 159.195 190.997  0.00  0.00    +0.059 HD
ATOM     34  H   UNL     1     150.624 160.698 191.535  0.00  0.00    +0.059 HD
ATOM     35  H   UNL     1     150.545 158.492 188.180  0.00  0.00    +0.063 HD
ATOM     36  H   UNL     1     152.745 158.821 189.253  0.00  0.00    +0.032 HD
ATOM     37  H   UNL     1     152.995 160.312 188.391  0.00  0.00    +0.032 HD
ATOM     38  H   UNL     1     153.066 159.188 186.235  0.00  0.00    +0.060 HD
ATOM     39  H   UNL     1     153.057 156.850 185.853  0.00  0.00    +0.033 HD
ATOM     40  H   UNL     1     151.575 157.159 186.745  0.00  0.00    +0.033 HD
ATOM     41  H   UNL     1     152.582 155.237 187.946  0.00  0.00    +0.057 HD
ATOM     42  H   UNL     1     154.536 155.691 189.323  0.00  0.00    +0.059 HD
ATOM     43  H   UNL     1     154.919 158.252 189.367  0.00  0.00    +0.064 HD
ATOM     44  H   UNL     1     156.832 156.664 189.095  0.00  0.00    +0.032 HD
ATOM     45  H   UNL     1     156.618 156.716 187.349  0.00  0.00    +0.032 HD
ATOM     46  H   UNL     1     158.528 158.012 188.278  0.00  0.00    +0.063 HD
ATOM     47  H   UNL     1     158.461 159.962 189.409  0.00  0.00    +0.066 HD
ATOM     48  H   UNL     1     155.638 160.408 188.509  0.00  0.00    +0.060 HD
ATOM     49  H   UNL     1     154.670 162.488 188.776  0.00  0.00    +0.062 HD
ATOM     50  H   UNL     1     156.580 164.661 189.822  0.00  0.00    +0.069 HD
ENDROOT
BRANCH  21  51
ATOM     51  C   UNL     1     157.701 162.352 190.537  0.00  0.00    -0.040 C 
ATOM     52  H   UNL     1     157.454 162.281 191.601  0.00  0.00    +0.028 HD
ATOM     53  H   UNL     1     158.595 161.741 190.364  0.00  0.00    +0.028 HD
ATOM     54  H   UNL     1     157.953 163.404 190.357  0.00  0.00    +0.028 HD
ENDBRANCH  21  51
BRANCH   2  55
ATOM     55  C   UNL     1     152.310 164.462 186.391  0.00  0.00    -0.057 C 
ATOM     56  H   UNL     1     152.819 165.284 185.871  0.00  0.00    +0.023 HD
ATOM     57  H   UNL     1     153.073 163.759 186.733  0.00  0.00    +0.023 HD
ATOM     58  H   UNL     1     151.683 163.947 185.654  0.00  0.00    +0.023 HD
ENDBRANCH   2  55
BRANCH   1  59
ATOM     59  C   UNL     1     151.657 166.039 189.985  0.00  0.00    +0.020 C 
ATOM     60  H   UNL     1     150.584 166.060 189.770  0.00  0.00    +0.036 HD
BRANCH  59  61
ATOM     61  C   UNL     1     151.744 164.991 191.106  0.00  0.00    -0.057 C 
ATOM     62  H   UNL     1     150.889 164.307 191.067  0.00  0.00    +0.023 HD
ATOM     63  H   UNL     1     152.642 164.373 190.992  0.00  0.00    +0.023 HD
ATOM     64  H   UNL     1     151.774 165.446 192.099  0.00  0.00    +0.023 HD
ENDBRANCH  59  61
BRANCH  59  65
ATOM     65  C   UNL     1     152.066 167.458 190.480  0.00  0.00    +0.064 C 
ATOM     66  H   UNL     1     152.988 167.406 191.067  0.00  0.00    +0.060 HD
BRANCH  65  67
ATOM     67  C   UNL     1     151.025 168.282 191.306  0.00  0.00    -0.017 C 
ATOM     68  H   UNL     1     150.061 168.203 190.799  0.00  0.00    +0.032 HD
BRANCH  67  69
ATOM     69  C   UNL     1     150.875 167.736 192.728  0.00  0.00    -0.060 C 
ATOM     70  H   UNL     1     151.764 167.924 193.335  0.00  0.00    +0.023 HD
ATOM     71  H   UNL     1     150.692 166.657 192.720  0.00  0.00    +0.023 HD
ATOM     72  H   UNL     1     150.057 168.223 193.262  0.00  0.00    +0.023 HD
ENDBRANCH  67  69
BRANCH  67  73
ATOM     73  C   UNL     1     151.415 169.786 191.307  0.00  0.00    -0.046 C 
ATOM     74  H   UNL     1     152.455 169.853 191.656  0.00  0.00    +0.027 HD
ATOM     75  H   UNL     1     151.419 170.165 190.277  0.00  0.00    +0.027 HD
BRANCH  73  76
ATOM     76  C   UNL     1     150.596 170.760 192.163  0.00  0.00    -0.026 C 
ATOM     77  H   UNL     1     150.340 170.323 193.135  0.00  0.00    +0.029 HD
ATOM     78  H   UNL     1     151.270 171.589 192.425  0.00  0.00    +0.029 HD
BRANCH  76  83
ATOM     79  C   UNL     1     147.828 172.487 193.061  0.00  0.00    +0.059 C 
ATOM     80  C   UNL     1     146.671 172.385 192.073  0.00  0.00    -0.000 C 
ATOM     81  C   UNL     1     146.834 171.178 191.141  0.00  0.00    +0.063 C 
ATOM     82  C   UNL     1     148.160 170.446 191.360  0.00  0.00    -0.000 C 
ATOM     83  C   UNL     1     149.347 171.399 191.525  0.00  0.00    +0.061 C 
ATOM     84  O   UNL     1     149.049 172.555 192.330  0.00  0.00    -0.373 OA
ATOM     85  H   UNL     1     147.852 171.623 193.736  0.00  0.00    +0.059 HD
ATOM     86  H   UNL     1     145.721 172.306 192.613  0.00  0.00    +0.032 HD
ATOM     87  H   UNL     1     146.621 173.306 191.478  0.00  0.00    +0.032 HD
ATOM     88  H   UNL     1     146.025 170.458 191.320  0.00  0.00    +0.060 HD
ATOM     89  H   UNL     1     148.061 169.827 192.258  0.00  0.00    +0.032 HD
ATOM     90  H   UNL     1     148.344 169.776 190.516  0.00  0.00    +0.032 HD
ATOM     91  H   UNL     1     149.625 171.788 190.538  0.00  0.00    +0.060 HD
BRANCH  79  92
ATOM     92  C   UNL     1     147.717 173.748 193.908  0.00  0.00    -0.039 C 
ATOM     93  H   UNL     1     148.462 174.492 193.615  0.00  0.00    +0.025 HD
ATOM     94  H   UNL     1     146.722 174.188 193.804  0.00  0.00    +0.025 HD
ATOM     95  H   UNL     1     147.849 173.518 194.973  0.00  0.00    +0.025 HD
ENDBRANCH  79  92
BRANCH  81  96
ATOM     96  O   UNL     1     146.770 171.591 189.769  0.00  0.00    -0.380 OA
BRANCH  96  97
ATOM     97  C   UNL     1     146.291 172.922 189.610  0.00  0.00    +0.037 C 
ATOM     98  H   UNL     1     145.640 173.188 190.450  0.00  0.00    +0.052 HD
ATOM     99  H   UNL     1     145.707 172.970 188.687  0.00  0.00    +0.052 HD
ATOM    100  H   UNL     1     147.117 173.639 189.535  0.00  0.00    +0.052 HD
ENDBRANCH  96  97
ENDBRANCH  81  96
ENDBRANCH  76  83
ENDBRANCH  73  76
ENDBRANCH  67  73
ENDBRANCH  65  67
BRANCH  65 101
ATOM    101  O   UNL     1     152.392 168.222 189.307  0.00  0.00    -0.391 OA
ATOM    102  H   UNL     1     152.698 169.097 189.624  0.00  0.00    +0.210 HD
ENDBRANCH  65 101
ENDBRANCH  59  65
ENDBRANCH   1  59
BRANCH  19 103
ATOM    103  O   UNL     1     157.213 158.855 190.585  0.00  0.00    -0.385 OA
ATOM    104  H   UNL     1     156.420 159.263 190.978  0.00  0.00    +0.210 HD
ENDBRANCH  19 103
BRANCH  18 105
ATOM    105  O   UNL     1     157.489 159.168 186.924  0.00  0.00    -0.377 OA
BRANCH 105 106
ATOM    106  C   UNL     1     157.869 158.361 185.818  0.00  0.00    +0.037 C 
ATOM    107  H   UNL     1     158.695 157.686 186.066  0.00  0.00    +0.052 HD
ATOM    108  H   UNL     1     157.006 157.758 185.523  0.00  0.00    +0.052 HD
ATOM    109  H   UNL     1     158.149 158.999 184.973  0.00  0.00    +0.052 HD
ENDBRANCH 105 106
ENDBRANCH  18 105
BRANCH   9 110
ATOM    110  O   UNL     1     150.730 160.126 186.911  0.00  0.00    -0.377 OA
BRANCH 110 111
ATOM    111  C   UNL     1     149.726 159.450 186.164  0.00  0.00    +0.037 C 
ATOM    112  H   UNL     1     150.140 159.076 185.224  0.00  0.00    +0.052 HD
ATOM    113  H   UNL     1     148.933 160.164 185.931  0.00  0.00    +0.052 HD
ATOM    114  H   UNL     1     149.293 158.624 186.738  0.00  0.00    +0.052 HD
ENDBRANCH 110 111
ENDBRANCH   9 110
BRANCH   5 115
ATOM    115  O   UNL     1     149.073 162.171 190.165  0.00  0.00    -0.377 OA
BRANCH 115 116
ATOM    116  C   UNL     1     147.666 162.123 189.966  0.00  0.00    +0.037 C 
ATOM    117  H   UNL     1     147.212 161.370 190.616  0.00  0.00    +0.052 HD
ATOM    118  H   UNL     1     147.207 163.097 190.152  0.00  0.00    +0.052 HD
ATOM    119  H   UNL     1     147.477 161.841 188.927  0.00  0.00    +0.052 HD
ENDBRANCH 115 116
ENDBRANCH   5 115
BRANCH   3 120
ATOM    120  O   UNL     1     149.348 164.601 188.715  0.00  0.00    -0.379 OA
BRANCH 120 121
ATOM    121  C   UNL     1     148.511 165.431 187.920  0.00  0.00    +0.037 C 
ATOM    122  H   UNL     1     149.102 166.285 187.580  0.00  0.00    +0.052 HD
ATOM    123  H   UNL     1     147.672 165.805 188.512  0.00  0.00    +0.052 HD
ATOM    124  H   UNL     1     148.142 164.894 187.042  0.00  0.00    +0.052 HD
ENDBRANCH 120 121
ENDBRANCH   3 120
TORSDOF 23
ENDMDL
MODEL 3
REMARK VINA RESULT:      -5.6     19.265     23.531
REMARK  Name = Lobophorolide_conf3
REMARK  23 active torsions:
REMARK  status: ('A' for Active; 'I' for Inactive)
REMARK    1  A    between atoms: C_1  and  C_2
REMARK    2  A    between atoms: C_4  and  O_53
REMARK    3  A    between atoms: C_6  and  C_8
REMARK    4  A    between atoms: C_8  and  C_9
REMARK    5  A    between atoms: C_9  and  C_10
REMARK    6  A    between atoms: C_10  and  C_11
REMARK    7  A    between atoms: C_10  and  C_12
REMARK    8  A    between atoms: C_12  and  C_13
REMARK    9  A    between atoms: C_12  and  O_52
REMARK   10  A    between atoms: C_13  and  C_14
REMARK   11  A    between atoms: C_13  and  C_15
REMARK   12  A    between atoms: C_16  and  C_51
REMARK   13  A    between atoms: C_17  and  O_49
REMARK   14  A    between atoms: C_19  and  O_47
REMARK   15  A    between atoms: C_23  and  O_45
REMARK   16  A    between atoms: C_32  and  O_43
REMARK   17  A    between atoms: C_33  and  O_42
REMARK   18  A    between atoms: C_35  and  C_41
REMARK   19  A    between atoms: O_43  and  C_44
REMARK   20  A    between atoms: O_45  and  C_46
REMARK   21  A    between atoms: O_47  and  C_48
REMARK   22  A    between atoms: O_49  and  C_50
REMARK   23  A    between atoms: O_53  and  C_54
REMARK                            x       y       z     vdW  Elec       q    Type
REMARK                         _______ _______ _______ _____ _____    ______ ____
ROOT
ATOM      1  C   UNL     1     134.403 156.160 198.884  0.00  0.00    +0.113 C 
ATOM      2  C   UNL     1     132.870 155.905 198.705  0.00  0.00    +0.020 C 
ATOM      3  C   UNL     1     132.233 156.211 197.319  0.00  0.00    +0.067 C 
ATOM      4  C   UNL     1     132.472 157.642 196.783  0.00  0.00    +0.003 C 
ATOM      5  C   UNL     1     131.722 157.890 195.453  0.00  0.00    +0.094 C 
ATOM      6  C   UNL     1     131.517 159.384 195.181  0.00  0.00    +0.145 C 
ATOM      7  C   UNL     1     132.582 160.140 194.393  0.00  0.00    +0.083 C 
ATOM      8  O   UNL     1     131.372 159.702 193.772  0.00  0.00    -0.363 OA
ATOM      9  C   UNL     1     130.483 160.152 196.012  0.00  0.00    +0.094 C 
ATOM     10  C   UNL     1     131.140 161.185 196.941  0.00  0.00    +0.003 C 
ATOM     11  C   UNL     1     130.158 161.942 197.862  0.00  0.00    +0.065 C 
ATOM     12  C   UNL     1     129.012 162.696 197.167  0.00  0.00    -0.008 C 
ATOM     13  C   UNL     1     129.495 163.954 196.517  0.00  0.00    -0.083 C 
ATOM     14  C   UNL     1     130.637 164.528 196.925  0.00  0.00    -0.059 C 
ATOM     15  C   UNL     1     131.493 163.969 198.045  0.00  0.00    +0.080 C 
ATOM     16  O   UNL     1     130.860 162.868 198.714  0.00  0.00    -0.369 OA
ATOM     17  C   UNL     1     131.792 165.076 199.067  0.00  0.00    +0.006 C 
ATOM     18  C   UNL     1     132.718 164.712 200.251  0.00  0.00    +0.090 C 
ATOM     19  C   UNL     1     134.083 164.068 199.863  0.00  0.00    +0.100 C 
ATOM     20  C   UNL     1     134.081 162.571 199.671  0.00  0.00    -0.051 C 
ATOM     21  C   UNL     1     135.099 161.721 199.921  0.00  0.00    -0.052 C 
ATOM     22  C   UNL     1     134.864 160.285 199.790  0.00  0.00    -0.052 C 
ATOM     23  C   UNL     1     135.678 159.331 200.262  0.00  0.00    +0.023 C 
ATOM     24  C   UNL     1     135.412 157.887 200.173  0.00  0.00    +0.332 C 
ATOM     25  O   UNL     1     135.932 157.099 200.949  0.00  0.00    -0.246 OA
ATOM     26  O   UNL     1     134.618 157.576 199.113  0.00  0.00    -0.458 OA
ATOM     27  H   UNL     1     134.665 155.609 199.793  0.00  0.00    +0.074 HD
ATOM     28  H   UNL     1     132.737 154.828 198.875  0.00  0.00    +0.036 HD
ATOM     29  H   UNL     1     131.145 156.096 197.418  0.00  0.00    +0.060 HD
ATOM     30  H   UNL     1     133.541 157.813 196.610  0.00  0.00    +0.032 HD
ATOM     31  H   UNL     1     132.142 158.359 197.540  0.00  0.00    +0.032 HD
ATOM     32  H   UNL     1     130.746 157.392 195.489  0.00  0.00    +0.063 HD
ATOM     33  H   UNL     1     132.711 161.206 194.518  0.00  0.00    +0.059 HD
ATOM     34  H   UNL     1     133.500 159.625 194.132  0.00  0.00    +0.059 HD
ATOM     35  H   UNL     1     129.815 160.688 195.324  0.00  0.00    +0.063 HD
ATOM     36  H   UNL     1     131.715 161.896 196.341  0.00  0.00    +0.032 HD
ATOM     37  H   UNL     1     131.880 160.688 197.581  0.00  0.00    +0.032 HD
ATOM     38  H   UNL     1     129.705 161.207 198.539  0.00  0.00    +0.060 HD
ATOM     39  H   UNL     1     128.272 162.989 197.921  0.00  0.00    +0.033 HD
ATOM     40  H   UNL     1     128.492 162.064 196.444  0.00  0.00    +0.033 HD
ATOM     41  H   UNL     1     128.900 164.403 195.727  0.00  0.00    +0.057 HD
ATOM     42  H   UNL     1     130.991 165.429 196.430  0.00  0.00    +0.059 HD
ATOM     43  H   UNL     1     132.429 163.620 197.599  0.00  0.00    +0.064 HD
ATOM     44  H   UNL     1     132.243 165.929 198.541  0.00  0.00    +0.032 HD
ATOM     45  H   UNL     1     130.837 165.429 199.473  0.00  0.00    +0.032 HD
ATOM     46  H   UNL     1     132.975 165.673 200.723  0.00  0.00    +0.063 HD
ATOM     47  H   UNL     1     134.764 164.301 200.690  0.00  0.00    +0.066 HD
ATOM     48  H   UNL     1     133.115 162.152 199.409  0.00  0.00    +0.060 HD
ATOM     49  H   UNL     1     133.930 159.991 199.315  0.00  0.00    +0.062 HD
ATOM     50  H   UNL     1     136.582 159.561 200.810  0.00  0.00    +0.069 HD
ENDROOT
BRANCH  21  51
ATOM     51  C   UNL     1     136.476 162.179 200.330  0.00  0.00    -0.040 C 
ATOM     52  H   UNL     1     136.890 161.602 201.164  0.00  0.00    +0.028 HD
ATOM     53  H   UNL     1     137.174 162.089 199.488  0.00  0.00    +0.028 HD
ATOM     54  H   UNL     1     136.464 163.223 200.666  0.00  0.00    +0.028 HD
ENDBRANCH  21  51
BRANCH   2  55
ATOM     55  C   UNL     1     132.073 156.606 199.818  0.00  0.00    -0.057 C 
ATOM     56  H   UNL     1     132.075 155.999 200.732  0.00  0.00    +0.023 HD
ATOM     57  H   UNL     1     132.484 157.588 200.068  0.00  0.00    +0.023 HD
ATOM     58  H   UNL     1     131.029 156.744 199.517  0.00  0.00    +0.023 HD
ENDBRANCH   2  55
BRANCH   1  59
ATOM     59  C   UNL     1     135.332 155.668 197.736  0.00  0.00    +0.020 C 
ATOM     60  H   UNL     1     134.678 155.242 196.968  0.00  0.00    +0.036 HD
BRANCH  59  61
ATOM     61  C   UNL     1     136.032 156.804 196.972  0.00  0.00    -0.057 C 
ATOM     62  H   UNL     1     136.312 157.616 197.653  0.00  0.00    +0.023 HD
ATOM     63  H   UNL     1     136.961 156.449 196.511  0.00  0.00    +0.023 HD
ATOM     64  H   UNL     1     135.404 157.221 196.181  0.00  0.00    +0.023 HD
ENDBRANCH  59  61
BRANCH  59  65
ATOM     65  C   UNL     1     136.332 154.557 198.175  0.00  0.00    +0.064 C 
ATOM     66  H   UNL     1     136.940 154.235 197.324  0.00  0.00    +0.060 HD
BRANCH  65  67
ATOM     67  C   UNL     1     135.757 153.274 198.859  0.00  0.00    -0.017 C 
ATOM     68  H   UNL     1     134.687 153.428 199.007  0.00  0.00    +0.032 HD
BRANCH  67  69
ATOM     69  C   UNL     1     135.957 152.033 197.988  0.00  0.00    -0.060 C 
ATOM     70  H   UNL     1     135.028 151.718 197.504  0.00  0.00    +0.023 HD
ATOM     71  H   UNL     1     136.333 151.191 198.578  0.00  0.00    +0.023 HD
ATOM     72  H   UNL     1     136.654 152.222 197.170  0.00  0.00    +0.023 HD
ENDBRANCH  67  69
BRANCH  67  73
ATOM     73  C   UNL     1     136.388 153.095 200.268  0.00  0.00    -0.046 C 
ATOM     74  H   UNL     1     137.461 152.906 200.124  0.00  0.00    +0.027 HD
ATOM     75  H   UNL     1     136.320 154.039 200.824  0.00  0.00    +0.027 HD
BRANCH  73  76
ATOM     76  C   UNL     1     135.859 151.977 201.175  0.00  0.00    -0.026 C 
ATOM     77  H   UNL     1     135.918 150.999 200.684  0.00  0.00    +0.029 HD
ATOM     78  H   UNL     1     136.572 151.887 202.009  0.00  0.00    +0.029 HD
BRANCH  76  83
ATOM     79  C   UNL     1     132.617 152.302 200.261  0.00  0.00    +0.059 C 
ATOM     80  C   UNL     1     131.738 153.008 201.288  0.00  0.00    -0.000 C 
ATOM     81  C   UNL     1     132.579 153.816 202.284  0.00  0.00    +0.063 C 
ATOM     82  C   UNL     1     134.082 153.627 202.068  0.00  0.00    -0.000 C 
ATOM     83  C   UNL     1     134.468 152.167 201.811  0.00  0.00    +0.061 C 
ATOM     84  O   UNL     1     133.549 151.471 200.949  0.00  0.00    -0.373 OA
ATOM     85  H   UNL     1     133.159 153.023 199.637  0.00  0.00    +0.059 HD
ATOM     86  H   UNL     1     131.029 153.672 200.782  0.00  0.00    +0.032 HD
ATOM     87  H   UNL     1     131.142 152.261 201.829  0.00  0.00    +0.032 HD
ATOM     88  H   UNL     1     132.361 154.886 202.172  0.00  0.00    +0.060 HD
ATOM     89  H   UNL     1     134.381 154.240 201.212  0.00  0.00    +0.032 HD
ATOM     90  H   UNL     1     134.620 153.999 202.944  0.00  0.00    +0.032 HD
ATOM     91  H   UNL     1     134.448 151.625 202.765  0.00  0.00    +0.060 HD
BRANCH  79  92
ATOM     92  C   UNL     1     131.785 151.413 199.345  0.00  0.00    -0.039 C 
ATOM     93  H   UNL     1     130.780 151.818 199.201  0.00  0.00    +0.025 HD
ATOM     94  H   UNL     1     132.267 151.317 198.370  0.00  0.00    +0.025 HD
ATOM     95  H   UNL     1     131.700 150.399 199.755  0.00  0.00    +0.025 HD
ENDBRANCH  79  92
BRANCH  81  96
ATOM     96  O   UNL     1     132.266 153.433 203.630  0.00  0.00    -0.380 OA
BRANCH  96  97
ATOM     97  C   UNL     1     131.192 152.503 203.710  0.00  0.00    +0.037 C 
ATOM     98  H   UNL     1     131.467 151.669 204.366  0.00  0.00    +0.052 HD
ATOM     99  H   UNL     1     131.001 152.110 202.708  0.00  0.00    +0.052 HD
ATOM    100  H   UNL     1     130.276 152.979 204.076  0.00  0.00    +0.052 HD
ENDBRANCH  96  97
ENDBRANCH  81  96
ENDBRANCH  76  83
ENDBRANCH  73  76
ENDBRANCH  67  73
ENDBRANCH  65  67
BRANCH  65 101
ATOM    101  O   UNL     1     137.245 155.172 199.099  0.00  0.00    -0.391 OA
ATOM    102  H   UNL     1     137.051 154.782 199.977  0.00  0.00    +0.210 HD
ENDBRANCH  65 101
ENDBRANCH  59  65
ENDBRANCH   1  59
BRANCH  19 103
ATOM    103  O   UNL     1     134.611 164.691 198.693  0.00  0.00    -0.385 OA
ATOM    104  H   UNL     1     134.169 165.554 198.598  0.00  0.00    +0.210 HD
ENDBRANCH  19 103
BRANCH  18 105
ATOM    105  O   UNL     1     132.064 163.896 201.233  0.00  0.00    -0.377 OA
BRANCH 105 106
ATOM    106  C   UNL     1     130.901 164.493 201.790  0.00  0.00    +0.037 C 
ATOM    107  H   UNL     1     130.490 165.276 201.143  0.00  0.00    +0.052 HD
ATOM    108  H   UNL     1     130.143 163.714 201.914  0.00  0.00    +0.052 HD
ATOM    109  H   UNL     1     131.133 164.908 202.776  0.00  0.00    +0.052 HD
ENDBRANCH 105 106
ENDBRANCH  18 105
BRANCH   9 110
ATOM    110  O   UNL     1     129.710 159.250 196.819  0.00  0.00    -0.377 OA
BRANCH 110 111
ATOM    111  C   UNL     1     128.389 159.068 196.321  0.00  0.00    +0.037 C 
ATOM    112  H   UNL     1     127.839 160.012 196.354  0.00  0.00    +0.052 HD
ATOM    113  H   UNL     1     127.878 158.348 196.964  0.00  0.00    +0.052 HD
ATOM    114  H   UNL     1     128.402 158.675 195.299  0.00  0.00    +0.052 HD
ENDBRANCH 110 111
ENDBRANCH   9 110
BRANCH   5 115
ATOM    115  O   UNL     1     132.517 157.298 194.405  0.00  0.00    -0.377 OA
BRANCH 115 116
ATOM    116  C   UNL     1     131.755 156.497 193.511  0.00  0.00    +0.037 C 
ATOM    117  H   UNL     1     131.280 155.671 194.047  0.00  0.00    +0.052 HD
ATOM    118  H   UNL     1     130.993 157.091 192.999  0.00  0.00    +0.052 HD
ATOM    119  H   UNL     1     132.433 156.079 192.763  0.00  0.00    +0.052 HD
ENDBRANCH 115 116
ENDBRANCH   5 115
BRANCH   3 120
ATOM    120  O   UNL     1     132.697 155.243 196.361  0.00  0.00    -0.379 OA
BRANCH 120 121
ATOM    121  C   UNL     1     132.194 153.934 196.596  0.00  0.00    +0.037 C 
ATOM    122  H   UNL     1     132.968 153.358 197.110  0.00  0.00    +0.052 HD
ATOM    123  H   UNL     1     131.967 153.438 195.649  0.00  0.00    +0.052 HD
ATOM    124  H   UNL     1     131.304 153.961 197.230  0.00  0.00    +0.052 HD
ENDBRANCH 120 121
ENDBRANCH   3 120
TORSDOF 23
ENDMDL
MODEL 4
REMARK VINA RESULT:      -5.6      3.903      8.266
REMARK  Name = Lobophorolide_conf3
REMARK  23 active torsions:
REMARK  status: ('A' for Active; 'I' for Inactive)
REMARK    1  A    between atoms: C_1  and  C_2
REMARK    2  A    between atoms: C_4  and  O_53
REMARK    3  A    between atoms: C_6  and  C_8
REMARK    4  A    between atoms: C_8  and  C_9
REMARK    5  A    between atoms: C_9  and  C_10
REMARK    6  A    between atoms: C_10  and  C_11
REMARK    7  A    between atoms: C_10  and  C_12
REMARK    8  A    between atoms: C_12  and  C_13
REMARK    9  A    between atoms: C_12  and  O_52
REMARK   10  A    between atoms: C_13  and  C_14
REMARK   11  A    between atoms: C_13  and  C_15
REMARK   12  A    between atoms: C_16  and  C_51
REMARK   13  A    between atoms: C_17  and  O_49
REMARK   14  A    between atoms: C_19  and  O_47
REMARK   15  A    between atoms: C_23  and  O_45
REMARK   16  A    between atoms: C_32  and  O_43
REMARK   17  A    between atoms: C_33  and  O_42
REMARK   18  A    between atoms: C_35  and  C_41
REMARK   19  A    between atoms: O_43  and  C_44
REMARK   20  A    between atoms: O_45  and  C_46
REMARK   21  A    between atoms: O_47  and  C_48
REMARK   22  A    between atoms: O_49  and  C_50
REMARK   23  A    between atoms: O_53  and  C_54
REMARK                            x       y       z     vdW  Elec       q    Type
REMARK                         _______ _______ _______ _____ _____    ______ ____
ROOT
ATOM      1  C   UNL     1     148.868 166.915 191.974  0.00  0.00    +0.113 C 
ATOM      2  C   UNL     1     149.977 165.966 192.534  0.00  0.00    +0.020 C 
ATOM      3  C   UNL     1     151.145 165.563 191.589  0.00  0.00    +0.067 C 
ATOM      4  C   UNL     1     150.717 164.935 190.242  0.00  0.00    +0.003 C 
ATOM      5  C   UNL     1     151.937 164.474 189.410  0.00  0.00    +0.094 C 
ATOM      6  C   UNL     1     151.552 163.423 188.363  0.00  0.00    +0.145 C 
ATOM      7  C   UNL     1     151.138 163.891 186.971  0.00  0.00    +0.083 C 
ATOM      8  O   UNL     1     152.450 163.385 187.223  0.00  0.00    -0.363 OA
ATOM      9  C   UNL     1     151.218 162.002 188.829  0.00  0.00    +0.094 C 
ATOM     10  C   UNL     1     149.735 161.657 188.616  0.00  0.00    +0.003 C 
ATOM     11  C   UNL     1     149.315 160.264 189.134  0.00  0.00    +0.065 C 
ATOM     12  C   UNL     1     150.093 159.063 188.573  0.00  0.00    -0.008 C 
ATOM     13  C   UNL     1     149.685 158.749 187.168  0.00  0.00    -0.083 C 
ATOM     14  C   UNL     1     148.494 159.159 186.706  0.00  0.00    -0.059 C 
ATOM     15  C   UNL     1     147.500 159.938 187.545  0.00  0.00    +0.080 C 
ATOM     16  O   UNL     1     147.909 160.036 188.918  0.00  0.00    -0.369 OA
ATOM     17  C   UNL     1     146.124 159.261 187.476  0.00  0.00    +0.006 C 
ATOM     18  C   UNL     1     144.957 159.956 188.215  0.00  0.00    +0.090 C 
ATOM     19  C   UNL     1     144.744 161.460 187.870  0.00  0.00    +0.100 C 
ATOM     20  C   UNL     1     145.564 162.448 188.664  0.00  0.00    -0.051 C 
ATOM     21  C   UNL     1     145.207 163.701 189.016  0.00  0.00    -0.052 C 
ATOM     22  C   UNL     1     146.091 164.463 189.895  0.00  0.00    -0.052 C 
ATOM     23  C   UNL     1     145.745 165.587 190.538  0.00  0.00    +0.023 C 
ATOM     24  C   UNL     1     146.621 166.323 191.463  0.00  0.00    +0.332 C 
ATOM     25  O   UNL     1     146.159 167.062 192.318  0.00  0.00    -0.246 OA
ATOM     26  O   UNL     1     147.938 166.131 191.183  0.00  0.00    -0.458 OA
ATOM     27  H   UNL     1     148.352 167.286 192.865  0.00  0.00    +0.074 HD
ATOM     28  H   UNL     1     150.432 166.518 193.369  0.00  0.00    +0.036 HD
ATOM     29  H   UNL     1     151.747 164.803 192.106  0.00  0.00    +0.060 HD
ATOM     30  H   UNL     1     150.151 165.659 189.645  0.00  0.00    +0.032 HD
ATOM     31  H   UNL     1     150.057 164.086 190.444  0.00  0.00    +0.032 HD
ATOM     32  H   UNL     1     152.695 164.054 190.081  0.00  0.00    +0.063 HD
ATOM     33  H   UNL     1     150.489 163.285 186.353  0.00  0.00    +0.059 HD
ATOM     34  H   UNL     1     151.033 164.955 186.789  0.00  0.00    +0.059 HD
ATOM     35  H   UNL     1     151.820 161.295 188.242  0.00  0.00    +0.063 HD
ATOM     36  H   UNL     1     149.492 161.750 187.554  0.00  0.00    +0.032 HD
ATOM     37  H   UNL     1     149.107 162.402 189.120  0.00  0.00    +0.032 HD
ATOM     38  H   UNL     1     149.448 160.262 190.223  0.00  0.00    +0.060 HD
ATOM     39  H   UNL     1     149.863 158.177 189.178  0.00  0.00    +0.033 HD
ATOM     40  H   UNL     1     151.173 159.215 188.635  0.00  0.00    +0.033 HD
ATOM     41  H   UNL     1     150.355 158.171 186.539  0.00  0.00    +0.057 HD
ATOM     42  H   UNL     1     148.217 158.947 185.676  0.00  0.00    +0.059 HD
ATOM     43  H   UNL     1     147.435 160.946 187.125  0.00  0.00    +0.064 HD
ATOM     44  H   UNL     1     145.835 159.158 186.421  0.00  0.00    +0.032 HD
ATOM     45  H   UNL     1     146.226 158.244 187.873  0.00  0.00    +0.032 HD
ATOM     46  H   UNL     1     144.047 159.446 187.864  0.00  0.00    +0.063 HD
ATOM     47  H   UNL     1     143.686 161.662 188.074  0.00  0.00    +0.066 HD
ATOM     48  H   UNL     1     146.484 162.042 189.073  0.00  0.00    +0.060 HD
ATOM     49  H   UNL     1     147.080 164.043 190.065  0.00  0.00    +0.062 HD
ATOM     50  H   UNL     1     144.752 166.011 190.469  0.00  0.00    +0.069 HD
ENDROOT
BRANCH  21  51
ATOM     51  C   UNL     1     143.935 164.360 188.544  0.00  0.00    -0.040 C 
ATOM     52  H   UNL     1     143.585 165.147 189.220  0.00  0.00    +0.028 HD
ATOM     53  H   UNL     1     144.085 164.815 187.558  0.00  0.00    +0.028 HD
ATOM     54  H   UNL     1     143.115 163.636 188.476  0.00  0.00    +0.028 HD
ENDBRANCH  21  51
BRANCH   2  55
ATOM     55  C   UNL     1     149.347 164.710 193.160  0.00  0.00    -0.057 C 
ATOM     56  H   UNL     1     148.768 164.974 194.053  0.00  0.00    +0.023 HD
ATOM     57  H   UNL     1     148.677 164.193 192.467  0.00  0.00    +0.023 HD
ATOM     58  H   UNL     1     150.123 164.001 193.469  0.00  0.00    +0.023 HD
ENDBRANCH   2  55
BRANCH   1  59
ATOM     59  C   UNL     1     149.351 168.144 191.149  0.00  0.00    +0.020 C 
ATOM     60  H   UNL     1     150.445 168.120 191.169  0.00  0.00    +0.036 HD
BRANCH  59  61
ATOM     61  C   UNL     1     149.051 168.041 189.645  0.00  0.00    -0.057 C 
ATOM     62  H   UNL     1     149.176 167.011 189.292  0.00  0.00    +0.023 HD
ATOM     63  H   UNL     1     148.011 168.317 189.435  0.00  0.00    +0.023 HD
ATOM     64  H   UNL     1     149.696 168.689 189.047  0.00  0.00    +0.023 HD
ENDBRANCH  59  61
BRANCH  59  65
ATOM     65  C   UNL     1     148.898 169.510 191.742  0.00  0.00    +0.064 C 
ATOM     66  H   UNL     1     148.341 170.085 190.996  0.00  0.00    +0.060 HD
BRANCH  65  67
ATOM     67  C   UNL     1     149.990 170.452 192.346  0.00  0.00    -0.017 C 
ATOM     68  H   UNL     1     150.175 170.131 193.373  0.00  0.00    +0.032 HD
BRANCH  67  69
ATOM     69  C   UNL     1     151.303 170.367 191.564  0.00  0.00    -0.060 C 
ATOM     70  H   UNL     1     152.103 170.937 192.044  0.00  0.00    +0.023 HD
ATOM     71  H   UNL     1     151.182 170.747 190.545  0.00  0.00    +0.023 HD
ATOM     72  H   UNL     1     151.675 169.343 191.511  0.00  0.00    +0.023 HD
ENDBRANCH  67  69
BRANCH  67  73
ATOM     73  C   UNL     1     149.457 171.910 192.416  0.00  0.00    -0.046 C 
ATOM     74  H   UNL     1     148.948 172.026 193.383  0.00  0.00    +0.027 HD
ATOM     75  H   UNL     1     150.302 172.610 192.436  0.00  0.00    +0.027 HD
BRANCH  73  76
ATOM     76  C   UNL     1     148.476 172.388 191.338  0.00  0.00    -0.026 C 
ATOM     77  H   UNL     1     148.840 173.291 190.835  0.00  0.00    +0.029 HD
ATOM     78  H   UNL     1     148.490 171.628 190.542  0.00  0.00    +0.029 HD
BRANCH  76  83
ATOM     79  C   UNL     1     145.411 171.198 190.534  0.00  0.00    +0.059 C 
ATOM     80  C   UNL     1     144.258 172.133 190.882  0.00  0.00    -0.000 C 
ATOM     81  C   UNL     1     144.747 173.572 191.087  0.00  0.00    +0.063 C 
ATOM     82  C   UNL     1     146.270 173.691 191.000  0.00  0.00    -0.000 C 
ATOM     83  C   UNL     1     146.999 172.566 191.741  0.00  0.00    +0.061 C 
ATOM     84  O   UNL     1     146.390 171.273 191.568  0.00  0.00    -0.373 OA
ATOM     85  H   UNL     1     145.869 171.469 189.575  0.00  0.00    +0.059 HD
ATOM     86  H   UNL     1     143.504 172.110 190.089  0.00  0.00    +0.032 HD
ATOM     87  H   UNL     1     143.767 171.777 191.798  0.00  0.00    +0.032 HD
ATOM     88  H   UNL     1     144.319 174.223 190.314  0.00  0.00    +0.060 HD
ATOM     89  H   UNL     1     146.551 173.672 189.941  0.00  0.00    +0.032 HD
ATOM     90  H   UNL     1     146.579 174.658 191.406  0.00  0.00    +0.032 HD
ATOM     91  H   UNL     1     146.957 172.772 192.818  0.00  0.00    +0.060 HD
BRANCH  79  92
ATOM     92  C   UNL     1     144.937 169.753 190.443  0.00  0.00    -0.039 C 
ATOM     93  H   UNL     1     144.558 169.396 191.404  0.00  0.00    +0.025 HD
ATOM     94  H   UNL     1     144.144 169.661 189.697  0.00  0.00    +0.025 HD
ATOM     95  H   UNL     1     145.752 169.093 190.119  0.00  0.00    +0.025 HD
ENDBRANCH  79  92
BRANCH  81  96
ATOM     96  O   UNL     1     144.330 174.066 192.368  0.00  0.00    -0.380 OA
BRANCH  96  97
ATOM     97  C   UNL     1     143.083 174.750 192.323  0.00  0.00    +0.037 C 
ATOM     98  H   UNL     1     143.246 175.810 192.096  0.00  0.00    +0.052 HD
ATOM     99  H   UNL     1     142.612 174.673 193.307  0.00  0.00    +0.052 HD
ATOM    100  H   UNL     1     142.410 174.308 191.580  0.00  0.00    +0.052 HD
ENDBRANCH  96  97
ENDBRANCH  81  96
ENDBRANCH  76  83
ENDBRANCH  73  76
ENDBRANCH  67  73
ENDBRANCH  65  67
BRANCH  65 101
ATOM    101  O   UNL     1     147.957 169.210 192.786  0.00  0.00    -0.391 OA
ATOM    102  H   UNL     1     147.443 170.031 192.938  0.00  0.00    +0.210 HD
ENDBRANCH  65 101
ENDBRANCH  59  65
ENDBRANCH   1  59
BRANCH  19 103
ATOM    103  O   UNL     1     144.956 161.685 186.477  0.00  0.00    -0.385 OA
ATOM    104  H   UNL     1     144.618 160.905 186.002  0.00  0.00    +0.210 HD
ENDBRANCH  19 103
BRANCH  18 105
ATOM    105  O   UNL     1     145.033 159.796 189.639  0.00  0.00    -0.377 OA
BRANCH 105 106
ATOM    106  C   UNL     1     144.957 158.444 190.068  0.00  0.00    +0.037 C 
ATOM    107  H   UNL     1     144.182 158.296 190.828  0.00  0.00    +0.052 HD
ATOM    108  H   UNL     1     144.713 157.824 189.200  0.00  0.00    +0.052 HD
ATOM    109  H   UNL     1     145.929 158.123 190.459  0.00  0.00    +0.052 HD
ENDBRANCH 105 106
ENDBRANCH  18 105
BRANCH   9 110
ATOM    110  O   UNL     1     151.520 161.841 190.223  0.00  0.00    -0.377 OA
BRANCH 110 111
ATOM    111  C   UNL     1     152.670 161.032 190.443  0.00  0.00    +0.037 C 
ATOM    112  H   UNL     1     153.260 161.431 191.273  0.00  0.00    +0.052 HD
ATOM    113  H   UNL     1     153.284 161.057 189.539  0.00  0.00    +0.052 HD
ATOM    114  H   UNL     1     152.391 159.993 190.646  0.00  0.00    +0.052 HD
ENDBRANCH 110 111
ENDBRANCH   9 110
BRANCH   5 115
ATOM    115  O   UNL     1     152.474 165.646 188.764  0.00  0.00    -0.377 OA
BRANCH 115 116
ATOM    116  C   UNL     1     153.881 165.775 188.921  0.00  0.00    +0.037 C 
ATOM    117  H   UNL     1     154.114 166.508 189.699  0.00  0.00    +0.052 HD
ATOM    118  H   UNL     1     154.341 164.815 189.169  0.00  0.00    +0.052 HD
ATOM    119  H   UNL     1     154.299 166.130 187.976  0.00  0.00    +0.052 HD
ENDBRANCH 115 116
ENDBRANCH   5 115
BRANCH   3 120
ATOM    120  O   UNL     1     151.980 166.709 191.354  0.00  0.00    -0.379 OA
BRANCH 120 121
ATOM    121  C   UNL     1     152.591 167.211 192.536  0.00  0.00    +0.037 C 
ATOM    122  H   UNL     1     152.439 166.481 193.335  0.00  0.00    +0.052 HD
ATOM    123  H   UNL     1     152.124 168.153 192.836  0.00  0.00    +0.052 HD
ATOM    124  H   UNL     1     153.666 167.353 192.396  0.00  0.00    +0.052 HD
ENDBRANCH 120 121
ENDBRANCH   3 120
TORSDOF 23
ENDMDL
MODEL 5
REMARK VINA RESULT:      -5.6     16.874     22.816
REMARK  Name = Lobophorolide_conf3
REMARK  23 active torsions:
REMARK  status: ('A' for Active; 'I' for Inactive)
REMARK    1  A    between atoms: C_1  and  C_2
REMARK    2  A    between atoms: C_4  and  O_53
REMARK    3  A    between atoms: C_6  and  C_8
REMARK    4  A    between atoms: C_8  and  C_9
REMARK    5  A    between atoms: C_9  and  C_10
REMARK    6  A    between atoms: C_10  and  C_11
REMARK    7  A    between atoms: C_10  and  C_12
REMARK    8  A    between atoms: C_12  and  C_13
REMARK    9  A    between atoms: C_12  and  O_52
REMARK   10  A    between atoms: C_13  and  C_14
REMARK   11  A    between atoms: C_13  and  C_15
REMARK   12  A    between atoms: C_16  and  C_51
REMARK   13  A    between atoms: C_17  and  O_49
REMARK   14  A    between atoms: C_19  and  O_47
REMARK   15  A    between atoms: C_23  and  O_45
REMARK   16  A    between atoms: C_32  and  O_43
REMARK   17  A    between atoms: C_33  and  O_42
REMARK   18  A    between atoms: C_35  and  C_41
REMARK   19  A    between atoms: O_43  and  C_44
REMARK   20  A    between atoms: O_45  and  C_46
REMARK   21  A    between atoms: O_47  and  C_48
REMARK   22  A    between atoms: O_49  and  C_50
REMARK   23  A    between atoms: O_53  and  C_54
REMARK                            x       y       z     vdW  Elec       q    Type
REMARK                         _______ _______ _______ _____ _____    ______ ____
ROOT
ATOM      1  C   UNL     1     134.317 156.064 199.057  0.00  0.00    +0.113 C 
ATOM      2  C   UNL     1     132.784 155.815 198.874  0.00  0.00    +0.020 C 
ATOM      3  C   UNL     1     132.159 156.081 197.475  0.00  0.00    +0.067 C 
ATOM      4  C   UNL     1     132.412 157.493 196.897  0.00  0.00    +0.003 C 
ATOM      5  C   UNL     1     131.673 157.705 195.554  0.00  0.00    +0.094 C 
ATOM      6  C   UNL     1     131.480 159.191 195.234  0.00  0.00    +0.145 C 
ATOM      7  C   UNL     1     132.556 159.915 194.432  0.00  0.00    +0.083 C 
ATOM      8  O   UNL     1     131.348 159.466 193.816  0.00  0.00    -0.363 OA
ATOM      9  C   UNL     1     130.446 159.991 196.034  0.00  0.00    +0.094 C 
ATOM     10  C   UNL     1     131.104 161.049 196.936  0.00  0.00    +0.003 C 
ATOM     11  C   UNL     1     130.120 161.841 197.825  0.00  0.00    +0.065 C 
ATOM     12  C   UNL     1     128.985 162.580 197.099  0.00  0.00    -0.008 C 
ATOM     13  C   UNL     1     129.481 163.815 196.413  0.00  0.00    -0.083 C 
ATOM     14  C   UNL     1     130.623 164.393 196.812  0.00  0.00    -0.059 C 
ATOM     15  C   UNL     1     131.468 163.863 197.955  0.00  0.00    +0.080 C 
ATOM     16  O   UNL     1     130.822 162.788 198.653  0.00  0.00    -0.369 OA
ATOM     17  C   UNL     1     131.767 164.999 198.944  0.00  0.00    +0.006 C 
ATOM     18  C   UNL     1     132.682 164.666 200.146  0.00  0.00    +0.090 C 
ATOM     19  C   UNL     1     134.045 164.001 199.788  0.00  0.00    +0.100 C 
ATOM     20  C   UNL     1     134.035 162.499 199.642  0.00  0.00    -0.051 C 
ATOM     21  C   UNL     1     135.045 161.650 199.926  0.00  0.00    -0.052 C 
ATOM     22  C   UNL     1     134.800 160.213 199.838  0.00  0.00    -0.052 C 
ATOM     23  C   UNL     1     135.604 159.268 200.345  0.00  0.00    +0.023 C 
ATOM     24  C   UNL     1     135.329 157.823 200.299  0.00  0.00    +0.332 C 
ATOM     25  O   UNL     1     135.838 157.057 201.103  0.00  0.00    -0.246 OA
ATOM     26  O   UNL     1     134.540 157.486 199.244  0.00  0.00    -0.458 OA
ATOM     27  H   UNL     1     134.569 155.540 199.984  0.00  0.00    +0.074 HD
ATOM     28  H   UNL     1     132.642 154.744 199.077  0.00  0.00    +0.036 HD
ATOM     29  H   UNL     1     131.069 155.977 197.570  0.00  0.00    +0.060 HD
ATOM     30  H   UNL     1     133.483 157.652 196.726  0.00  0.00    +0.032 HD
ATOM     31  H   UNL     1     132.081 158.236 197.629  0.00  0.00    +0.032 HD
ATOM     32  H   UNL     1     130.694 157.215 195.598  0.00  0.00    +0.063 HD
ATOM     33  H   UNL     1     132.691 160.984 194.524  0.00  0.00    +0.059 HD
ATOM     34  H   UNL     1     133.472 159.386 194.193  0.00  0.00    +0.059 HD
ATOM     35  H   UNL     1     129.786 160.511 195.324  0.00  0.00    +0.063 HD
ATOM     36  H   UNL     1     131.687 161.737 196.318  0.00  0.00    +0.032 HD
ATOM     37  H   UNL     1     131.835 160.567 197.596  0.00  0.00    +0.032 HD
ATOM     38  H   UNL     1     129.657 161.130 198.521  0.00  0.00    +0.060 HD
ATOM     39  H   UNL     1     128.241 162.902 197.838  0.00  0.00    +0.033 HD
ATOM     40  H   UNL     1     128.465 161.930 196.391  0.00  0.00    +0.033 HD
ATOM     41  H   UNL     1     128.895 164.243 195.606  0.00  0.00    +0.057 HD
ATOM     42  H   UNL     1     130.988 165.275 196.292  0.00  0.00    +0.059 HD
ATOM     43  H   UNL     1     132.404 163.494 197.527  0.00  0.00    +0.064 HD
ATOM     44  H   UNL     1     132.228 165.832 198.395  0.00  0.00    +0.032 HD
ATOM     45  H   UNL     1     130.812 165.371 199.333  0.00  0.00    +0.032 HD
ATOM     46  H   UNL     1     132.942 165.639 200.589  0.00  0.00    +0.063 HD
ATOM     47  H   UNL     1     134.722 164.255 200.612  0.00  0.00    +0.066 HD
ATOM     48  H   UNL     1     133.067 162.078 199.387  0.00  0.00    +0.060 HD
ATOM     49  H   UNL     1     133.868 159.910 199.365  0.00  0.00    +0.062 HD
ATOM     50  H   UNL     1     136.507 159.509 200.893  0.00  0.00    +0.069 HD
ENDROOT
BRANCH  21  51
ATOM     51  C   UNL     1     136.422 162.111 200.331  0.00  0.00    -0.040 C 
ATOM     52  H   UNL     1     136.408 162.826 201.160  0.00  0.00    +0.028 HD
ATOM     53  H   UNL     1     137.034 161.256 200.643  0.00  0.00    +0.028 HD
ATOM     54  H   UNL     1     136.929 162.622 199.504  0.00  0.00    +0.028 HD
ENDBRANCH  21  51
BRANCH   2  55
ATOM     55  C   UNL     1     131.984 156.555 199.959  0.00  0.00    -0.057 C 
ATOM     56  H   UNL     1     132.017 157.638 199.790  0.00  0.00    +0.023 HD
ATOM     57  H   UNL     1     130.934 156.251 199.981  0.00  0.00    +0.023 HD
ATOM     58  H   UNL     1     132.410 156.364 200.951  0.00  0.00    +0.023 HD
ENDBRANCH   2  55
BRANCH   1  59
ATOM     59  C   UNL     1     135.251 155.531 197.931  0.00  0.00    +0.020 C 
ATOM     60  H   UNL     1     134.599 155.103 197.164  0.00  0.00    +0.036 HD
BRANCH  59  61
ATOM     61  C   UNL     1     135.984 156.637 197.155  0.00  0.00    -0.057 C 
ATOM     62  H   UNL     1     135.556 156.759 196.154  0.00  0.00    +0.023 HD
ATOM     63  H   UNL     1     135.878 157.604 197.659  0.00  0.00    +0.023 HD
ATOM     64  H   UNL     1     137.052 156.431 197.048  0.00  0.00    +0.023 HD
ENDBRANCH  59  61
BRANCH  59  65
ATOM     65  C   UNL     1     136.222 154.409 198.405  0.00  0.00    +0.064 C 
ATOM     66  H   UNL     1     137.234 154.599 198.035  0.00  0.00    +0.060 HD
BRANCH  65  67
ATOM     67  C   UNL     1     135.862 152.927 198.062  0.00  0.00    -0.017 C 
ATOM     68  H   UNL     1     136.746 152.317 198.255  0.00  0.00    +0.032 HD
BRANCH  67  69
ATOM     69  C   UNL     1     134.714 152.410 198.931  0.00  0.00    -0.060 C 
ATOM     70  H   UNL     1     134.786 151.334 199.108  0.00  0.00    +0.023 HD
ATOM     71  H   UNL     1     133.743 152.613 198.467  0.00  0.00    +0.023 HD
ATOM     72  H   UNL     1     134.724 152.863 199.924  0.00  0.00    +0.023 HD
ENDBRANCH  67  69
BRANCH  67  73
ATOM     73  C   UNL     1     135.541 152.794 196.548  0.00  0.00    -0.046 C 
ATOM     74  H   UNL     1     134.535 152.360 196.464  0.00  0.00    +0.027 HD
ATOM     75  H   UNL     1     135.476 153.792 196.097  0.00  0.00    +0.027 HD
BRANCH  73  76
ATOM     76  C   UNL     1     136.466 151.941 195.671  0.00  0.00    -0.026 C 
ATOM     77  H   UNL     1     137.222 151.421 196.270  0.00  0.00    +0.029 HD
ATOM     78  H   UNL     1     135.850 151.122 195.270  0.00  0.00    +0.029 HD
BRANCH  76  83
ATOM     79  C   UNL     1     139.499 152.213 194.193  0.00  0.00    +0.059 C 
ATOM     80  C   UNL     1     139.672 153.457 193.328  0.00  0.00    -0.000 C 
ATOM     81  C   UNL     1     138.632 154.529 193.676  0.00  0.00    +0.063 C 
ATOM     82  C   UNL     1     137.621 154.048 194.718  0.00  0.00    -0.000 C 
ATOM     83  C   UNL     1     137.130 152.620 194.456  0.00  0.00    +0.061 C 
ATOM     84  O   UNL     1     138.171 151.722 194.030  0.00  0.00    -0.373 OA
ATOM     85  H   UNL     1     139.680 152.435 195.252  0.00  0.00    +0.059 HD
ATOM     86  H   UNL     1     140.680 153.866 193.457  0.00  0.00    +0.032 HD
ATOM     87  H   UNL     1     139.576 153.179 192.271  0.00  0.00    +0.032 HD
ATOM     88  H   UNL     1     139.135 155.414 194.086  0.00  0.00    +0.060 HD
ATOM     89  H   UNL     1     138.100 154.095 195.702  0.00  0.00    +0.032 HD
ATOM     90  H   UNL     1     136.768 154.731 194.733  0.00  0.00    +0.032 HD
ATOM     91  H   UNL     1     136.403 152.644 193.635  0.00  0.00    +0.060 HD
BRANCH  79  92
ATOM     92  C   UNL     1     140.461 151.111 193.768  0.00  0.00    -0.039 C 
ATOM     93  H   UNL     1     140.173 150.679 192.806  0.00  0.00    +0.025 HD
ATOM     94  H   UNL     1     141.476 151.505 193.685  0.00  0.00    +0.025 HD
ATOM     95  H   UNL     1     140.495 150.309 194.517  0.00  0.00    +0.025 HD
ENDBRANCH  79  92
BRANCH  81  96
ATOM     96  O   UNL     1     137.912 154.928 192.501  0.00  0.00    -0.380 OA
BRANCH  96  97
ATOM     97  C   UNL     1     138.360 154.269 191.322  0.00  0.00    +0.037 C 
ATOM     98  H   UNL     1     137.665 153.465 191.055  0.00  0.00    +0.052 HD
ATOM     99  H   UNL     1     139.340 153.829 191.524  0.00  0.00    +0.052 HD
ATOM    100  H   UNL     1     138.460 154.969 190.485  0.00  0.00    +0.052 HD
ENDBRANCH  96  97
ENDBRANCH  81  96
ENDBRANCH  76  83
ENDBRANCH  73  76
ENDBRANCH  67  73
ENDBRANCH  65  67
BRANCH  65 101
ATOM    101  O   UNL     1     136.303 154.517 199.836  0.00  0.00    -0.391 OA
ATOM    102  H   UNL     1     137.225 154.779 200.041  0.00  0.00    +0.210 HD
ENDBRANCH  65 101
ENDBRANCH  59  65
ENDBRANCH   1  59
BRANCH  19 103
ATOM    103  O   UNL     1     134.586 164.584 198.603  0.00  0.00    -0.385 OA
ATOM    104  H   UNL     1     135.416 164.115 198.402  0.00  0.00    +0.210 HD
ENDBRANCH  19 103
BRANCH  18 105
ATOM    105  O   UNL     1     132.015 163.885 201.148  0.00  0.00    -0.377 OA
BRANCH 105 106
ATOM    106  C   UNL     1     130.853 164.507 201.678  0.00  0.00    +0.037 C 
ATOM    107  H   UNL     1     130.733 165.533 201.314  0.00  0.00    +0.052 HD
ATOM    108  H   UNL     1     129.981 163.925 201.365  0.00  0.00    +0.052 HD
ATOM    109  H   UNL     1     130.896 164.502 202.772  0.00  0.00    +0.052 HD
ENDBRANCH 105 106
ENDBRANCH  18 105
BRANCH   9 110
ATOM    110  O   UNL     1     129.661 159.121 196.863  0.00  0.00    -0.377 OA
BRANCH 110 111
ATOM    111  C   UNL     1     128.342 158.933 196.362  0.00  0.00    +0.037 C 
ATOM    112  H   UNL     1     128.372 158.702 195.294  0.00  0.00    +0.052 HD
ATOM    113  H   UNL     1     127.789 159.866 196.498  0.00  0.00    +0.052 HD
ATOM    114  H   UNL     1     127.822 158.137 196.905  0.00  0.00    +0.052 HD
ENDBRANCH 110 111
ENDBRANCH   9 110
BRANCH   5 115
ATOM    115  O   UNL     1     132.471 157.076 194.531  0.00  0.00    -0.377 OA
BRANCH 115 116
ATOM    116  C   UNL     1     131.708 156.262 193.650  0.00  0.00    +0.037 C 
ATOM    117  H   UNL     1     132.248 156.101 192.712  0.00  0.00    +0.052 HD
ATOM    118  H   UNL     1     131.469 155.299 194.107  0.00  0.00    +0.052 HD
ATOM    119  H   UNL     1     130.775 156.784 193.425  0.00  0.00    +0.052 HD
ENDBRANCH 115 116
ENDBRANCH   5 115
BRANCH   3 120
ATOM    120  O   UNL     1     132.623 155.081 196.551  0.00  0.00    -0.379 OA
BRANCH 120 121
ATOM    121  C   UNL     1     131.946 153.838 196.682  0.00  0.00    +0.037 C 
ATOM    122  H   UNL     1     131.359 153.672 195.776  0.00  0.00    +0.052 HD
ATOM    123  H   UNL     1     131.264 153.863 197.536  0.00  0.00    +0.052 HD
ATOM    124  H   UNL     1     132.655 153.012 196.792  0.00  0.00    +0.052 HD
ENDBRANCH 120 121
ENDBRANCH   3 120
TORSDOF 23
ENDMDL
MODEL 6
REMARK VINA RESULT:      -5.4      1.404      1.959
REMARK  Name = Lobophorolide_conf3
REMARK  23 active torsions:
REMARK  status: ('A' for Active; 'I' for Inactive)
REMARK    1  A    between atoms: C_1  and  C_2
REMARK    2  A    between atoms: C_4  and  O_53
REMARK    3  A    between atoms: C_6  and  C_8
REMARK    4  A    between atoms: C_8  and  C_9
REMARK    5  A    between atoms: C_9  and  C_10
REMARK    6  A    between atoms: C_10  and  C_11
REMARK    7  A    between atoms: C_10  and  C_12
REMARK    8  A    between atoms: C_12  and  C_13
REMARK    9  A    between atoms: C_12  and  O_52
REMARK   10  A    between atoms: C_13  and  C_14
REMARK   11  A    between atoms: C_13  and  C_15
REMARK   12  A    between atoms: C_16  and  C_51
REMARK   13  A    between atoms: C_17  and  O_49
REMARK   14  A    between atoms: C_19  and  O_47
REMARK   15  A    between atoms: C_23  and  O_45
REMARK   16  A    between atoms: C_32  and  O_43
REMARK   17  A    between atoms: C_33  and  O_42
REMARK   18  A    between atoms: C_35  and  C_41
REMARK   19  A    between atoms: O_43  and  C_44
REMARK   20  A    between atoms: O_45  and  C_46
REMARK   21  A    between atoms: O_47  and  C_48
REMARK   22  A    between atoms: O_49  and  C_50
REMARK   23  A    between atoms: O_53  and  C_54
REMARK                            x       y       z     vdW  Elec       q    Type
REMARK                         _______ _______ _______ _____ _____    ______ ____
ROOT
ATOM      1  C   UNL     1     152.694 164.134 188.092  0.00  0.00    +0.113 C 
ATOM      2  C   UNL     1     152.029 163.157 187.067  0.00  0.00    +0.020 C 
ATOM      3  C   UNL     1     151.135 162.010 187.620  0.00  0.00    +0.067 C 
ATOM      4  C   UNL     1     151.807 161.098 188.673  0.00  0.00    +0.003 C 
ATOM      5  C   UNL     1     150.885 159.929 189.093  0.00  0.00    +0.094 C 
ATOM      6  C   UNL     1     151.675 158.767 189.704  0.00  0.00    +0.145 C 
ATOM      7  C   UNL     1     151.908 158.751 191.211  0.00  0.00    +0.083 C 
ATOM      8  O   UNL     1     150.892 157.947 190.610  0.00  0.00    -0.363 OA
ATOM      9  C   UNL     1     152.525 157.885 188.783  0.00  0.00    +0.094 C 
ATOM     10  C   UNL     1     154.030 158.053 189.049  0.00  0.00    +0.003 C 
ATOM     11  C   UNL     1     154.947 157.247 188.103  0.00  0.00    +0.065 C 
ATOM     12  C   UNL     1     154.713 155.728 188.054  0.00  0.00    -0.008 C 
ATOM     13  C   UNL     1     155.246 155.049 189.276  0.00  0.00    -0.083 C 
ATOM     14  C   UNL     1     156.193 155.643 190.017  0.00  0.00    -0.059 C 
ATOM     15  C   UNL     1     156.784 156.999 189.680  0.00  0.00    +0.080 C 
ATOM     16  O   UNL     1     156.335 157.483 188.405  0.00  0.00    -0.369 OA
ATOM     17  C   UNL     1     158.316 156.906 189.673  0.00  0.00    +0.006 C 
ATOM     18  C   UNL     1     159.101 158.215 189.419  0.00  0.00    +0.090 C 
ATOM     19  C   UNL     1     158.719 159.415 190.336  0.00  0.00    +0.100 C 
ATOM     20  C   UNL     1     157.559 160.263 189.873  0.00  0.00    -0.051 C 
ATOM     21  C   UNL     1     157.391 161.587 190.076  0.00  0.00    -0.052 C 
ATOM     22  C   UNL     1     156.258 162.256 189.441  0.00  0.00    -0.052 C 
ATOM     23  C   UNL     1     156.122 163.585 189.326  0.00  0.00    +0.023 C 
ATOM     24  C   UNL     1     155.006 164.254 188.640  0.00  0.00    +0.332 C 
ATOM     25  O   UNL     1     155.122 165.388 188.202  0.00  0.00    -0.246 OA
ATOM     26  O   UNL     1     153.875 163.498 188.644  0.00  0.00    -0.458 OA
ATOM     27  H   UNL     1     153.002 164.993 187.488  0.00  0.00    +0.074 HD
ATOM     28  H   UNL     1     151.374 163.789 186.451  0.00  0.00    +0.036 HD
ATOM     29  H   UNL     1     150.864 161.361 186.777  0.00  0.00    +0.060 HD
ATOM     30  H   UNL     1     152.061 161.672 189.571  0.00  0.00    +0.032 HD
ATOM     31  H   UNL     1     152.740 160.709 188.255  0.00  0.00    +0.032 HD
ATOM     32  H   UNL     1     150.334 159.569 188.216  0.00  0.00    +0.063 HD
ATOM     33  H   UNL     1     152.757 158.231 191.635  0.00  0.00    +0.059 HD
ATOM     34  H   UNL     1     151.595 159.609 191.796  0.00  0.00    +0.059 HD
ATOM     35  H   UNL     1     152.261 156.835 188.969  0.00  0.00    +0.063 HD
ATOM     36  H   UNL     1     154.243 157.792 190.089  0.00  0.00    +0.032 HD
ATOM     37  H   UNL     1     154.305 159.111 188.957  0.00  0.00    +0.032 HD
ATOM     38  H   UNL     1     154.798 157.635 187.087  0.00  0.00    +0.060 HD
ATOM     39  H   UNL     1     155.255 155.313 187.195  0.00  0.00    +0.033 HD
ATOM     40  H   UNL     1     153.658 155.485 187.908  0.00  0.00    +0.033 HD
ATOM     41  H   UNL     1     154.870 154.066 189.541  0.00  0.00    +0.057 HD
ATOM     42  H   UNL     1     156.557 155.152 190.916  0.00  0.00    +0.059 HD
ATOM     43  H   UNL     1     156.462 157.698 190.456  0.00  0.00    +0.064 HD
ATOM     44  H   UNL     1     158.649 156.500 190.639  0.00  0.00    +0.032 HD
ATOM     45  H   UNL     1     158.609 156.177 188.910  0.00  0.00    +0.032 HD
ATOM     46  H   UNL     1     160.146 157.979 189.671  0.00  0.00    +0.063 HD
ATOM     47  H   UNL     1     159.610 160.054 190.370  0.00  0.00    +0.066 HD
ATOM     48  H   UNL     1     156.860 159.751 189.219  0.00  0.00    +0.060 HD
ATOM     49  H   UNL     1     155.507 161.610 188.991  0.00  0.00    +0.062 HD
ATOM     50  H   UNL     1     156.873 164.277 189.685  0.00  0.00    +0.069 HD
ENDROOT
BRANCH  21  51
ATOM     51  C   UNL     1     158.316 162.416 190.931  0.00  0.00    -0.040 C 
ATOM     52  H   UNL     1     157.797 162.942 191.738  0.00  0.00    +0.028 HD
ATOM     53  H   UNL     1     159.082 161.779 191.390  0.00  0.00    +0.028 HD
ATOM     54  H   UNL     1     158.814 163.192 190.338  0.00  0.00    +0.028 HD
ENDBRANCH  21  51
BRANCH   2  55
ATOM     55  C   UNL     1     153.083 162.586 186.104  0.00  0.00    -0.057 C 
ATOM     56  H   UNL     1     152.681 162.527 185.085  0.00  0.00    +0.023 HD
ATOM     57  H   UNL     1     153.990 163.196 186.071  0.00  0.00    +0.023 HD
ATOM     58  H   UNL     1     153.371 161.572 186.403  0.00  0.00    +0.023 HD
ENDBRANCH   2  55
BRANCH   1  59
ATOM     59  C   UNL     1     151.791 164.655 189.248  0.00  0.00    +0.020 C 
ATOM     60  H   UNL     1     150.789 164.255 189.063  0.00  0.00    +0.036 HD
BRANCH  59  61
ATOM     61  C   UNL     1     152.131 164.057 190.622  0.00  0.00    -0.057 C 
ATOM     62  H   UNL     1     151.643 164.622 191.424  0.00  0.00    +0.023 HD
ATOM     63  H   UNL     1     151.767 163.026 190.700  0.00  0.00    +0.023 HD
ATOM     64  H   UNL     1     153.207 164.048 190.816  0.00  0.00    +0.023 HD
ENDBRANCH  59  61
BRANCH  59  65
ATOM     65  C   UNL     1     151.677 166.208 189.299  0.00  0.00    +0.064 C 
ATOM     66  H   UNL     1     152.067 166.587 190.248  0.00  0.00    +0.060 HD
BRANCH  65  67
ATOM     67  C   UNL     1     150.271 166.854 189.071  0.00  0.00    -0.017 C 
ATOM     68  H   UNL     1     150.349 167.914 189.316  0.00  0.00    +0.032 HD
BRANCH  67  69
ATOM     69  C   UNL     1     149.820 166.721 187.615  0.00  0.00    -0.060 C 
ATOM     70  H   UNL     1     150.482 166.069 187.038  0.00  0.00    +0.023 HD
ATOM     71  H   UNL     1     149.789 167.696 187.119  0.00  0.00    +0.023 HD
ATOM     72  H   UNL     1     148.833 166.262 187.539  0.00  0.00    +0.023 HD
ENDBRANCH  67  69
BRANCH  67  73
ATOM     73  C   UNL     1     149.237 166.237 190.051  0.00  0.00    -0.046 C 
ATOM     74  H   UNL     1     148.369 165.920 189.455  0.00  0.00    +0.027 HD
ATOM     75  H   UNL     1     149.649 165.320 190.492  0.00  0.00    +0.027 HD
BRANCH  73  76
ATOM     76  C   UNL     1     148.696 167.105 191.195  0.00  0.00    -0.026 C 
ATOM     77  H   UNL     1     148.805 168.173 190.976  0.00  0.00    +0.029 HD
ATOM     78  H   UNL     1     147.605 166.958 191.210  0.00  0.00    +0.029 HD
BRANCH  76  83
ATOM     79  C   UNL     1     151.597 166.697 192.890  0.00  0.00    +0.059 C 
ATOM     80  C   UNL     1     151.471 165.877 194.169  0.00  0.00    -0.000 C 
ATOM     81  C   UNL     1     150.187 165.038 194.174  0.00  0.00    +0.063 C 
ATOM     82  C   UNL     1     149.305 165.313 192.954  0.00  0.00    -0.000 C 
ATOM     83  C   UNL     1     149.195 166.804 192.622  0.00  0.00    +0.061 C 
ATOM     84  O   UNL     1     150.438 167.517 192.756  0.00  0.00    -0.373 OA
ATOM     85  H   UNL     1     151.691 166.049 192.010  0.00  0.00    +0.059 HD
ATOM     86  H   UNL     1     152.340 165.219 194.281  0.00  0.00    +0.032 HD
ATOM     87  H   UNL     1     151.473 166.553 195.035  0.00  0.00    +0.032 HD
ATOM     88  H   UNL     1     150.441 163.970 194.165  0.00  0.00    +0.060 HD
ATOM     89  H   UNL     1     149.734 164.778 192.099  0.00  0.00    +0.032 HD
ATOM     90  H   UNL     1     148.308 164.903 193.133  0.00  0.00    +0.032 HD
ATOM     91  H   UNL     1     148.506 167.272 193.334  0.00  0.00    +0.060 HD
BRANCH  79  92
ATOM     92  C   UNL     1     152.814 167.610 192.941  0.00  0.00    -0.039 C 
ATOM     93  H   UNL     1     152.901 168.106 193.910  0.00  0.00    +0.025 HD
ATOM     94  H   UNL     1     153.726 167.037 192.757  0.00  0.00    +0.025 HD
ATOM     95  H   UNL     1     152.762 168.377 192.157  0.00  0.00    +0.025 HD
ENDBRANCH  79  92
BRANCH  81  96
ATOM     96  O   UNL     1     149.417 165.306 195.355  0.00  0.00    -0.380 OA
BRANCH  96  97
ATOM     97  C   UNL     1     150.122 166.085 196.315  0.00  0.00    +0.037 C 
ATOM     98  H   UNL     1     149.662 167.076 196.402  0.00  0.00    +0.052 HD
ATOM     99  H   UNL     1     151.152 166.209 195.969  0.00  0.00    +0.052 HD
ATOM    100  H   UNL     1     150.141 165.594 197.294  0.00  0.00    +0.052 HD
ENDBRANCH  96  97
ENDBRANCH  81  96
ENDBRANCH  76  83
ENDBRANCH  73  76
ENDBRANCH  67  73
ENDBRANCH  65  67
BRANCH  65 101
ATOM    101  O   UNL     1     152.559 166.715 188.283  0.00  0.00    -0.391 OA
ATOM    102  H   UNL     1     152.380 166.189 187.476  0.00  0.00    +0.210 HD
ENDBRANCH  65 101
ENDBRANCH  59  65
ENDBRANCH   1  59
BRANCH  19 103
ATOM    103  O   UNL     1     158.471 158.966 191.667  0.00  0.00    -0.385 OA
ATOM    104  H   UNL     1     157.615 158.499 191.661  0.00  0.00    +0.210 HD
ENDBRANCH  19 103
BRANCH  18 105
ATOM    105  O   UNL     1     159.058 158.626 188.046  0.00  0.00    -0.377 OA
BRANCH 105 106
ATOM    106  C   UNL     1     160.306 159.086 187.547  0.00  0.00    +0.037 C 
ATOM    107  H   UNL     1     160.259 159.326 186.479  0.00  0.00    +0.052 HD
ATOM    108  H   UNL     1     160.579 159.993 188.093  0.00  0.00    +0.052 HD
ATOM    109  H   UNL     1     161.078 158.329 187.725  0.00  0.00    +0.052 HD
ENDBRANCH 105 106
ENDBRANCH  18 105
BRANCH   9 110
ATOM    110  O   UNL     1     152.275 158.201 187.405  0.00  0.00    -0.377 OA
BRANCH 110 111
ATOM    111  C   UNL     1     151.491 157.210 186.751  0.00  0.00    +0.037 C 
ATOM    112  H   UNL     1     152.028 156.815 185.884  0.00  0.00    +0.052 HD
ATOM    113  H   UNL     1     150.568 157.678 186.402  0.00  0.00    +0.052 HD
ATOM    114  H   UNL     1     151.232 156.395 187.435  0.00  0.00    +0.052 HD
ENDBRANCH 110 111
ENDBRANCH   9 110
BRANCH   5 115
ATOM    115  O   UNL     1     149.949 160.456 190.056  0.00  0.00    -0.377 OA
BRANCH 115 116
ATOM    116  C   UNL     1     148.606 160.067 189.800  0.00  0.00    +0.037 C 
ATOM    117  H   UNL     1     148.172 160.686 189.010  0.00  0.00    +0.052 HD
ATOM    118  H   UNL     1     148.546 159.013 189.518  0.00  0.00    +0.052 HD
ATOM    119  H   UNL     1     148.026 160.218 190.714  0.00  0.00    +0.052 HD
ENDBRANCH 115 116
ENDBRANCH   5 115
BRANCH   3 120
ATOM    120  O   UNL     1     149.924 162.572 188.157  0.00  0.00    -0.379 OA
BRANCH 120 121
ATOM    121  C   UNL     1     149.036 163.053 187.157  0.00  0.00    +0.037 C 
ATOM    122  H   UNL     1     148.091 162.513 187.251  0.00  0.00    +0.052 HD
ATOM    123  H   UNL     1     149.445 162.863 186.161  0.00  0.00    +0.052 HD
ATOM    124  H   UNL     1     148.839 164.121 187.285  0.00  0.00    +0.052 HD
ENDBRANCH 120 121
ENDBRANCH   3 120
TORSDOF 23
ENDMDL
MODEL 7
REMARK VINA RESULT:      -5.3      1.410      2.398
REMARK  Name = Lobophorolide_conf3
REMARK  23 active torsions:
REMARK  status: ('A' for Active; 'I' for Inactive)
REMARK    1  A    between atoms: C_1  and  C_2
REMARK    2  A    between atoms: C_4  and  O_53
REMARK    3  A    between atoms: C_6  and  C_8
REMARK    4  A    between atoms: C_8  and  C_9
REMARK    5  A    between atoms: C_9  and  C_10
REMARK    6  A    between atoms: C_10  and  C_11
REMARK    7  A    between atoms: C_10  and  C_12
REMARK    8  A    between atoms: C_12  and  C_13
REMARK    9  A    between atoms: C_12  and  O_52
REMARK   10  A    between atoms: C_13  and  C_14
REMARK   11  A    between atoms: C_13  and  C_15
REMARK   12  A    between atoms: C_16  and  C_51
REMARK   13  A    between atoms: C_17  and  O_49
REMARK   14  A    between atoms: C_19  and  O_47
REMARK   15  A    between atoms: C_23  and  O_45
REMARK   16  A    between atoms: C_32  and  O_43
REMARK   17  A    between atoms: C_33  and  O_42
REMARK   18  A    between atoms: C_35  and  C_41
REMARK   19  A    between atoms: O_43  and  C_44
REMARK   20  A    between atoms: O_45  and  C_46
REMARK   21  A    between atoms: O_47  and  C_48
REMARK   22  A    between atoms: O_49  and  C_50
REMARK   23  A    between atoms: O_53  and  C_54
REMARK                            x       y       z     vdW  Elec       q    Type
REMARK                         _______ _______ _______ _____ _____    ______ ____
ROOT
ATOM      1  C   UNL     1     152.525 165.467 188.568  0.00  0.00    +0.113 C 
ATOM      2  C   UNL     1     151.641 164.819 187.452  0.00  0.00    +0.020 C 
ATOM      3  C   UNL     1     150.572 163.772 187.877  0.00  0.00    +0.067 C 
ATOM      4  C   UNL     1     151.107 162.585 188.711  0.00  0.00    +0.003 C 
ATOM      5  C   UNL     1     150.000 161.544 189.004  0.00  0.00    +0.094 C 
ATOM      6  C   UNL     1     150.583 160.170 189.354  0.00  0.00    +0.145 C 
ATOM      7  C   UNL     1     150.878 159.849 190.816  0.00  0.00    +0.083 C 
ATOM      8  O   UNL     1     149.701 159.358 190.171  0.00  0.00    -0.363 OA
ATOM      9  C   UNL     1     151.208 159.326 188.238  0.00  0.00    +0.094 C 
ATOM     10  C   UNL     1     152.728 159.174 188.411  0.00  0.00    +0.003 C 
ATOM     11  C   UNL     1     153.432 158.395 187.277  0.00  0.00    +0.065 C 
ATOM     12  C   UNL     1     152.913 156.975 186.999  0.00  0.00    -0.008 C 
ATOM     13  C   UNL     1     153.363 156.008 188.049  0.00  0.00    -0.083 C 
ATOM     14  C   UNL     1     154.438 156.284 188.801  0.00  0.00    -0.059 C 
ATOM     15  C   UNL     1     155.259 157.550 188.646  0.00  0.00    +0.080 C 
ATOM     16  O   UNL     1     154.852 158.323 187.506  0.00  0.00    -0.369 OA
ATOM     17  C   UNL     1     156.744 157.188 188.506  0.00  0.00    +0.006 C 
ATOM     18  C   UNL     1     157.750 158.359 188.410  0.00  0.00    +0.090 C 
ATOM     19  C   UNL     1     157.644 159.429 189.537  0.00  0.00    +0.100 C 
ATOM     20  C   UNL     1     156.646 160.538 189.310  0.00  0.00    -0.051 C 
ATOM     21  C   UNL     1     156.740 161.815 189.739  0.00  0.00    -0.052 C 
ATOM     22  C   UNL     1     155.727 162.776 189.312  0.00  0.00    -0.052 C 
ATOM     23  C   UNL     1     155.840 164.107 189.427  0.00  0.00    +0.023 C 
ATOM     24  C   UNL     1     154.840 165.074 188.949  0.00  0.00    +0.332 C 
ATOM     25  O   UNL     1     155.149 166.228 188.694  0.00  0.00    -0.246 OA
ATOM     26  O   UNL     1     153.588 164.544 188.916  0.00  0.00    -0.458 OA
ATOM     27  H   UNL     1     152.962 166.349 188.091  0.00  0.00    +0.074 HD
ATOM     28  H   UNL     1     151.090 165.657 187.000  0.00  0.00    +0.036 HD
ATOM     29  H   UNL     1     150.145 163.339 186.962  0.00  0.00    +0.060 HD
ATOM     30  H   UNL     1     151.506 162.937 189.669  0.00  0.00    +0.032 HD
ATOM     31  H   UNL     1     151.930 162.115 188.164  0.00  0.00    +0.032 HD
ATOM     32  H   UNL     1     149.352 161.448 188.126  0.00  0.00    +0.063 HD
ATOM     33  H   UNL     1     151.631 159.120 191.082  0.00  0.00    +0.059 HD
ATOM     34  H   UNL     1     150.759 160.633 191.555  0.00  0.00    +0.059 HD
ATOM     35  H   UNL     1     150.759 158.324 188.270  0.00  0.00    +0.063 HD
ATOM     36  H   UNL     1     152.936 158.701 189.375  0.00  0.00    +0.032 HD
ATOM     37  H   UNL     1     153.194 160.165 188.472  0.00  0.00    +0.032 HD
ATOM     38  H   UNL     1     153.313 158.975 186.354  0.00  0.00    +0.060 HD
ATOM     39  H   UNL     1     153.327 156.627 186.044  0.00  0.00    +0.033 HD
ATOM     40  H   UNL     1     151.826 156.954 186.897  0.00  0.00    +0.033 HD
ATOM     41  H   UNL     1     152.820 155.077 188.177  0.00  0.00    +0.057 HD
ATOM     42  H   UNL     1     154.743 155.586 189.577  0.00  0.00    +0.059 HD
ATOM     43  H   UNL     1     155.110 158.149 189.549  0.00  0.00    +0.064 HD
ATOM     44  H   UNL     1     157.037 156.567 189.363  0.00  0.00    +0.032 HD
ATOM     45  H   UNL     1     156.858 156.563 187.613  0.00  0.00    +0.032 HD
ATOM     46  H   UNL     1     158.742 157.900 188.538  0.00  0.00    +0.063 HD
ATOM     47  H   UNL     1     158.640 159.883 189.607  0.00  0.00    +0.066 HD
ATOM     48  H   UNL     1     155.833 160.282 188.638  0.00  0.00    +0.060 HD
ATOM     49  H   UNL     1     154.847 162.364 188.822  0.00  0.00    +0.062 HD
ATOM     50  H   UNL     1     156.724 164.580 189.836  0.00  0.00    +0.069 HD
ENDROOT
BRANCH  21  51
ATOM     51  C   UNL     1     157.844 162.302 190.644  0.00  0.00    -0.040 C 
ATOM     52  H   UNL     1     157.640 163.287 191.077  0.00  0.00    +0.028 HD
ATOM     53  H   UNL     1     157.993 161.601 191.475  0.00  0.00    +0.028 HD
ATOM     54  H   UNL     1     158.789 162.405 190.098  0.00  0.00    +0.028 HD
ENDBRANCH  21  51
BRANCH   2  55
ATOM     55  C   UNL     1     152.523 164.247 186.330  0.00  0.00    -0.057 C 
ATOM     56  H   UNL     1     151.909 163.723 185.587  0.00  0.00    +0.023 HD
ATOM     57  H   UNL     1     153.088 165.024 185.808  0.00  0.00    +0.023 HD
ATOM     58  H   UNL     1     153.240 163.523 186.733  0.00  0.00    +0.023 HD
ENDBRANCH   2  55
BRANCH   1  59
ATOM     59  C   UNL     1     151.790 165.931 189.860  0.00  0.00    +0.020 C 
ATOM     60  H   UNL     1     150.718 165.866 189.648  0.00  0.00    +0.036 HD
BRANCH  59  61
ATOM     61  C   UNL     1     151.946 164.964 191.046  0.00  0.00    -0.057 C 
ATOM     62  H   UNL     1     152.870 165.170 191.596  0.00  0.00    +0.023 HD
ATOM     63  H   UNL     1     151.123 165.087 191.760  0.00  0.00    +0.023 HD
ATOM     64  H   UNL     1     151.960 163.918 190.729  0.00  0.00    +0.023 HD
ENDBRANCH  59  61
BRANCH  59  65
ATOM     65  C   UNL     1     152.104 167.402 190.262  0.00  0.00    +0.064 C 
ATOM     66  H   UNL     1     153.129 167.485 190.635  0.00  0.00    +0.060 HD
BRANCH  65  67
ATOM     67  C   UNL     1     151.164 168.102 191.297  0.00  0.00    -0.017 C 
ATOM     68  H   UNL     1     151.269 167.579 192.249  0.00  0.00    +0.032 HD
BRANCH  67  69
ATOM     69  C   UNL     1     151.546 169.570 191.503  0.00  0.00    -0.060 C 
ATOM     70  H   UNL     1     150.718 170.156 191.910  0.00  0.00    +0.023 HD
ATOM     71  H   UNL     1     151.858 170.034 190.561  0.00  0.00    +0.023 HD
ATOM     72  H   UNL     1     152.355 169.678 192.227  0.00  0.00    +0.023 HD
ENDBRANCH  67  69
BRANCH  67  73
ATOM     73  C   UNL     1     149.682 167.951 190.858  0.00  0.00    -0.046 C 
ATOM     74  H   UNL     1     149.656 168.025 189.762  0.00  0.00    +0.027 HD
ATOM     75  H   UNL     1     149.328 166.940 191.099  0.00  0.00    +0.027 HD
BRANCH  73  76
ATOM     76  C   UNL     1     148.648 168.950 191.394  0.00  0.00    -0.026 C 
ATOM     77  H   UNL     1     149.110 169.690 192.058  0.00  0.00    +0.029 HD
ATOM     78  H   UNL     1     148.318 169.551 190.533  0.00  0.00    +0.029 HD
BRANCH  76  83
ATOM     79  C   UNL     1     147.720 166.675 193.721  0.00  0.00    +0.059 C 
ATOM     80  C   UNL     1     146.298 166.149 193.559  0.00  0.00    -0.000 C 
ATOM     81  C   UNL     1     145.765 166.401 192.143  0.00  0.00    +0.063 C 
ATOM     82  C   UNL     1     146.743 167.208 191.286  0.00  0.00    -0.000 C 
ATOM     83  C   UNL     1     147.371 168.382 192.043  0.00  0.00    +0.061 C 
ATOM     84  O   UNL     1     147.734 168.064 193.400  0.00  0.00    -0.373 OA
ATOM     85  H   UNL     1     148.419 166.140 193.068  0.00  0.00    +0.059 HD
ATOM     86  H   UNL     1     146.267 165.076 193.777  0.00  0.00    +0.032 HD
ATOM     87  H   UNL     1     145.644 166.640 194.292  0.00  0.00    +0.032 HD
ATOM     88  H   UNL     1     145.592 165.444 191.636  0.00  0.00    +0.060 HD
ATOM     89  H   UNL     1     147.532 166.530 190.943  0.00  0.00    +0.032 HD
ATOM     90  H   UNL     1     146.221 167.581 190.401  0.00  0.00    +0.032 HD
ATOM     91  H   UNL     1     146.632 169.189 192.115  0.00  0.00    +0.060 HD
BRANCH  79  92
ATOM     92  C   UNL     1     148.201 166.522 195.159  0.00  0.00    -0.039 C 
ATOM     93  H   UNL     1     148.902 165.690 195.258  0.00  0.00    +0.025 HD
ATOM     94  H   UNL     1     148.693 167.438 195.493  0.00  0.00    +0.025 HD
ATOM     95  H   UNL     1     147.356 166.353 195.838  0.00  0.00    +0.025 HD
ENDBRANCH  79  92
BRANCH  81  96
ATOM     96  O   UNL     1     144.520 167.112 192.195  0.00  0.00    -0.380 OA
BRANCH  96  97
ATOM     97  C   UNL     1     143.647 166.633 193.211  0.00  0.00    +0.037 C 
ATOM     98  H   UNL     1     144.095 165.767 193.712  0.00  0.00    +0.052 HD
ATOM     99  H   UNL     1     142.711 166.317 192.741  0.00  0.00    +0.052 HD
ATOM    100  H   UNL     1     143.420 167.414 193.946  0.00  0.00    +0.052 HD
ENDBRANCH  96  97
ENDBRANCH  81  96
ENDBRANCH  76  83
ENDBRANCH  73  76
ENDBRANCH  67  73
ENDBRANCH  65  67
BRANCH  65 101
ATOM    101  O   UNL     1     152.066 168.173 189.049  0.00  0.00    -0.391 OA
ATOM    102  H   UNL     1     151.827 167.548 188.333  0.00  0.00    +0.210 HD
ENDBRANCH  65 101
ENDBRANCH  59  65
ENDBRANCH   1  59
BRANCH  19 103
ATOM    103  O   UNL     1     157.376 158.805 190.792  0.00  0.00    -0.385 OA
ATOM    104  H   UNL     1     158.151 158.955 191.363  0.00  0.00    +0.210 HD
ENDBRANCH  19 103
BRANCH  18 105
ATOM    105  O   UNL     1     157.723 159.006 187.129  0.00  0.00    -0.377 OA
BRANCH 105 106
ATOM    106  C   UNL     1     159.008 159.185 186.552  0.00  0.00    +0.037 C 
ATOM    107  H   UNL     1     158.950 159.589 185.535  0.00  0.00    +0.052 HD
ATOM    108  H   UNL     1     159.566 159.892 187.173  0.00  0.00    +0.052 HD
ATOM    109  H   UNL     1     159.547 158.232 186.544  0.00  0.00    +0.052 HD
ENDBRANCH 105 106
ENDBRANCH  18 105
BRANCH   9 110
ATOM    110  O   UNL     1     150.960 159.919 186.954  0.00  0.00    -0.377 OA
BRANCH 110 111
ATOM    111  C   UNL     1     149.975 159.212 186.208  0.00  0.00    +0.037 C 
ATOM    112  H   UNL     1     149.881 159.639 185.206  0.00  0.00    +0.052 HD
ATOM    113  H   UNL     1     149.016 159.318 186.721  0.00  0.00    +0.052 HD
ATOM    114  H   UNL     1     150.218 158.146 186.141  0.00  0.00    +0.052 HD
ENDBRANCH 110 111
ENDBRANCH   9 110
BRANCH   5 115
ATOM    115  O   UNL     1     149.226 162.052 190.110  0.00  0.00    -0.377 OA
BRANCH 115 116
ATOM    116  C   UNL     1     147.824 161.988 189.886  0.00  0.00    +0.037 C 
ATOM    117  H   UNL     1     147.470 160.956 189.969  0.00  0.00    +0.052 HD
ATOM    118  H   UNL     1     147.281 162.622 190.591  0.00  0.00    +0.052 HD
ATOM    119  H   UNL     1     147.623 162.341 188.872  0.00  0.00    +0.052 HD
ENDBRANCH 115 116
ENDBRANCH   5 115
BRANCH   3 120
ATOM    120  O   UNL     1     149.516 164.438 188.591  0.00  0.00    -0.379 OA
BRANCH 120 121
ATOM    121  C   UNL     1     148.706 165.259 187.758  0.00  0.00    +0.037 C 
ATOM    122  H   UNL     1     148.849 166.299 188.063  0.00  0.00    +0.052 HD
ATOM    123  H   UNL     1     147.650 165.005 187.883  0.00  0.00    +0.052 HD
ATOM    124  H   UNL     1     148.995 165.163 186.708  0.00  0.00    +0.052 HD
ENDBRANCH 120 121
ENDBRANCH   3 120
TORSDOF 23
ENDMDL
MODEL 8
REMARK VINA RESULT:      -5.2     18.154     23.080
REMARK  Name = Lobophorolide_conf3
REMARK  23 active torsions:
REMARK  status: ('A' for Active; 'I' for Inactive)
REMARK    1  A    between atoms: C_1  and  C_2
REMARK    2  A    between atoms: C_4  and  O_53
REMARK    3  A    between atoms: C_6  and  C_8
REMARK    4  A    between atoms: C_8  and  C_9
REMARK    5  A    between atoms: C_9  and  C_10
REMARK    6  A    between atoms: C_10  and  C_11
REMARK    7  A    between atoms: C_10  and  C_12
REMARK    8  A    between atoms: C_12  and  C_13
REMARK    9  A    between atoms: C_12  and  O_52
REMARK   10  A    between atoms: C_13  and  C_14
REMARK   11  A    between atoms: C_13  and  C_15
REMARK   12  A    between atoms: C_16  and  C_51
REMARK   13  A    between atoms: C_17  and  O_49
REMARK   14  A    between atoms: C_19  and  O_47
REMARK   15  A    between atoms: C_23  and  O_45
REMARK   16  A    between atoms: C_32  and  O_43
REMARK   17  A    between atoms: C_33  and  O_42
REMARK   18  A    between atoms: C_35  and  C_41
REMARK   19  A    between atoms: O_43  and  C_44
REMARK   20  A    between atoms: O_45  and  C_46
REMARK   21  A    between atoms: O_47  and  C_48
REMARK   22  A    between atoms: O_49  and  C_50
REMARK   23  A    between atoms: O_53  and  C_54
REMARK                            x       y       z     vdW  Elec       q    Type
REMARK                         _______ _______ _______ _____ _____    ______ ____
ROOT
ATOM      1  C   UNL     1     133.290 156.296 198.737  0.00  0.00    +0.113 C 
ATOM      2  C   UNL     1     131.764 156.287 198.397  0.00  0.00    +0.020 C 
ATOM      3  C   UNL     1     131.328 156.705 196.963  0.00  0.00    +0.067 C 
ATOM      4  C   UNL     1     131.840 158.087 196.494  0.00  0.00    +0.003 C 
ATOM      5  C   UNL     1     131.280 158.466 195.103  0.00  0.00    +0.094 C 
ATOM      6  C   UNL     1     131.337 159.977 194.853  0.00  0.00    +0.145 C 
ATOM      7  C   UNL     1     132.582 160.566 194.199  0.00  0.00    +0.083 C 
ATOM      8  O   UNL     1     131.390 160.330 193.447  0.00  0.00    -0.363 OA
ATOM      9  C   UNL     1     130.354 160.887 195.597  0.00  0.00    +0.094 C 
ATOM     10  C   UNL     1     131.062 161.793 196.617  0.00  0.00    +0.003 C 
ATOM     11  C   UNL     1     130.119 162.683 197.456  0.00  0.00    +0.065 C 
ATOM     12  C   UNL     1     129.181 163.616 196.670  0.00  0.00    -0.008 C 
ATOM     13  C   UNL     1     129.918 164.791 196.107  0.00  0.00    -0.083 C 
ATOM     14  C   UNL     1     131.085 165.174 196.644  0.00  0.00    -0.059 C 
ATOM     15  C   UNL     1     131.724 164.474 197.829  0.00  0.00    +0.080 C 
ATOM     16  O   UNL     1     130.863 163.478 198.399  0.00  0.00    -0.369 OA
ATOM     17  C   UNL     1     132.082 165.508 198.906  0.00  0.00    +0.006 C 
ATOM     18  C   UNL     1     132.813 164.990 200.167  0.00  0.00    +0.090 C 
ATOM     19  C   UNL     1     134.095 164.145 199.900  0.00  0.00    +0.100 C 
ATOM     20  C   UNL     1     133.882 162.669 199.667  0.00  0.00    -0.051 C 
ATOM     21  C   UNL     1     134.725 161.667 199.994  0.00  0.00    -0.052 C 
ATOM     22  C   UNL     1     134.286 160.287 199.800  0.00  0.00    -0.052 C 
ATOM     23  C   UNL     1     134.889 159.211 200.324  0.00  0.00    +0.023 C 
ATOM     24  C   UNL     1     134.414 157.828 200.168  0.00  0.00    +0.332 C 
ATOM     25  O   UNL     1     134.723 156.960 200.970  0.00  0.00    -0.246 OA
ATOM     26  O   UNL     1     133.696 157.659 199.026  0.00  0.00    -0.458 OA
ATOM     27  H   UNL     1     133.368 155.700 199.652  0.00  0.00    +0.074 HD
ATOM     28  H   UNL     1     131.448 155.241 198.523  0.00  0.00    +0.036 HD
ATOM     29  H   UNL     1     130.231 156.761 196.949  0.00  0.00    +0.060 HD
ATOM     30  H   UNL     1     132.934 158.091 196.434  0.00  0.00    +0.032 HD
ATOM     31  H   UNL     1     131.548 158.838 197.234  0.00  0.00    +0.032 HD
ATOM     32  H   UNL     1     130.240 158.126 195.026  0.00  0.00    +0.063 HD
ATOM     33  H   UNL     1     132.860 161.598 194.366  0.00  0.00    +0.059 HD
ATOM     34  H   UNL     1     133.432 159.917 194.017  0.00  0.00    +0.059 HD
ATOM     35  H   UNL     1     129.851 161.529 194.861  0.00  0.00    +0.063 HD
ATOM     36  H   UNL     1     131.799 162.413 196.098  0.00  0.00    +0.032 HD
ATOM     37  H   UNL     1     131.646 161.179 197.314  0.00  0.00    +0.032 HD
ATOM     38  H   UNL     1     129.490 162.021 198.062  0.00  0.00    +0.060 HD
ATOM     39  H   UNL     1     128.421 164.012 197.354  0.00  0.00    +0.033 HD
ATOM     40  H   UNL     1     128.648 163.082 195.880  0.00  0.00    +0.033 HD
ATOM     41  H   UNL     1     129.484 165.337 195.275  0.00  0.00    +0.057 HD
ATOM     42  H   UNL     1     131.624 166.014 196.213  0.00  0.00    +0.059 HD
ATOM     43  H   UNL     1     132.636 163.988 197.470  0.00  0.00    +0.064 HD
ATOM     44  H   UNL     1     132.712 166.286 198.452  0.00  0.00    +0.032 HD
ATOM     45  H   UNL     1     131.157 166.001 199.224  0.00  0.00    +0.032 HD
ATOM     46  H   UNL     1     133.165 165.892 200.689  0.00  0.00    +0.063 HD
ATOM     47  H   UNL     1     134.714 164.258 200.798  0.00  0.00    +0.066 HD
ATOM     48  H   UNL     1     132.895 162.409 199.298  0.00  0.00    +0.060 HD
ATOM     49  H   UNL     1     133.372 160.149 199.225  0.00  0.00    +0.062 HD
ATOM     50  H   UNL     1     135.757 159.291 200.967  0.00  0.00    +0.069 HD
ENDROOT
BRANCH  21  51
ATOM     51  C   UNL     1     136.107 161.899 200.553  0.00  0.00    -0.040 C 
ATOM     52  H   UNL     1     136.274 162.935 200.863  0.00  0.00    +0.028 HD
ATOM     53  H   UNL     1     136.275 161.260 201.429  0.00  0.00    +0.028 HD
ATOM     54  H   UNL     1     136.878 161.681 199.806  0.00  0.00    +0.028 HD
ENDBRANCH  21  51
BRANCH   2  55
ATOM     55  C   UNL     1     130.973 157.090 199.443  0.00  0.00    -0.057 C 
ATOM     56  H   UNL     1     130.121 157.598 198.975  0.00  0.00    +0.023 HD
ATOM     57  H   UNL     1     130.586 156.458 200.246  0.00  0.00    +0.023 HD
ATOM     58  H   UNL     1     131.606 157.861 199.897  0.00  0.00    +0.023 HD
ENDBRANCH   2  55
BRANCH   1  59
ATOM     59  C   UNL     1     134.247 155.679 197.674  0.00  0.00    +0.020 C 
ATOM     60  H   UNL     1     133.761 155.816 196.703  0.00  0.00    +0.036 HD
BRANCH  59  61
ATOM     61  C   UNL     1     135.561 156.456 197.494  0.00  0.00    -0.057 C 
ATOM     62  H   UNL     1     136.320 156.107 198.202  0.00  0.00    +0.023 HD
ATOM     63  H   UNL     1     135.973 156.297 196.491  0.00  0.00    +0.023 HD
ATOM     64  H   UNL     1     135.430 157.532 197.634  0.00  0.00    +0.023 HD
ENDBRANCH  59  61
BRANCH  59  65
ATOM     65  C   UNL     1     134.493 154.154 197.868  0.00  0.00    +0.064 C 
ATOM     66  H   UNL     1     134.099 153.824 198.834  0.00  0.00    +0.060 HD
BRANCH  65  67
ATOM     67  C   UNL     1     135.957 153.619 197.746  0.00  0.00    -0.017 C 
ATOM     68  H   UNL     1     136.631 154.474 197.828  0.00  0.00    +0.032 HD
BRANCH  67  69
ATOM     69  C   UNL     1     136.290 152.627 198.862  0.00  0.00    -0.060 C 
ATOM     70  H   UNL     1     135.620 152.735 199.720  0.00  0.00    +0.023 HD
ATOM     71  H   UNL     1     137.317 152.758 199.216  0.00  0.00    +0.023 HD
ATOM     72  H   UNL     1     136.166 151.594 198.533  0.00  0.00    +0.023 HD
ENDBRANCH  67  69
BRANCH  67  73
ATOM     73  C   UNL     1     136.181 152.998 196.340  0.00  0.00    -0.046 C 
ATOM     74  H   UNL     1     136.674 152.027 196.486  0.00  0.00    +0.027 HD
ATOM     75  H   UNL     1     135.211 152.776 195.877  0.00  0.00    +0.027 HD
BRANCH  73  76
ATOM     76  C   UNL     1     137.023 153.773 195.317  0.00  0.00    -0.026 C 
ATOM     77  H   UNL     1     137.884 154.257 195.790  0.00  0.00    +0.029 HD
ATOM     78  H   UNL     1     137.483 153.022 194.658  0.00  0.00    +0.029 HD
BRANCH  76  83
ATOM     79  C   UNL     1     134.483 153.852 193.082  0.00  0.00    +0.059 C 
ATOM     80  C   UNL     1     134.562 154.996 192.076  0.00  0.00    -0.000 C 
ATOM     81  C   UNL     1     135.980 155.575 191.996  0.00  0.00    +0.063 C 
ATOM     82  C   UNL     1     136.929 154.940 193.013  0.00  0.00    -0.000 C 
ATOM     83  C   UNL     1     136.293 154.771 194.397  0.00  0.00    +0.061 C 
ATOM     84  O   UNL     1     134.925 154.328 194.351  0.00  0.00    -0.373 OA
ATOM     85  H   UNL     1     135.106 153.005 192.771  0.00  0.00    +0.059 HD
ATOM     86  H   UNL     1     134.250 154.647 191.086  0.00  0.00    +0.032 HD
ATOM     87  H   UNL     1     133.858 155.786 192.370  0.00  0.00    +0.032 HD
ATOM     88  H   UNL     1     136.397 155.396 190.997  0.00  0.00    +0.060 HD
ATOM     89  H   UNL     1     137.232 153.960 192.629  0.00  0.00    +0.032 HD
ATOM     90  H   UNL     1     137.829 155.554 193.097  0.00  0.00    +0.032 HD
ATOM     91  H   UNL     1     136.273 155.748 194.895  0.00  0.00    +0.060 HD
BRANCH  79  92
ATOM     92  C   UNL     1     133.051 153.357 193.239  0.00  0.00    -0.039 C 
ATOM     93  H   UNL     1     132.694 152.874 192.327  0.00  0.00    +0.025 HD
ATOM     94  H   UNL     1     132.986 152.643 194.063  0.00  0.00    +0.025 HD
ATOM     95  H   UNL     1     132.375 154.186 193.487  0.00  0.00    +0.025 HD
ENDBRANCH  79  92
BRANCH  81  96
ATOM     96  O   UNL     1     135.957 156.991 192.224  0.00  0.00    -0.380 OA
BRANCH  96  97
ATOM     97  C   UNL     1     134.757 157.609 191.774  0.00  0.00    +0.037 C 
ATOM     98  H   UNL     1     134.939 158.669 191.560  0.00  0.00    +0.052 HD
ATOM     99  H   UNL     1     134.012 157.537 192.571  0.00  0.00    +0.052 HD
ATOM    100  H   UNL     1     134.360 157.111 190.882  0.00  0.00    +0.052 HD
ENDBRANCH  96  97
ENDBRANCH  81  96
ENDBRANCH  76  83
ENDBRANCH  73  76
ENDBRANCH  67  73
ENDBRANCH  65  67
BRANCH  65 101
ATOM    101  O   UNL     1     133.701 153.483 196.874  0.00  0.00    -0.391 OA
ATOM    102  H   UNL     1     134.334 153.043 196.268  0.00  0.00    +0.210 HD
ENDBRANCH  65 101
ENDBRANCH  59  65
ENDBRANCH   1  59
BRANCH  19 103
ATOM    103  O   UNL     1     134.832 164.691 198.808  0.00  0.00    -0.385 OA
ATOM    104  H   UNL     1     134.457 165.570 198.614  0.00  0.00    +0.210 HD
ENDBRANCH  19 103
BRANCH  18 105
ATOM    105  O   UNL     1     131.942 164.274 201.054  0.00  0.00    -0.377 OA
BRANCH 105 106
ATOM    106  C   UNL     1     130.952 165.090 201.664  0.00  0.00    +0.037 C 
ATOM    107  H   UNL     1     131.270 166.135 201.743  0.00  0.00    +0.052 HD
ATOM    108  H   UNL     1     130.049 165.049 201.048  0.00  0.00    +0.052 HD
ATOM    109  H   UNL     1     130.709 164.698 202.658  0.00  0.00    +0.052 HD
ENDBRANCH 105 106
ENDBRANCH  18 105
BRANCH   9 110
ATOM    110  O   UNL     1     129.371 160.108 196.297  0.00  0.00    -0.377 OA
BRANCH 110 111
ATOM    111  C   UNL     1     128.097 160.141 195.664  0.00  0.00    +0.037 C 
ATOM    112  H   UNL     1     127.716 161.165 195.634  0.00  0.00    +0.052 HD
ATOM    113  H   UNL     1     127.406 159.532 196.253  0.00  0.00    +0.052 HD
ATOM    114  H   UNL     1     128.147 159.728 194.651  0.00  0.00    +0.052 HD
ENDBRANCH 110 111
ENDBRANCH   9 110
BRANCH   5 115
ATOM    115  O   UNL     1     132.078 157.770 194.124  0.00  0.00    -0.377 OA
BRANCH 115 116
ATOM    116  C   UNL     1     131.301 157.154 193.106  0.00  0.00    +0.037 C 
ATOM    117  H   UNL     1     130.667 157.893 192.607  0.00  0.00    +0.052 HD
ATOM    118  H   UNL     1     131.936 156.655 192.369  0.00  0.00    +0.052 HD
ATOM    119  H   UNL     1     130.656 156.406 193.574  0.00  0.00    +0.052 HD
ENDBRANCH 115 116
ENDBRANCH   5 115
BRANCH   3 120
ATOM    120  O   UNL     1     131.735 155.688 196.030  0.00  0.00    -0.379 OA
BRANCH 120 121
ATOM    121  C   UNL     1     130.725 154.718 195.782  0.00  0.00    +0.037 C 
ATOM    122  H   UNL     1     131.187 153.868 195.274  0.00  0.00    +0.052 HD
ATOM    123  H   UNL     1     129.952 155.131 195.129  0.00  0.00    +0.052 HD
ATOM    124  H   UNL     1     130.280 154.364 196.715  0.00  0.00    +0.052 HD
ENDBRANCH 120 121
ENDBRANCH   3 120
TORSDOF 23
ENDMDL
MODEL 9
REMARK VINA RESULT:      -5.2      4.064     11.450
REMARK  Name = Lobophorolide_conf3
REMARK  23 active torsions:
REMARK  status: ('A' for Active; 'I' for Inactive)
REMARK    1  A    between atoms: C_1  and  C_2
REMARK    2  A    between atoms: C_4  and  O_53
REMARK    3  A    between atoms: C_6  and  C_8
REMARK    4  A    between atoms: C_8  and  C_9
REMARK    5  A    between atoms: C_9  and  C_10
REMARK    6  A    between atoms: C_10  and  C_11
REMARK    7  A    between atoms: C_10  and  C_12
REMARK    8  A    between atoms: C_12  and  C_13
REMARK    9  A    between atoms: C_12  and  O_52
REMARK   10  A    between atoms: C_13  and  C_14
REMARK   11  A    between atoms: C_13  and  C_15
REMARK   12  A    between atoms: C_16  and  C_51
REMARK   13  A    between atoms: C_17  and  O_49
REMARK   14  A    between atoms: C_19  and  O_47
REMARK   15  A    between atoms: C_23  and  O_45
REMARK   16  A    between atoms: C_32  and  O_43
REMARK   17  A    between atoms: C_33  and  O_42
REMARK   18  A    between atoms: C_35  and  C_41
REMARK   19  A    between atoms: O_43  and  C_44
REMARK   20  A    between atoms: O_45  and  C_46
REMARK   21  A    between atoms: O_47  and  C_48
REMARK   22  A    between atoms: O_49  and  C_50
REMARK   23  A    between atoms: O_53  and  C_54
REMARK                            x       y       z     vdW  Elec       q    Type
REMARK                         _______ _______ _______ _____ _____    ______ ____
ROOT
ATOM      1  C   UNL     1     149.473 165.179 187.428  0.00  0.00    +0.113 C 
ATOM      2  C   UNL     1     150.772 165.846 187.987  0.00  0.00    +0.020 C 
ATOM      3  C   UNL     1     150.961 165.909 189.530  0.00  0.00    +0.067 C 
ATOM      4  C   UNL     1     149.799 166.567 190.310  0.00  0.00    +0.003 C 
ATOM      5  C   UNL     1     150.112 166.678 191.821  0.00  0.00    +0.094 C 
ATOM      6  C   UNL     1     149.256 167.748 192.507  0.00  0.00    +0.145 C 
ATOM      7  C   UNL     1     147.912 167.341 193.104  0.00  0.00    +0.083 C 
ATOM      8  O   UNL     1     149.067 167.517 193.927  0.00  0.00    -0.363 OA
ATOM      9  C   UNL     1     149.565 169.225 192.242  0.00  0.00    +0.094 C 
ATOM     10  C   UNL     1     148.445 169.917 191.448  0.00  0.00    +0.003 C 
ATOM     11  C   UNL     1     148.728 171.391 191.082  0.00  0.00    +0.065 C 
ATOM     12  C   UNL     1     149.038 172.339 192.253  0.00  0.00    -0.008 C 
ATOM     13  C   UNL     1     147.803 172.686 193.023  0.00  0.00    -0.083 C 
ATOM     14  C   UNL     1     146.596 172.565 192.450  0.00  0.00    -0.059 C 
ATOM     15  C   UNL     1     146.397 172.091 191.023  0.00  0.00    +0.080 C 
ATOM     16  O   UNL     1     147.641 171.951 190.320  0.00  0.00    -0.369 OA
ATOM     17  C   UNL     1     145.501 173.084 190.270  0.00  0.00    +0.006 C 
ATOM     18  C   UNL     1     145.124 172.730 188.812  0.00  0.00    +0.090 C 
ATOM     19  C   UNL     1     144.513 171.313 188.602  0.00  0.00    +0.100 C 
ATOM     20  C   UNL     1     145.498 170.186 188.404  0.00  0.00    -0.051 C 
ATOM     21  C   UNL     1     145.321 169.076 187.658  0.00  0.00    -0.052 C 
ATOM     22  C   UNL     1     146.442 168.155 187.490  0.00  0.00    -0.052 C 
ATOM     23  C   UNL     1     146.499 167.178 186.573  0.00  0.00    +0.023 C 
ATOM     24  C   UNL     1     147.652 166.287 186.373  0.00  0.00    +0.332 C 
ATOM     25  O   UNL     1     147.835 165.721 185.306  0.00  0.00    -0.246 OA
ATOM     26  O   UNL     1     148.385 166.135 187.508  0.00  0.00    -0.458 OA
ATOM     27  H   UNL     1     149.699 164.984 186.375  0.00  0.00    +0.074 HD
ATOM     28  H   UNL     1     151.599 165.233 187.600  0.00  0.00    +0.036 HD
ATOM     29  H   UNL     1     151.853 166.516 189.734  0.00  0.00    +0.060 HD
ATOM     30  H   UNL     1     148.879 165.983 190.194  0.00  0.00    +0.032 HD
ATOM     31  H   UNL     1     149.614 167.561 189.891  0.00  0.00    +0.032 HD
ATOM     32  H   UNL     1     151.172 166.925 191.954  0.00  0.00    +0.063 HD
ATOM     33  H   UNL     1     147.115 168.063 193.218  0.00  0.00    +0.059 HD
ATOM     34  H   UNL     1     147.556 166.330 192.943  0.00  0.00    +0.059 HD
ATOM     35  H   UNL     1     149.664 169.737 193.209  0.00  0.00    +0.063 HD
ATOM     36  H   UNL     1     147.508 169.844 192.008  0.00  0.00    +0.032 HD
ATOM     37  H   UNL     1     148.263 169.372 190.514  0.00  0.00    +0.032 HD
ATOM     38  H   UNL     1     149.595 171.405 190.410  0.00  0.00    +0.060 HD
ATOM     39  H   UNL     1     149.440 173.278 191.852  0.00  0.00    +0.033 HD
ATOM     40  H   UNL     1     149.802 171.927 192.916  0.00  0.00    +0.033 HD
ATOM     41  H   UNL     1     147.900 173.054 194.039  0.00  0.00    +0.057 HD
ATOM     42  H   UNL     1     145.703 172.797 193.026  0.00  0.00    +0.059 HD
ATOM     43  H   UNL     1     145.906 171.114 191.068  0.00  0.00    +0.064 HD
ATOM     44  H   UNL     1     144.567 173.213 190.834  0.00  0.00    +0.032 HD
ATOM     45  H   UNL     1     146.002 174.059 190.268  0.00  0.00    +0.032 HD
ATOM     46  H   UNL     1     144.323 173.434 188.541  0.00  0.00    +0.063 HD
ATOM     47  H   UNL     1     143.901 171.387 187.695  0.00  0.00    +0.066 HD
ATOM     48  H   UNL     1     146.480 170.367 188.828  0.00  0.00    +0.060 HD
ATOM     49  H   UNL     1     147.304 168.324 188.132  0.00  0.00    +0.062 HD
ATOM     50  H   UNL     1     145.705 167.011 185.856  0.00  0.00    +0.069 HD
ENDROOT
BRANCH  21  51
ATOM     51  C   UNL     1     144.015 168.733 186.985  0.00  0.00    -0.040 C 
ATOM     52  H   UNL     1     143.702 169.482 186.251  0.00  0.00    +0.028 HD
ATOM     53  H   UNL     1     144.097 167.772 186.462  0.00  0.00    +0.028 HD
ATOM     54  H   UNL     1     143.198 168.667 187.714  0.00  0.00    +0.028 HD
ENDBRANCH  21  51
BRANCH   2  55
ATOM     55  C   UNL     1     150.967 167.243 187.374  0.00  0.00    -0.057 C 
ATOM     56  H   UNL     1     150.008 167.772 187.310  0.00  0.00    +0.023 HD
ATOM     57  H   UNL     1     151.652 167.862 187.961  0.00  0.00    +0.023 HD
ATOM     58  H   UNL     1     151.369 167.166 186.358  0.00  0.00    +0.023 HD
ENDBRANCH   2  55
BRANCH   1  59
ATOM     59  C   UNL     1     149.039 163.836 188.086  0.00  0.00    +0.020 C 
ATOM     60  H   UNL     1     149.711 163.674 188.935  0.00  0.00    +0.036 HD
BRANCH  59  61
ATOM     61  C   UNL     1     147.663 163.894 188.769  0.00  0.00    -0.057 C 
ATOM     62  H   UNL     1     147.111 164.787 188.457  0.00  0.00    +0.023 HD
ATOM     63  H   UNL     1     147.049 163.032 188.483  0.00  0.00    +0.023 HD
ATOM     64  H   UNL     1     147.740 163.902 189.859  0.00  0.00    +0.023 HD
ENDBRANCH  59  61
BRANCH  59  65
ATOM     65  C   UNL     1     149.169 162.607 187.139  0.00  0.00    +0.064 C 
ATOM     66  H   UNL     1     148.274 161.981 187.202  0.00  0.00    +0.060 HD
BRANCH  65  67
ATOM     67  C   UNL     1     150.412 161.673 187.307  0.00  0.00    -0.017 C 
ATOM     68  H   UNL     1     150.201 160.741 186.780  0.00  0.00    +0.032 HD
BRANCH  67  69
ATOM     69  C   UNL     1     151.672 162.300 186.706  0.00  0.00    -0.060 C 
ATOM     70  H   UNL     1     151.851 163.308 187.089  0.00  0.00    +0.023 HD
ATOM     71  H   UNL     1     151.603 162.360 185.615  0.00  0.00    +0.023 HD
ATOM     72  H   UNL     1     152.568 161.733 186.966  0.00  0.00    +0.023 HD
ENDBRANCH  67  69
BRANCH  67  73
ATOM     73  C   UNL     1     150.609 161.312 188.805  0.00  0.00    -0.046 C 
ATOM     74  H   UNL     1     151.645 161.568 189.070  0.00  0.00    +0.027 HD
ATOM     75  H   UNL     1     149.972 161.957 189.425  0.00  0.00    +0.027 HD
BRANCH  73  76
ATOM     76  C   UNL     1     150.383 159.861 189.249  0.00  0.00    -0.026 C 
ATOM     77  H   UNL     1     150.775 159.150 188.514  0.00  0.00    +0.029 HD
ATOM     78  H   UNL     1     151.025 159.700 190.129  0.00  0.00    +0.029 HD
BRANCH  76  83
ATOM     79  C   UNL     1     147.266 159.629 187.951  0.00  0.00    +0.059 C 
ATOM     80  C   UNL     1     146.145 159.687 188.984  0.00  0.00    -0.000 C 
ATOM     81  C   UNL     1     146.633 160.292 190.306  0.00  0.00    +0.063 C 
ATOM     82  C   UNL     1     148.134 160.584 190.297  0.00  0.00    -0.000 C 
ATOM     83  C   UNL     1     148.958 159.454 189.672  0.00  0.00    +0.061 C 
ATOM     84  O   UNL     1     148.353 158.884 188.497  0.00  0.00    -0.373 OA
ATOM     85  H   UNL     1     147.610 160.634 187.680  0.00  0.00    +0.059 HD
ATOM     86  H   UNL     1     145.308 160.276 188.596  0.00  0.00    +0.032 HD
ATOM     87  H   UNL     1     145.764 158.672 189.162  0.00  0.00    +0.032 HD
ATOM     88  H   UNL     1     146.112 161.240 190.494  0.00  0.00    +0.060 HD
ATOM     89  H   UNL     1     148.296 161.510 189.734  0.00  0.00    +0.032 HD
ATOM     90  H   UNL     1     148.472 160.759 191.322  0.00  0.00    +0.032 HD
ATOM     91  H   UNL     1     149.033 158.634 190.395  0.00  0.00    +0.060 HD
BRANCH  79  92
ATOM     92  C   UNL     1     146.806 158.924 186.681  0.00  0.00    -0.039 C 
ATOM     93  H   UNL     1     147.557 158.998 185.890  0.00  0.00    +0.025 HD
ATOM     94  H   UNL     1     146.612 157.869 186.883  0.00  0.00    +0.025 HD
ATOM     95  H   UNL     1     145.865 159.354 186.315  0.00  0.00    +0.025 HD
ENDBRANCH  79  92
BRANCH  81  96
ATOM     96  O   UNL     1     146.354 159.404 191.398  0.00  0.00    -0.380 OA
BRANCH  96  97
ATOM     97  C   UNL     1     145.581 158.272 191.012  0.00  0.00    +0.037 C 
ATOM     98  H   UNL     1     145.934 157.380 191.543  0.00  0.00    +0.052 HD
ATOM     99  H   UNL     1     145.714 158.114 189.938  0.00  0.00    +0.052 HD
ATOM    100  H   UNL     1     144.515 158.428 191.211  0.00  0.00    +0.052 HD
ENDBRANCH  96  97
ENDBRANCH  81  96
ENDBRANCH  76  83
ENDBRANCH  73  76
ENDBRANCH  67  73
ENDBRANCH  65  67
BRANCH  65 101
ATOM    101  O   UNL     1     149.191 163.124 185.799  0.00  0.00    -0.391 OA
ATOM    102  H   UNL     1     149.486 164.057 185.869  0.00  0.00    +0.210 HD
ENDBRANCH  65 101
ENDBRANCH  59  65
ENDBRANCH   1  59
BRANCH  19 103
ATOM    103  O   UNL     1     143.635 170.985 189.678  0.00  0.00    -0.385 OA
ATOM    104  H   UNL     1     143.581 170.013 189.723  0.00  0.00    +0.210 HD
ENDBRANCH  19 103
BRANCH  18 105
ATOM    105  O   UNL     1     146.214 172.924 187.899  0.00  0.00    -0.377 OA
BRANCH 105 106
ATOM    106  C   UNL     1     145.803 173.287 186.588  0.00  0.00    +0.037 C 
ATOM    107  H   UNL     1     146.527 173.946 186.098  0.00  0.00    +0.052 HD
ATOM    108  H   UNL     1     145.710 172.373 185.994  0.00  0.00    +0.052 HD
ATOM    109  H   UNL     1     144.822 173.773 186.628  0.00  0.00    +0.052 HD
ENDBRANCH 105 106
ENDBRANCH  18 105
BRANCH   9 110
ATOM    110  O   UNL     1     150.788 169.363 191.503  0.00  0.00    -0.377 OA
BRANCH 110 111
ATOM    111  C   UNL     1     151.826 169.959 192.272  0.00  0.00    +0.037 C 
ATOM    112  H   UNL     1     152.705 170.139 191.648  0.00  0.00    +0.052 HD
ATOM    113  H   UNL     1     152.105 169.265 193.069  0.00  0.00    +0.052 HD
ATOM    114  H   UNL     1     151.492 170.897 192.729  0.00  0.00    +0.052 HD
ENDBRANCH 110 111
ENDBRANCH   9 110
BRANCH   5 115
ATOM    115  O   UNL     1     149.851 165.384 192.402  0.00  0.00    -0.377 OA
BRANCH 115 116
ATOM    116  C   UNL     1     150.854 164.971 193.320  0.00  0.00    +0.037 C 
ATOM    117  H   UNL     1     151.595 164.341 192.821  0.00  0.00    +0.052 HD
ATOM    118  H   UNL     1     151.349 165.831 193.778  0.00  0.00    +0.052 HD
ATOM    119  H   UNL     1     150.376 164.384 194.108  0.00  0.00    +0.052 HD
ENDBRANCH 115 116
ENDBRANCH   5 115
BRANCH   3 120
ATOM    120  O   UNL     1     151.200 164.582 190.031  0.00  0.00    -0.379 OA
BRANCH 120 121
ATOM    121  C   UNL     1     152.575 164.218 190.023  0.00  0.00    +0.037 C 
ATOM    122  H   UNL     1     152.649 163.172 189.718  0.00  0.00    +0.052 HD
ATOM    123  H   UNL     1     153.002 164.317 191.025  0.00  0.00    +0.052 HD
ATOM    124  H   UNL     1     153.140 164.827 189.312  0.00  0.00    +0.052 HD
ENDBRANCH 120 121
ENDBRANCH   3 120
TORSDOF 23
ENDMDL
MODEL 10
REMARK VINA RESULT:      -5.1      4.445     11.964
REMARK  Name = Lobophorolide_conf3
REMARK  23 active torsions:
REMARK  status: ('A' for Active; 'I' for Inactive)
REMARK    1  A    between atoms: C_1  and  C_2
REMARK    2  A    between atoms: C_4  and  O_53
REMARK    3  A    between atoms: C_6  and  C_8
REMARK    4  A    between atoms: C_8  and  C_9
REMARK    5  A    between atoms: C_9  and  C_10
REMARK    6  A    between atoms: C_10  and  C_11
REMARK    7  A    between atoms: C_10  and  C_12
REMARK    8  A    between atoms: C_12  and  C_13
REMARK    9  A    between atoms: C_12  and  O_52
REMARK   10  A    between atoms: C_13  and  C_14
REMARK   11  A    between atoms: C_13  and  C_15
REMARK   12  A    between atoms: C_16  and  C_51
REMARK   13  A    between atoms: C_17  and  O_49
REMARK   14  A    between atoms: C_19  and  O_47
REMARK   15  A    between atoms: C_23  and  O_45
REMARK   16  A    between atoms: C_32  and  O_43
REMARK   17  A    between atoms: C_33  and  O_42
REMARK   18  A    between atoms: C_35  and  C_41
REMARK   19  A    between atoms: O_43  and  C_44
REMARK   20  A    between atoms: O_45  and  C_46
REMARK   21  A    between atoms: O_47  and  C_48
REMARK   22  A    between atoms: O_49  and  C_50
REMARK   23  A    between atoms: O_53  and  C_54
REMARK                            x       y       z     vdW  Elec       q    Type
REMARK                         _______ _______ _______ _____ _____    ______ ____
ROOT
ATOM      1  C   UNL     1     147.829 164.861 187.733  0.00  0.00    +0.113 C 
ATOM      2  C   UNL     1     149.314 165.292 187.972  0.00  0.00    +0.020 C 
ATOM      3  C   UNL     1     149.849 165.304 189.432  0.00  0.00    +0.067 C 
ATOM      4  C   UNL     1     149.018 166.141 190.433  0.00  0.00    +0.003 C 
ATOM      5  C   UNL     1     149.674 166.180 191.833  0.00  0.00    +0.094 C 
ATOM      6  C   UNL     1     149.185 167.372 192.663  0.00  0.00    +0.145 C 
ATOM      7  C   UNL     1     147.960 167.192 193.554  0.00  0.00    +0.083 C 
ATOM      8  O   UNL     1     149.282 167.159 194.095  0.00  0.00    -0.363 OA
ATOM      9  C   UNL     1     149.670 168.778 192.297  0.00  0.00    +0.094 C 
ATOM     10  C   UNL     1     148.534 169.659 191.753  0.00  0.00    +0.003 C 
ATOM     11  C   UNL     1     148.972 171.067 191.294  0.00  0.00    +0.065 C 
ATOM     12  C   UNL     1     149.690 171.935 192.341  0.00  0.00    -0.008 C 
ATOM     13  C   UNL     1     148.734 172.478 193.356  0.00  0.00    -0.083 C 
ATOM     14  C   UNL     1     147.427 172.570 193.068  0.00  0.00    -0.059 C 
ATOM     15  C   UNL     1     146.838 172.153 191.734  0.00  0.00    +0.080 C 
ATOM     16  O   UNL     1     147.852 171.813 190.777  0.00  0.00    -0.369 OA
ATOM     17  C   UNL     1     145.976 173.293 191.172  0.00  0.00    +0.006 C 
ATOM     18  C   UNL     1     145.230 173.025 189.844  0.00  0.00    +0.090 C 
ATOM     19  C   UNL     1     144.358 171.734 189.813  0.00  0.00    +0.100 C 
ATOM     20  C   UNL     1     145.071 170.459 189.432  0.00  0.00    -0.051 C 
ATOM     21  C   UNL     1     144.547 169.403 188.773  0.00  0.00    -0.052 C 
ATOM     22  C   UNL     1     145.432 168.308 188.386  0.00  0.00    -0.052 C 
ATOM     23  C   UNL     1     145.119 167.347 187.506  0.00  0.00    +0.023 C 
ATOM     24  C   UNL     1     146.031 166.275 187.079  0.00  0.00    +0.332 C 
ATOM     25  O   UNL     1     145.874 165.698 186.014  0.00  0.00    -0.246 OA
ATOM     26  O   UNL     1     146.963 165.988 188.027  0.00  0.00    -0.458 OA
ATOM     27  H   UNL     1     147.778 164.643 186.662  0.00  0.00    +0.074 HD
ATOM     28  H   UNL     1     149.918 164.552 187.428  0.00  0.00    +0.036 HD
ATOM     29  H   UNL     1     150.853 165.749 189.417  0.00  0.00    +0.060 HD
ATOM     30  H   UNL     1     148.011 165.722 190.540  0.00  0.00    +0.032 HD
ATOM     31  H   UNL     1     148.913 167.156 190.039  0.00  0.00    +0.032 HD
ATOM     32  H   UNL     1     150.763 166.242 191.722  0.00  0.00    +0.063 HD
ATOM     33  H   UNL     1     147.341 168.037 193.823  0.00  0.00    +0.059 HD
ATOM     34  H   UNL     1     147.411 166.257 193.503  0.00  0.00    +0.059 HD
ATOM     35  H   UNL     1     150.068 169.255 193.204  0.00  0.00    +0.063 HD
ATOM     36  H   UNL     1     147.747 169.740 192.508  0.00  0.00    +0.032 HD
ATOM     37  H   UNL     1     148.059 169.163 190.897  0.00  0.00    +0.032 HD
ATOM     38  H   UNL     1     149.657 170.942 190.446  0.00  0.00    +0.060 HD
ATOM     39  H   UNL     1     150.144 172.797 191.836  0.00  0.00    +0.033 HD
ATOM     40  H   UNL     1     150.502 171.392 192.829  0.00  0.00    +0.033 HD
ATOM     41  H   UNL     1     149.116 172.813 194.315  0.00  0.00    +0.057 HD
ATOM     42  H   UNL     1     146.737 172.944 193.821  0.00  0.00    +0.059 HD
ATOM     43  H   UNL     1     146.213 171.274 191.912  0.00  0.00    +0.064 HD
ATOM     44  H   UNL     1     145.227 173.572 191.925  0.00  0.00    +0.032 HD
ATOM     45  H   UNL     1     146.621 174.169 191.033  0.00  0.00    +0.032 HD
ATOM     46  H   UNL     1     144.519 173.857 189.739  0.00  0.00    +0.063 HD
ATOM     47  H   UNL     1     143.581 171.922 189.062  0.00  0.00    +0.066 HD
ATOM     48  H   UNL     1     146.139 170.466 189.623  0.00  0.00    +0.060 HD
ATOM     49  H   UNL     1     146.432 168.320 188.816  0.00  0.00    +0.062 HD
ATOM     50  H   UNL     1     144.169 167.324 186.987  0.00  0.00    +0.069 HD
ENDROOT
BRANCH  21  51
ATOM     51  C   UNL     1     143.086 169.295 188.416  0.00  0.00    -0.040 C 
ATOM     52  H   UNL     1     142.509 170.181 188.699  0.00  0.00    +0.028 HD
ATOM     53  H   UNL     1     142.968 169.155 187.335  0.00  0.00    +0.028 HD
ATOM     54  H   UNL     1     142.613 168.451 188.933  0.00  0.00    +0.028 HD
ENDBRANCH  21  51
BRANCH   2  55
ATOM     55  C   UNL     1     149.599 166.643 187.294  0.00  0.00    -0.057 C 
ATOM     56  H   UNL     1     148.740 166.958 186.689  0.00  0.00    +0.023 HD
ATOM     57  H   UNL     1     149.807 167.435 188.018  0.00  0.00    +0.023 HD
ATOM     58  H   UNL     1     150.462 166.564 186.624  0.00  0.00    +0.023 HD
ENDBRANCH   2  55
BRANCH   1  59
ATOM     59  C   UNL     1     147.333 163.604 188.507  0.00  0.00    +0.020 C 
ATOM     60  H   UNL     1     148.211 163.181 189.006  0.00  0.00    +0.036 HD
BRANCH  59  61
ATOM     61  C   UNL     1     146.409 163.927 189.692  0.00  0.00    -0.057 C 
ATOM     62  H   UNL     1     145.551 164.524 189.365  0.00  0.00    +0.023 HD
ATOM     63  H   UNL     1     146.001 163.009 190.130  0.00  0.00    +0.023 HD
ATOM     64  H   UNL     1     146.926 164.475 190.484  0.00  0.00    +0.023 HD
ENDBRANCH  59  61
BRANCH  59  65
ATOM     65  C   UNL     1     146.737 162.500 187.585  0.00  0.00    +0.064 C 
ATOM     66  H   UNL     1     145.644 162.513 187.634  0.00  0.00    +0.060 HD
BRANCH  65  67
ATOM     67  C   UNL     1     147.203 161.024 187.803  0.00  0.00    -0.017 C 
ATOM     68  H   UNL     1     147.462 160.609 186.827  0.00  0.00    +0.032 HD
BRANCH  67  69
ATOM     69  C   UNL     1     148.436 160.950 188.707  0.00  0.00    -0.060 C 
ATOM     70  H   UNL     1     148.310 161.536 189.621  0.00  0.00    +0.023 HD
ATOM     71  H   UNL     1     149.329 161.317 188.190  0.00  0.00    +0.023 HD
ATOM     72  H   UNL     1     148.627 159.931 189.046  0.00  0.00    +0.023 HD
ENDBRANCH  67  69
BRANCH  67  73
ATOM     73  C   UNL     1     146.031 160.171 188.361  0.00  0.00    -0.046 C 
ATOM     74  H   UNL     1     145.123 160.789 188.309  0.00  0.00    +0.027 HD
ATOM     75  H   UNL     1     145.850 159.315 187.698  0.00  0.00    +0.027 HD
BRANCH  73  76
ATOM     76  C   UNL     1     146.123 159.641 189.798  0.00  0.00    -0.026 C 
ATOM     77  H   UNL     1     146.803 160.247 190.407  0.00  0.00    +0.029 HD
ATOM     78  H   UNL     1     145.140 159.816 190.260  0.00  0.00    +0.029 HD
BRANCH  76  83
ATOM     79  C   UNL     1     148.703 157.472 189.491  0.00  0.00    +0.059 C 
ATOM     80  C   UNL     1     148.287 156.018 189.295  0.00  0.00    -0.000 C 
ATOM     81  C   UNL     1     146.832 155.911 188.821  0.00  0.00    +0.063 C 
ATOM     82  C   UNL     1     146.133 157.270 188.768  0.00  0.00    -0.000 C 
ATOM     83  C   UNL     1     146.434 158.143 189.990  0.00  0.00    +0.061 C 
ATOM     84  O   UNL     1     147.808 158.083 190.416  0.00  0.00    -0.373 OA
ATOM     85  H   UNL     1     148.684 158.023 188.543  0.00  0.00    +0.059 HD
ATOM     86  H   UNL     1     148.947 155.533 188.568  0.00  0.00    +0.032 HD
ATOM     87  H   UNL     1     148.407 155.476 190.242  0.00  0.00    +0.032 HD
ATOM     88  H   UNL     1     146.802 155.483 187.810  0.00  0.00    +0.060 HD
ATOM     89  H   UNL     1     146.464 157.786 187.860  0.00  0.00    +0.032 HD
ATOM     90  H   UNL     1     145.054 157.116 188.685  0.00  0.00    +0.032 HD
ATOM     91  H   UNL     1     145.844 157.775 190.838  0.00  0.00    +0.060 HD
BRANCH  79  92
ATOM     92  C   UNL     1     150.110 157.567 190.068  0.00  0.00    -0.039 C 
ATOM     93  H   UNL     1     150.861 157.634 189.278  0.00  0.00    +0.025 HD
ATOM     94  H   UNL     1     150.197 158.446 190.711  0.00  0.00    +0.025 HD
ATOM     95  H   UNL     1     150.335 156.695 190.695  0.00  0.00    +0.025 HD
ENDBRANCH  79  92
BRANCH  81  96
ATOM     96  O   UNL     1     146.083 155.053 189.693  0.00  0.00    -0.380 OA
BRANCH  96  97
ATOM     97  C   UNL     1     146.462 153.685 189.590  0.00  0.00    +0.037 C 
ATOM     98  H   UNL     1     145.620 153.041 189.871  0.00  0.00    +0.052 HD
ATOM     99  H   UNL     1     147.287 153.503 190.285  0.00  0.00    +0.052 HD
ATOM    100  H   UNL     1     146.800 153.438 188.578  0.00  0.00    +0.052 HD
ENDBRANCH  96  97
ENDBRANCH  81  96
ENDBRANCH  76  83
ENDBRANCH  73  76
ENDBRANCH  67  73
ENDBRANCH  65  67
BRANCH  65 101
ATOM    101  O   UNL     1     147.073 162.868 186.237  0.00  0.00    -0.391 OA
ATOM    102  H   UNL     1     146.450 163.581 185.983  0.00  0.00    +0.210 HD
ENDBRANCH  65 101
ENDBRANCH  59  65
ENDBRANCH   1  59
BRANCH  19 103
ATOM    103  O   UNL     1     143.700 171.548 191.065  0.00  0.00    -0.385 OA
ATOM    104  H   UNL     1     144.380 171.596 191.761  0.00  0.00    +0.210 HD
ENDBRANCH  19 103
BRANCH  18 105
ATOM    105  O   UNL     1     146.105 173.041 188.707  0.00  0.00    -0.377 OA
BRANCH 105 106
ATOM    106  C   UNL     1     145.443 173.316 187.481  0.00  0.00    +0.037 C 
ATOM    107  H   UNL     1     146.127 173.277 186.626  0.00  0.00    +0.052 HD
ATOM    108  H   UNL     1     144.665 172.560 187.335  0.00  0.00    +0.052 HD
ATOM    109  H   UNL     1     144.963 174.299 187.530  0.00  0.00    +0.052 HD
ENDBRANCH 105 106
ENDBRANCH  18 105
BRANCH   9 110
ATOM    110  O   UNL     1     150.704 168.715 191.301  0.00  0.00    -0.377 OA
BRANCH 110 111
ATOM    111  C   UNL     1     151.994 168.985 191.837  0.00  0.00    +0.037 C 
ATOM    112  H   UNL     1     152.708 169.166 191.029  0.00  0.00    +0.052 HD
ATOM    113  H   UNL     1     152.323 168.107 192.398  0.00  0.00    +0.052 HD
ATOM    114  H   UNL     1     151.970 169.843 192.516  0.00  0.00    +0.052 HD
ENDBRANCH 110 111
ENDBRANCH   9 110
BRANCH   5 115
ATOM    115  O   UNL     1     149.336 164.942 192.492  0.00  0.00    -0.377 OA
BRANCH 115 116
ATOM    116  C   UNL     1     150.452 164.316 193.110  0.00  0.00    +0.037 C 
ATOM    117  H   UNL     1     150.397 164.422 194.198  0.00  0.00    +0.052 HD
ATOM    118  H   UNL     1     150.508 163.257 192.845  0.00  0.00    +0.052 HD
ATOM    119  H   UNL     1     151.360 164.812 192.760  0.00  0.00    +0.052 HD
ENDBRANCH 115 116
ENDBRANCH   5 115
BRANCH   3 120
ATOM    120  O   UNL     1     149.968 163.951 189.904  0.00  0.00    -0.379 OA
BRANCH 120 121
ATOM    121  C   UNL     1     151.182 163.323 189.509  0.00  0.00    +0.037 C 
ATOM    122  H   UNL     1     151.944 163.555 190.257  0.00  0.00    +0.052 HD
ATOM    123  H   UNL     1     151.516 163.713 188.544  0.00  0.00    +0.052 HD
ATOM    124  H   UNL     1     151.066 162.237 189.457  0.00  0.00    +0.052 HD
ENDBRANCH 120 121
ENDBRANCH   3 120
TORSDOF 23
ENDMDL
