MODEL 1
REMARK VINA RESULT:      -5.7      0.000      0.000
REMARK  Name = Lobophorolide_conf2
REMARK  23 active torsions:
REMARK  status: ('A' for Active; 'I' for Inactive)
REMARK    1  A    between atoms: C_1  and  C_2
REMARK    2  A    between atoms: C_4  and  O_53
REMARK    3  A    between atoms: C_6  and  C_8
REMARK    4  A    between atoms: C_8  and  C_9
REMARK    5  A    between atoms: C_9  and  C_10
REMARK    6  A    between atoms: C_10  and  C_11
REMARK    7  A    between atoms: C_10  and  C_12
REMARK    8  A    between atoms: C_12  and  C_13
REMARK    9  A    between atoms: C_12  and  O_52
REMARK   10  A    between atoms: C_13  and  C_14
REMARK   11  A    between atoms: C_13  and  C_15
REMARK   12  A    between atoms: C_16  and  C_51
REMARK   13  A    between atoms: C_17  and  O_49
REMARK   14  A    between atoms: C_19  and  O_47
REMARK   15  A    between atoms: C_23  and  O_45
REMARK   16  A    between atoms: C_32  and  O_43
REMARK   17  A    between atoms: C_33  and  O_42
REMARK   18  A    between atoms: C_35  and  C_41
REMARK   19  A    between atoms: O_43  and  C_44
REMARK   20  A    between atoms: O_45  and  C_46
REMARK   21  A    between atoms: O_47  and  C_48
REMARK   22  A    between atoms: O_49  and  C_50
REMARK   23  A    between atoms: O_53  and  C_54
REMARK                            x       y       z     vdW  Elec       q    Type
REMARK                         _______ _______ _______ _____ _____    ______ ____
ROOT
ATOM      1  C   UNL     1     150.581 165.188 190.287  0.00  0.00    +0.113 C 
ATOM      2  C   UNL     1     151.653 165.064 189.162  0.00  0.00    +0.020 C 
ATOM      3  C   UNL     1     152.338 163.654 189.174  0.00  0.00    +0.067 C 
ATOM      4  C   UNL     1     152.673 163.173 187.739  0.00  0.00    +0.003 C 
ATOM      5  C   UNL     1     151.770 162.019 187.236  0.00  0.00    +0.094 C 
ATOM      6  C   UNL     1     152.065 160.642 187.825  0.00  0.00    +0.145 C 
ATOM      7  C   UNL     1     153.520 160.202 187.980  0.00  0.00    +0.083 C 
ATOM      8  O   UNL     1     152.735 160.630 189.098  0.00  0.00    -0.363 OA
ATOM      9  C   UNL     1     151.035 159.530 187.591  0.00  0.00    +0.094 C 
ATOM     10  C   UNL     1     150.931 158.562 188.788  0.00  0.00    +0.003 C 
ATOM     11  C   UNL     1     150.126 157.266 188.603  0.00  0.00    +0.065 C 
ATOM     12  C   UNL     1     150.924 156.165 187.884  0.00  0.00    -0.008 C 
ATOM     13  C   UNL     1     150.069 154.952 187.689  0.00  0.00    -0.083 C 
ATOM     14  C   UNL     1     148.736 155.052 187.740  0.00  0.00    -0.059 C 
ATOM     15  C   UNL     1     148.000 156.357 187.942  0.00  0.00    +0.080 C 
ATOM     16  O   UNL     1     148.876 157.504 187.937  0.00  0.00    -0.369 OA
ATOM     17  C   UNL     1     147.154 156.352 189.225  0.00  0.00    +0.006 C 
ATOM     18  C   UNL     1     145.972 157.331 189.102  0.00  0.00    +0.090 C 
ATOM     19  C   UNL     1     145.664 158.044 190.443  0.00  0.00    +0.100 C 
ATOM     20  C   UNL     1     146.647 159.122 190.813  0.00  0.00    -0.051 C 
ATOM     21  C   UNL     1     146.891 160.289 190.178  0.00  0.00    -0.052 C 
ATOM     22  C   UNL     1     147.917 161.187 190.714  0.00  0.00    -0.052 C 
ATOM     23  C   UNL     1     148.285 162.354 190.168  0.00  0.00    +0.023 C 
ATOM     24  C   UNL     1     149.336 163.190 190.779  0.00  0.00    +0.332 C 
ATOM     25  O   UNL     1     149.921 162.957 191.823  0.00  0.00    -0.246 OA
ATOM     26  O   UNL     1     149.533 164.251 189.955  0.00  0.00    -0.458 OA
ATOM     27  H   UNL     1     151.050 164.934 191.245  0.00  0.00    +0.074 HD
ATOM     28  H   UNL     1     151.107 165.149 188.214  0.00  0.00    +0.036 HD
ATOM     29  H   UNL     1     151.701 162.908 189.659  0.00  0.00    +0.060 HD
ATOM     30  H   UNL     1     153.727 162.894 187.666  0.00  0.00    +0.032 HD
ATOM     31  H   UNL     1     152.556 164.013 187.043  0.00  0.00    +0.032 HD
ATOM     32  H   UNL     1     151.929 161.917 186.154  0.00  0.00    +0.063 HD
ATOM     33  H   UNL     1     154.321 160.842 187.640  0.00  0.00    +0.059 HD
ATOM     34  H   UNL     1     153.756 159.146 187.901  0.00  0.00    +0.059 HD
ATOM     35  H   UNL     1     150.037 159.964 187.445  0.00  0.00    +0.063 HD
ATOM     36  H   UNL     1     150.478 159.130 189.613  0.00  0.00    +0.032 HD
ATOM     37  H   UNL     1     151.928 158.269 189.138  0.00  0.00    +0.032 HD
ATOM     38  H   UNL     1     149.910 156.911 189.620  0.00  0.00    +0.060 HD
ATOM     39  H   UNL     1     151.806 155.902 188.479  0.00  0.00    +0.033 HD
ATOM     40  H   UNL     1     151.271 156.481 186.897  0.00  0.00    +0.033 HD
ATOM     41  H   UNL     1     150.553 154.000 187.502  0.00  0.00    +0.057 HD
ATOM     42  H   UNL     1     148.128 154.162 187.599  0.00  0.00    +0.059 HD
ATOM     43  H   UNL     1     147.343 156.479 187.072  0.00  0.00    +0.064 HD
ATOM     44  H   UNL     1     146.769 155.343 189.420  0.00  0.00    +0.032 HD
ATOM     45  H   UNL     1     147.784 156.630 190.076  0.00  0.00    +0.032 HD
ATOM     46  H   UNL     1     146.169 158.075 188.320  0.00  0.00    +0.063 HD
ATOM     47  H   UNL     1     145.638 157.298 191.249  0.00  0.00    +0.066 HD
ATOM     48  H   UNL     1     147.221 158.888 191.708  0.00  0.00    +0.060 HD
ATOM     49  H   UNL     1     148.413 160.865 191.629  0.00  0.00    +0.062 HD
ATOM     50  H   UNL     1     147.851 162.745 189.257  0.00  0.00    +0.069 HD
ENDROOT
BRANCH  21  51
ATOM     51  C   UNL     1     146.159 160.733 188.935  0.00  0.00    -0.040 C 
ATOM     52  H   UNL     1     146.231 161.819 188.819  0.00  0.00    +0.028 HD
ATOM     53  H   UNL     1     145.103 160.456 188.981  0.00  0.00    +0.028 HD
ATOM     54  H   UNL     1     146.539 160.279 188.018  0.00  0.00    +0.028 HD
ENDBRANCH  21  51
BRANCH   2  55
ATOM     55  C   UNL     1     152.702 166.185 189.205  0.00  0.00    -0.057 C 
ATOM     56  H   UNL     1     153.043 166.440 188.196  0.00  0.00    +0.023 HD
ATOM     57  H   UNL     1     152.300 167.104 189.638  0.00  0.00    +0.023 HD
ATOM     58  H   UNL     1     153.574 165.890 189.799  0.00  0.00    +0.023 HD
ENDBRANCH   2  55
BRANCH   1  59
ATOM     59  C   UNL     1     149.944 166.603 190.442  0.00  0.00    +0.020 C 
ATOM     60  H   UNL     1     150.649 167.321 190.007  0.00  0.00    +0.036 HD
BRANCH  59  61
ATOM     61  C   UNL     1     148.645 166.753 189.647  0.00  0.00    -0.057 C 
ATOM     62  H   UNL     1     148.837 167.109 188.631  0.00  0.00    +0.023 HD
ATOM     63  H   UNL     1     148.126 165.797 189.545  0.00  0.00    +0.023 HD
ATOM     64  H   UNL     1     147.949 167.435 190.140  0.00  0.00    +0.023 HD
ENDBRANCH  59  61
BRANCH  59  65
ATOM     65  C   UNL     1     149.796 167.012 191.940  0.00  0.00    +0.064 C 
ATOM     66  H   UNL     1     148.852 167.566 192.023  0.00  0.00    +0.060 HD
BRANCH  65  67
ATOM     67  C   UNL     1     150.924 167.866 192.600  0.00  0.00    -0.017 C 
ATOM     68  H   UNL     1     150.515 168.383 193.470  0.00  0.00    +0.032 HD
BRANCH  67  69
ATOM     69  C   UNL     1     151.996 166.896 193.130  0.00  0.00    -0.060 C 
ATOM     70  H   UNL     1     152.365 167.205 194.111  0.00  0.00    +0.023 HD
ATOM     71  H   UNL     1     152.856 166.836 192.451  0.00  0.00    +0.023 HD
ATOM     72  H   UNL     1     151.583 165.887 193.242  0.00  0.00    +0.023 HD
ENDBRANCH  67  69
BRANCH  67  73
ATOM     73  C   UNL     1     151.610 168.895 191.662  0.00  0.00    -0.046 C 
ATOM     74  H   UNL     1     151.314 168.718 190.625  0.00  0.00    +0.027 HD
ATOM     75  H   UNL     1     152.700 168.775 191.677  0.00  0.00    +0.027 HD
BRANCH  73  76
ATOM     76  C   UNL     1     151.279 170.368 191.969  0.00  0.00    -0.026 C 
ATOM     77  H   UNL     1     151.768 170.626 192.918  0.00  0.00    +0.029 HD
ATOM     78  H   UNL     1     151.722 171.009 191.200  0.00  0.00    +0.029 HD
BRANCH  76  83
ATOM     79  C   UNL     1     147.790 171.037 190.785  0.00  0.00    +0.059 C 
ATOM     80  C   UNL     1     147.455 172.275 191.617  0.00  0.00    -0.000 C 
ATOM     81  C   UNL     1     148.715 173.019 192.032  0.00  0.00    +0.063 C 
ATOM     82  C   UNL     1     149.620 172.065 192.806  0.00  0.00    -0.000 C 
ATOM     83  C   UNL     1     149.783 170.709 192.099  0.00  0.00    +0.061 C 
ATOM     84  O   UNL     1     149.192 170.741 190.801  0.00  0.00    -0.373 OA
ATOM     85  H   UNL     1     147.554 171.254 189.735  0.00  0.00    +0.059 HD
ATOM     86  H   UNL     1     146.790 172.939 191.047  0.00  0.00    +0.032 HD
ATOM     87  H   UNL     1     146.872 172.008 192.512  0.00  0.00    +0.032 HD
ATOM     88  H   UNL     1     149.230 173.385 191.135  0.00  0.00    +0.060 HD
ATOM     89  H   UNL     1     150.592 172.543 192.979  0.00  0.00    +0.032 HD
ATOM     90  H   UNL     1     149.220 171.897 193.815  0.00  0.00    +0.032 HD
ATOM     91  H   UNL     1     149.306 169.922 192.694  0.00  0.00    +0.060 HD
BRANCH  79  92
ATOM     92  C   UNL     1     146.950 169.828 191.188  0.00  0.00    -0.039 C 
ATOM     93  H   UNL     1     146.262 169.530 190.391  0.00  0.00    +0.025 HD
ATOM     94  H   UNL     1     147.592 168.973 191.417  0.00  0.00    +0.025 HD
ATOM     95  H   UNL     1     146.341 170.058 192.069  0.00  0.00    +0.025 HD
ENDBRANCH  79  92
BRANCH  81  96
ATOM     96  O   UNL     1     148.321 174.137 192.837  0.00  0.00    -0.380 OA
BRANCH  96  97
ATOM     97  C   UNL     1     147.539 173.768 193.969  0.00  0.00    +0.037 C 
ATOM     98  H   UNL     1     146.564 174.263 193.945  0.00  0.00    +0.052 HD
ATOM     99  H   UNL     1     147.381 172.687 193.935  0.00  0.00    +0.052 HD
ATOM    100  H   UNL     1     148.064 174.007 194.898  0.00  0.00    +0.052 HD
ENDBRANCH  96  97
ENDBRANCH  81  96
ENDBRANCH  76  83
ENDBRANCH  73  76
ENDBRANCH  67  73
ENDBRANCH  65  67
BRANCH  65 101
ATOM    101  O   UNL     1     149.606 165.823 192.723  0.00  0.00    -0.391 OA
ATOM    102  H   UNL     1     149.176 166.087 193.554  0.00  0.00    +0.210 HD
ENDBRANCH  65 101
ENDBRANCH  59  65
ENDBRANCH   1  59
BRANCH  19 103
ATOM    103  O   UNL     1     144.356 158.618 190.413  0.00  0.00    -0.385 OA
ATOM    104  H   UNL     1     143.891 158.202 191.162  0.00  0.00    +0.210 HD
ENDBRANCH  19 103
BRANCH  18 105
ATOM    105  O   UNL     1     144.801 156.553 188.742  0.00  0.00    -0.377 OA
BRANCH 105 106
ATOM    106  C   UNL     1     144.361 156.810 187.412  0.00  0.00    +0.037 C 
ATOM    107  H   UNL     1     145.126 156.510 186.689  0.00  0.00    +0.052 HD
ATOM    108  H   UNL     1     144.190 157.885 187.311  0.00  0.00    +0.052 HD
ATOM    109  H   UNL     1     143.421 156.286 187.212  0.00  0.00    +0.052 HD
ENDBRANCH 105 106
ENDBRANCH  18 105
BRANCH   9 110
ATOM    110  O   UNL     1     151.447 158.821 186.414  0.00  0.00    -0.377 OA
BRANCH 110 111
ATOM    111  C   UNL     1     150.618 159.098 185.296  0.00  0.00    +0.037 C 
ATOM    112  H   UNL     1     151.235 159.075 184.395  0.00  0.00    +0.052 HD
ATOM    113  H   UNL     1     150.173 160.093 185.389  0.00  0.00    +0.052 HD
ATOM    114  H   UNL     1     149.832 158.344 185.196  0.00  0.00    +0.052 HD
ENDBRANCH 110 111
ENDBRANCH   9 110
BRANCH   5 115
ATOM    115  O   UNL     1     150.395 162.352 187.484  0.00  0.00    -0.377 OA
BRANCH 115 116
ATOM    116  C   UNL     1     149.796 163.089 186.426  0.00  0.00    +0.037 C 
ATOM    117  H   UNL     1     148.792 162.707 186.217  0.00  0.00    +0.052 HD
ATOM    118  H   UNL     1     150.409 163.050 185.521  0.00  0.00    +0.052 HD
ATOM    119  H   UNL     1     149.710 164.130 186.745  0.00  0.00    +0.052 HD
ENDBRANCH 115 116
ENDBRANCH   5 115
BRANCH   3 120
ATOM    120  O   UNL     1     153.594 163.731 189.879  0.00  0.00    -0.379 OA
BRANCH 120 121
ATOM    121  C   UNL     1     154.722 163.448 189.058  0.00  0.00    +0.037 C 
ATOM    122  H   UNL     1     155.561 164.099 189.312  0.00  0.00    +0.052 HD
ATOM    123  H   UNL     1     155.014 162.398 189.145  0.00  0.00    +0.052 HD
ATOM    124  H   UNL     1     154.442 163.639 188.019  0.00  0.00    +0.052 HD
ENDBRANCH 120 121
ENDBRANCH   3 120
TORSDOF 23
ENDMDL
MODEL 2
REMARK VINA RESULT:      -5.6     17.176     19.693
REMARK  Name = Lobophorolide_conf2
REMARK  23 active torsions:
REMARK  status: ('A' for Active; 'I' for Inactive)
REMARK    1  A    between atoms: C_1  and  C_2
REMARK    2  A    between atoms: C_4  and  O_53
REMARK    3  A    between atoms: C_6  and  C_8
REMARK    4  A    between atoms: C_8  and  C_9
REMARK    5  A    between atoms: C_9  and  C_10
REMARK    6  A    between atoms: C_10  and  C_11
REMARK    7  A    between atoms: C_10  and  C_12
REMARK    8  A    between atoms: C_12  and  C_13
REMARK    9  A    between atoms: C_12  and  O_52
REMARK   10  A    between atoms: C_13  and  C_14
REMARK   11  A    between atoms: C_13  and  C_15
REMARK   12  A    between atoms: C_16  and  C_51
REMARK   13  A    between atoms: C_17  and  O_49
REMARK   14  A    between atoms: C_19  and  O_47
REMARK   15  A    between atoms: C_23  and  O_45
REMARK   16  A    between atoms: C_32  and  O_43
REMARK   17  A    between atoms: C_33  and  O_42
REMARK   18  A    between atoms: C_35  and  C_41
REMARK   19  A    between atoms: O_43  and  C_44
REMARK   20  A    between atoms: O_45  and  C_46
REMARK   21  A    between atoms: O_47  and  C_48
REMARK   22  A    between atoms: O_49  and  C_50
REMARK   23  A    between atoms: O_53  and  C_54
REMARK                            x       y       z     vdW  Elec       q    Type
REMARK                         _______ _______ _______ _____ _____    ______ ____
ROOT
ATOM      1  C   UNL     1     129.993 161.594 198.113  0.00  0.00    +0.113 C 
ATOM      2  C   UNL     1     129.134 160.940 196.989  0.00  0.00    +0.020 C 
ATOM      3  C   UNL     1     130.030 160.403 195.821  0.00  0.00    +0.067 C 
ATOM      4  C   UNL     1     129.450 159.100 195.213  0.00  0.00    +0.003 C 
ATOM      5  C   UNL     1     130.262 157.828 195.563  0.00  0.00    +0.094 C 
ATOM      6  C   UNL     1     131.581 157.656 194.812  0.00  0.00    +0.145 C 
ATOM      7  C   UNL     1     131.624 157.968 193.316  0.00  0.00    +0.083 C 
ATOM      8  O   UNL     1     132.173 158.860 194.293  0.00  0.00    -0.363 OA
ATOM      9  C   UNL     1     132.555 156.585 195.316  0.00  0.00    +0.094 C 
ATOM     10  C   UNL     1     134.031 157.000 195.137  0.00  0.00    +0.003 C 
ATOM     11  C   UNL     1     135.115 155.935 195.368  0.00  0.00    +0.065 C 
ATOM     12  C   UNL     1     135.310 155.010 194.154  0.00  0.00    -0.008 C 
ATOM     13  C   UNL     1     136.339 153.967 194.462  0.00  0.00    -0.083 C 
ATOM     14  C   UNL     1     136.644 153.674 195.731  0.00  0.00    -0.059 C 
ATOM     15  C   UNL     1     135.968 154.312 196.924  0.00  0.00    +0.080 C 
ATOM     16  O   UNL     1     134.865 155.167 196.555  0.00  0.00    -0.369 OA
ATOM     17  C   UNL     1     136.960 155.089 197.804  0.00  0.00    +0.006 C 
ATOM     18  C   UNL     1     136.455 155.167 199.256  0.00  0.00    +0.090 C 
ATOM     19  C   UNL     1     136.796 156.524 199.920  0.00  0.00    +0.100 C 
ATOM     20  C   UNL     1     135.940 157.674 199.457  0.00  0.00    -0.051 C 
ATOM     21  C   UNL     1     134.613 157.853 199.627  0.00  0.00    -0.052 C 
ATOM     22  C   UNL     1     133.982 159.052 199.070  0.00  0.00    -0.052 C 
ATOM     23  C   UNL     1     132.674 159.339 199.133  0.00  0.00    +0.023 C 
ATOM     24  C   UNL     1     132.129 160.573 198.535  0.00  0.00    +0.332 C 
ATOM     25  O   UNL     1     132.774 161.451 197.992  0.00  0.00    -0.246 OA
ATOM     26  O   UNL     1     130.781 160.531 198.694  0.00  0.00    -0.458 OA
ATOM     27  H   UNL     1     130.634 162.361 197.662  0.00  0.00    +0.074 HD
ATOM     28  H   UNL     1     128.647 160.070 197.449  0.00  0.00    +0.036 HD
ATOM     29  H   UNL     1     131.053 160.212 196.160  0.00  0.00    +0.060 HD
ATOM     30  H   UNL     1     129.342 159.199 194.130  0.00  0.00    +0.032 HD
ATOM     31  H   UNL     1     128.429 158.954 195.586  0.00  0.00    +0.032 HD
ATOM     32  H   UNL     1     129.653 156.956 195.290  0.00  0.00    +0.063 HD
ATOM     33  H   UNL     1     130.726 158.267 192.796  0.00  0.00    +0.059 HD
ATOM     34  H   UNL     1     132.316 157.416 192.689  0.00  0.00    +0.059 HD
ATOM     35  H   UNL     1     132.401 156.409 196.388  0.00  0.00    +0.063 HD
ATOM     36  H   UNL     1     134.211 157.827 195.838  0.00  0.00    +0.032 HD
ATOM     37  H   UNL     1     134.199 157.412 194.135  0.00  0.00    +0.032 HD
ATOM     38  H   UNL     1     136.047 156.496 195.512  0.00  0.00    +0.060 HD
ATOM     39  H   UNL     1     135.633 155.601 193.290  0.00  0.00    +0.033 HD
ATOM     40  H   UNL     1     134.391 154.488 193.877  0.00  0.00    +0.033 HD
ATOM     41  H   UNL     1     136.822 153.454 193.637  0.00  0.00    +0.057 HD
ATOM     42  H   UNL     1     137.395 152.916 195.939  0.00  0.00    +0.059 HD
ATOM     43  H   UNL     1     135.530 153.492 197.505  0.00  0.00    +0.064 HD
ATOM     44  H   UNL     1     137.943 154.601 197.788  0.00  0.00    +0.032 HD
ATOM     45  H   UNL     1     137.091 156.098 197.398  0.00  0.00    +0.032 HD
ATOM     46  H   UNL     1     135.373 154.993 199.297  0.00  0.00    +0.063 HD
ATOM     47  H   UNL     1     137.849 156.767 199.724  0.00  0.00    +0.066 HD
ATOM     48  H   UNL     1     136.501 158.431 198.911  0.00  0.00    +0.060 HD
ATOM     49  H   UNL     1     134.641 159.756 198.564  0.00  0.00    +0.062 HD
ATOM     50  H   UNL     1     131.949 158.692 199.609  0.00  0.00    +0.069 HD
ENDROOT
BRANCH  21  51
ATOM     51  C   UNL     1     133.727 156.883 200.371  0.00  0.00    -0.040 C 
ATOM     52  H   UNL     1     132.850 157.401 200.774  0.00  0.00    +0.028 HD
ATOM     53  H   UNL     1     134.266 156.415 201.199  0.00  0.00    +0.028 HD
ATOM     54  H   UNL     1     133.366 156.059 199.754  0.00  0.00    +0.028 HD
ENDBRANCH  21  51
BRANCH   2  55
ATOM     55  C   UNL     1     128.033 161.869 196.456  0.00  0.00    -0.057 C 
ATOM     56  H   UNL     1     128.333 162.919 196.541  0.00  0.00    +0.023 HD
ATOM     57  H   UNL     1     127.824 161.690 195.399  0.00  0.00    +0.023 HD
ATOM     58  H   UNL     1     127.097 161.732 197.009  0.00  0.00    +0.023 HD
ENDBRANCH   2  55
BRANCH   1  59
ATOM     59  C   UNL     1     129.180 162.281 199.253  0.00  0.00    +0.020 C 
ATOM     60  H   UNL     1     128.152 162.392 198.891  0.00  0.00    +0.036 HD
BRANCH  59  61
ATOM     61  C   UNL     1     129.092 161.418 200.515  0.00  0.00    -0.057 C 
ATOM     62  H   UNL     1     129.897 161.655 201.217  0.00  0.00    +0.023 HD
ATOM     63  H   UNL     1     128.156 161.590 201.052  0.00  0.00    +0.023 HD
ATOM     64  H   UNL     1     129.126 160.354 200.277  0.00  0.00    +0.023 HD
ENDBRANCH  59  61
BRANCH  59  65
ATOM     65  C   UNL     1     129.687 163.729 199.537  0.00  0.00    +0.064 C 
ATOM     66  H   UNL     1     128.828 164.294 199.920  0.00  0.00    +0.060 HD
BRANCH  65  67
ATOM     67  C   UNL     1     130.324 164.543 198.367  0.00  0.00    -0.017 C 
ATOM     68  H   UNL     1     130.717 163.848 197.623  0.00  0.00    +0.032 HD
BRANCH  67  69
ATOM     69  C   UNL     1     129.196 165.333 197.678  0.00  0.00    -0.060 C 
ATOM     70  H   UNL     1     128.248 164.790 197.711  0.00  0.00    +0.023 HD
ATOM     71  H   UNL     1     129.431 165.534 196.624  0.00  0.00    +0.023 HD
ATOM     72  H   UNL     1     129.036 166.295 198.178  0.00  0.00    +0.023 HD
ENDBRANCH  67  69
BRANCH  67  73
ATOM     73  C   UNL     1     131.439 165.538 198.785  0.00  0.00    -0.046 C 
ATOM     74  H   UNL     1     131.488 165.619 199.873  0.00  0.00    +0.027 HD
ATOM     75  H   UNL     1     131.215 166.552 198.429  0.00  0.00    +0.027 HD
BRANCH  73  76
ATOM     76  C   UNL     1     132.854 165.159 198.307  0.00  0.00    -0.026 C 
ATOM     77  H   UNL     1     132.754 164.316 197.611  0.00  0.00    +0.029 HD
ATOM     78  H   UNL     1     133.282 165.990 197.738  0.00  0.00    +0.029 HD
BRANCH  76  83
ATOM     79  C   UNL     1     134.358 162.947 200.929  0.00  0.00    +0.059 C 
ATOM     80  C   UNL     1     134.578 163.966 202.047  0.00  0.00    -0.000 C 
ATOM     81  C   UNL     1     133.630 165.148 201.914  0.00  0.00    +0.063 C 
ATOM     82  C   UNL     1     133.826 165.786 200.542  0.00  0.00    -0.000 C 
ATOM     83  C   UNL     1     133.848 164.747 199.409  0.00  0.00    +0.061 C 
ATOM     84  O   UNL     1     133.498 163.454 199.902  0.00  0.00    -0.373 OA
ATOM     85  H   UNL     1     133.826 162.085 201.350  0.00  0.00    +0.059 HD
ATOM     86  H   UNL     1     134.448 163.481 203.025  0.00  0.00    +0.032 HD
ATOM     87  H   UNL     1     135.618 164.327 202.059  0.00  0.00    +0.032 HD
ATOM     88  H   UNL     1     132.597 164.794 202.022  0.00  0.00    +0.060 HD
ATOM     89  H   UNL     1     133.047 166.540 200.375  0.00  0.00    +0.032 HD
ATOM     90  H   UNL     1     134.764 166.358 200.521  0.00  0.00    +0.032 HD
ATOM     91  H   UNL     1     134.849 164.704 198.964  0.00  0.00    +0.060 HD
BRANCH  79  92
ATOM     92  C   UNL     1     135.674 162.424 200.360  0.00  0.00    -0.039 C 
ATOM     93  H   UNL     1     135.508 161.676 199.579  0.00  0.00    +0.025 HD
ATOM     94  H   UNL     1     136.258 163.241 199.927  0.00  0.00    +0.025 HD
ATOM     95  H   UNL     1     136.268 161.943 201.143  0.00  0.00    +0.025 HD
ENDBRANCH  79  92
BRANCH  81  96
ATOM     96  O   UNL     1     133.925 166.070 202.969  0.00  0.00    -0.380 OA
BRANCH  96  97
ATOM     97  C   UNL     1     133.662 167.426 202.622  0.00  0.00    +0.037 C 
ATOM     98  H   UNL     1     132.977 167.885 203.342  0.00  0.00    +0.052 HD
ATOM     99  H   UNL     1     134.608 167.972 202.646  0.00  0.00    +0.052 HD
ATOM    100  H   UNL     1     133.253 167.496 201.610  0.00  0.00    +0.052 HD
ENDBRANCH  96  97
ENDBRANCH  81  96
ENDBRANCH  76  83
ENDBRANCH  73  76
ENDBRANCH  67  73
ENDBRANCH  65  67
BRANCH  65 101
ATOM    101  O   UNL     1     130.624 163.682 200.624  0.00  0.00    -0.391 OA
ATOM    102  H   UNL     1     131.108 164.524 200.628  0.00  0.00    +0.210 HD
ENDBRANCH  65 101
ENDBRANCH  59  65
ENDBRANCH   1  59
BRANCH  19 103
ATOM    103  O   UNL     1     136.687 156.426 201.341  0.00  0.00    -0.385 OA
ATOM    104  H   UNL     1     136.195 155.597 201.490  0.00  0.00    +0.210 HD
ENDBRANCH  19 103
BRANCH  18 105
ATOM    105  O   UNL     1     137.139 154.130 200.007  0.00  0.00    -0.377 OA
BRANCH 105 106
ATOM    106  C   UNL     1     136.264 153.081 200.412  0.00  0.00    +0.037 C 
ATOM    107  H   UNL     1     136.479 152.164 199.853  0.00  0.00    +0.052 HD
ATOM    108  H   UNL     1     135.238 153.388 200.194  0.00  0.00    +0.052 HD
ATOM    109  H   UNL     1     136.355 152.900 201.488  0.00  0.00    +0.052 HD
ENDBRANCH 105 106
ENDBRANCH  18 105
BRANCH   9 110
ATOM    110  O   UNL     1     132.282 155.390 194.571  0.00  0.00    -0.377 OA
BRANCH 110 111
ATOM    111  C   UNL     1     131.622 154.404 195.350  0.00  0.00    +0.037 C 
ATOM    112  H   UNL     1     131.313 153.592 194.689  0.00  0.00    +0.052 HD
ATOM    113  H   UNL     1     130.732 154.826 195.824  0.00  0.00    +0.052 HD
ATOM    114  H   UNL     1     132.293 153.993 196.110  0.00  0.00    +0.052 HD
ENDBRANCH 110 111
ENDBRANCH   9 110
BRANCH   5 115
ATOM    115  O   UNL     1     130.520 157.804 196.976  0.00  0.00    -0.377 OA
BRANCH 115 116
ATOM    116  C   UNL     1     129.492 157.167 197.723  0.00  0.00    +0.037 C 
ATOM    117  H   UNL     1     129.435 157.591 198.730  0.00  0.00    +0.052 HD
ATOM    118  H   UNL     1     129.655 156.086 197.777  0.00  0.00    +0.052 HD
ATOM    119  H   UNL     1     128.541 157.352 197.216  0.00  0.00    +0.052 HD
ENDBRANCH 115 116
ENDBRANCH   5 115
BRANCH   3 120
ATOM    120  O   UNL     1     130.061 161.370 194.750  0.00  0.00    -0.379 OA
BRANCH 120 121
ATOM    121  C   UNL     1     131.268 162.122 194.703  0.00  0.00    +0.037 C 
ATOM    122  H   UNL     1     131.093 163.158 195.000  0.00  0.00    +0.052 HD
ATOM    123  H   UNL     1     132.036 161.668 195.335  0.00  0.00    +0.052 HD
ATOM    124  H   UNL     1     131.631 162.119 193.671  0.00  0.00    +0.052 HD
ENDBRANCH 120 121
ENDBRANCH   3 120
TORSDOF 23
ENDMDL
MODEL 3
REMARK VINA RESULT:      -5.6      4.828     10.904
REMARK  Name = Lobophorolide_conf2
REMARK  23 active torsions:
REMARK  status: ('A' for Active; 'I' for Inactive)
REMARK    1  A    between atoms: C_1  and  C_2
REMARK    2  A    between atoms: C_4  and  O_53
REMARK    3  A    between atoms: C_6  and  C_8
REMARK    4  A    between atoms: C_8  and  C_9
REMARK    5  A    between atoms: C_9  and  C_10
REMARK    6  A    between atoms: C_10  and  C_11
REMARK    7  A    between atoms: C_10  and  C_12
REMARK    8  A    between atoms: C_12  and  C_13
REMARK    9  A    between atoms: C_12  and  O_52
REMARK   10  A    between atoms: C_13  and  C_14
REMARK   11  A    between atoms: C_13  and  C_15
REMARK   12  A    between atoms: C_16  and  C_51
REMARK   13  A    between atoms: C_17  and  O_49
REMARK   14  A    between atoms: C_19  and  O_47
REMARK   15  A    between atoms: C_23  and  O_45
REMARK   16  A    between atoms: C_32  and  O_43
REMARK   17  A    between atoms: C_33  and  O_42
REMARK   18  A    between atoms: C_35  and  C_41
REMARK   19  A    between atoms: O_43  and  C_44
REMARK   20  A    between atoms: O_45  and  C_46
REMARK   21  A    between atoms: O_47  and  C_48
REMARK   22  A    between atoms: O_49  and  C_50
REMARK   23  A    between atoms: O_53  and  C_54
REMARK                            x       y       z     vdW  Elec       q    Type
REMARK                         _______ _______ _______ _____ _____    ______ ____
ROOT
ATOM      1  C   UNL     1     148.397 166.046 188.049  0.00  0.00    +0.113 C 
ATOM      2  C   UNL     1     147.321 165.383 187.137  0.00  0.00    +0.020 C 
ATOM      3  C   UNL     1     145.924 165.328 187.843  0.00  0.00    +0.067 C 
ATOM      4  C   UNL     1     144.767 165.531 186.831  0.00  0.00    +0.003 C 
ATOM      5  C   UNL     1     144.058 166.903 186.953  0.00  0.00    +0.094 C 
ATOM      6  C   UNL     1     143.116 167.058 188.144  0.00  0.00    +0.145 C 
ATOM      7  C   UNL     1     142.185 165.900 188.504  0.00  0.00    +0.083 C 
ATOM      8  O   UNL     1     143.364 166.189 189.263  0.00  0.00    -0.363 OA
ATOM      9  C   UNL     1     142.616 168.468 188.480  0.00  0.00    +0.094 C 
ATOM     10  C   UNL     1     142.439 168.685 189.998  0.00  0.00    +0.003 C 
ATOM     11  C   UNL     1     141.715 169.957 190.467  0.00  0.00    +0.065 C 
ATOM     12  C   UNL     1     140.184 169.837 190.386  0.00  0.00    -0.008 C 
ATOM     13  C   UNL     1     139.543 171.123 190.806  0.00  0.00    -0.083 C 
ATOM     14  C   UNL     1     140.245 172.262 190.794  0.00  0.00    -0.059 C 
ATOM     15  C   UNL     1     141.679 172.357 190.324  0.00  0.00    +0.080 C 
ATOM     16  O   UNL     1     142.171 171.122 189.762  0.00  0.00    -0.369 OA
ATOM     17  C   UNL     1     142.623 172.836 191.439  0.00  0.00    +0.006 C 
ATOM     18  C   UNL     1     143.862 173.529 190.844  0.00  0.00    +0.090 C 
ATOM     19  C   UNL     1     145.144 173.230 191.661  0.00  0.00    +0.100 C 
ATOM     20  C   UNL     1     145.700 171.845 191.460  0.00  0.00    -0.051 C 
ATOM     21  C   UNL     1     146.215 171.303 190.336  0.00  0.00    -0.052 C 
ATOM     22  C   UNL     1     146.684 169.916 190.369  0.00  0.00    -0.052 C 
ATOM     23  C   UNL     1     147.183 169.243 189.322  0.00  0.00    +0.023 C 
ATOM     24  C   UNL     1     147.627 167.841 189.451  0.00  0.00    +0.332 C 
ATOM     25  O   UNL     1     147.641 167.186 190.478  0.00  0.00    -0.246 OA
ATOM     26  O   UNL     1     147.998 167.425 188.213  0.00  0.00    -0.458 OA
ATOM     27  H   UNL     1     148.410 165.520 189.012  0.00  0.00    +0.074 HD
ATOM     28  H   UNL     1     147.217 166.042 186.265  0.00  0.00    +0.036 HD
ATOM     29  H   UNL     1     145.846 166.086 188.628  0.00  0.00    +0.060 HD
ATOM     30  H   UNL     1     144.042 164.717 186.911  0.00  0.00    +0.032 HD
ATOM     31  H   UNL     1     145.165 165.454 185.812  0.00  0.00    +0.032 HD
ATOM     32  H   UNL     1     143.431 167.036 186.062  0.00  0.00    +0.063 HD
ATOM     33  H   UNL     1     142.170 165.006 187.899  0.00  0.00    +0.059 HD
ATOM     34  H   UNL     1     141.224 166.126 188.956  0.00  0.00    +0.059 HD
ATOM     35  H   UNL     1     143.339 169.218 188.133  0.00  0.00    +0.063 HD
ATOM     36  H   UNL     1     143.447 168.685 190.435  0.00  0.00    +0.032 HD
ATOM     37  H   UNL     1     141.914 167.836 190.452  0.00  0.00    +0.032 HD
ATOM     38  H   UNL     1     141.984 170.069 191.526  0.00  0.00    +0.060 HD
ATOM     39  H   UNL     1     139.843 169.025 191.039  0.00  0.00    +0.033 HD
ATOM     40  H   UNL     1     139.837 169.617 189.373  0.00  0.00    +0.033 HD
ATOM     41  H   UNL     1     138.503 171.109 191.114  0.00  0.00    +0.057 HD
ATOM     42  H   UNL     1     139.767 173.188 191.104  0.00  0.00    +0.059 HD
ATOM     43  H   UNL     1     141.687 173.083 189.502  0.00  0.00    +0.064 HD
ATOM     44  H   UNL     1     142.100 173.537 192.102  0.00  0.00    +0.032 HD
ATOM     45  H   UNL     1     142.928 171.978 192.048  0.00  0.00    +0.032 HD
ATOM     46  H   UNL     1     144.007 173.228 189.799  0.00  0.00    +0.063 HD
ATOM     47  H   UNL     1     144.933 173.374 192.729  0.00  0.00    +0.066 HD
ATOM     48  H   UNL     1     145.653 171.232 192.359  0.00  0.00    +0.060 HD
ATOM     49  H   UNL     1     146.614 169.402 191.326  0.00  0.00    +0.062 HD
ATOM     50  H   UNL     1     147.282 169.673 188.334  0.00  0.00    +0.069 HD
ENDROOT
BRANCH  21  51
ATOM     51  C   UNL     1     146.343 172.050 189.031  0.00  0.00    -0.040 C 
ATOM     52  H   UNL     1     146.121 171.385 188.189  0.00  0.00    +0.028 HD
ATOM     53  H   UNL     1     147.352 172.449 188.904  0.00  0.00    +0.028 HD
ATOM     54  H   UNL     1     145.677 172.910 188.952  0.00  0.00    +0.028 HD
ENDBRANCH  21  51
BRANCH   2  55
ATOM     55  C   UNL     1     147.737 163.993 186.630  0.00  0.00    -0.057 C 
ATOM     56  H   UNL     1     146.960 163.251 186.842  0.00  0.00    +0.023 HD
ATOM     57  H   UNL     1     147.889 163.982 185.548  0.00  0.00    +0.023 HD
ATOM     58  H   UNL     1     148.669 163.661 187.102  0.00  0.00    +0.023 HD
ENDBRANCH   2  55
BRANCH   1  59
ATOM     59  C   UNL     1     149.851 166.019 187.486  0.00  0.00    +0.020 C 
ATOM     60  H   UNL     1     150.040 164.999 187.134  0.00  0.00    +0.036 HD
BRANCH  59  61
ATOM     61  C   UNL     1     150.025 166.926 186.265  0.00  0.00    -0.057 C 
ATOM     62  H   UNL     1     149.418 167.832 186.351  0.00  0.00    +0.023 HD
ATOM     63  H   UNL     1     151.060 167.259 186.159  0.00  0.00    +0.023 HD
ATOM     64  H   UNL     1     149.765 166.409 185.340  0.00  0.00    +0.023 HD
ENDBRANCH  59  61
BRANCH  59  65
ATOM     65  C   UNL     1     150.910 166.284 188.600  0.00  0.00    +0.064 C 
ATOM     66  H   UNL     1     151.875 165.940 188.205  0.00  0.00    +0.060 HD
BRANCH  65  67
ATOM     67  C   UNL     1     150.699 165.637 190.005  0.00  0.00    -0.017 C 
ATOM     68  H   UNL     1     149.650 165.739 190.289  0.00  0.00    +0.032 HD
BRANCH  67  69
ATOM     69  C   UNL     1     150.973 164.128 189.872  0.00  0.00    -0.060 C 
ATOM     70  H   UNL     1     150.441 163.697 189.020  0.00  0.00    +0.023 HD
ATOM     71  H   UNL     1     150.664 163.581 190.772  0.00  0.00    +0.023 HD
ATOM     72  H   UNL     1     152.042 163.941 189.713  0.00  0.00    +0.023 HD
ENDBRANCH  67  69
BRANCH  67  73
ATOM     73  C   UNL     1     151.599 166.204 191.136  0.00  0.00    -0.046 C 
ATOM     74  H   UNL     1     152.405 166.807 190.713  0.00  0.00    +0.027 HD
ATOM     75  H   UNL     1     152.098 165.394 191.684  0.00  0.00    +0.027 HD
BRANCH  73  76
ATOM     76  C   UNL     1     150.867 167.099 192.154  0.00  0.00    -0.026 C 
ATOM     77  H   UNL     1     151.629 167.662 192.708  0.00  0.00    +0.029 HD
ATOM     78  H   UNL     1     150.255 167.833 191.620  0.00  0.00    +0.029 HD
BRANCH  76  83
ATOM     79  C   UNL     1     148.091 166.702 194.637  0.00  0.00    +0.059 C 
ATOM     80  C   UNL     1     148.829 165.960 195.751  0.00  0.00    -0.000 C 
ATOM     81  C   UNL     1     150.325 166.231 195.699  0.00  0.00    +0.063 C 
ATOM     82  C   UNL     1     150.852 165.826 194.326  0.00  0.00    -0.000 C 
ATOM     83  C   UNL     1     149.981 166.367 193.180  0.00  0.00    +0.061 C 
ATOM     84  O   UNL     1     148.993 167.267 193.678  0.00  0.00    -0.373 OA
ATOM     85  H   UNL     1     147.569 167.559 195.082  0.00  0.00    +0.059 HD
ATOM     86  H   UNL     1     148.422 166.255 196.729  0.00  0.00    +0.032 HD
ATOM     87  H   UNL     1     148.649 164.876 195.696  0.00  0.00    +0.032 HD
ATOM     88  H   UNL     1     150.504 167.300 195.873  0.00  0.00    +0.060 HD
ATOM     89  H   UNL     1     151.894 166.156 194.222  0.00  0.00    +0.032 HD
ATOM     90  H   UNL     1     150.908 164.732 194.248  0.00  0.00    +0.032 HD
ATOM     91  H   UNL     1     149.485 165.535 192.667  0.00  0.00    +0.060 HD
BRANCH  79  92
ATOM     92  C   UNL     1     147.028 165.831 193.972  0.00  0.00    -0.039 C 
ATOM     93  H   UNL     1     146.495 165.216 194.702  0.00  0.00    +0.025 HD
ATOM     94  H   UNL     1     146.293 166.452 193.452  0.00  0.00    +0.025 HD
ATOM     95  H   UNL     1     147.486 165.147 193.250  0.00  0.00    +0.025 HD
ENDBRANCH  79  92
BRANCH  81  96
ATOM     96  O   UNL     1     150.947 165.474 196.744  0.00  0.00    -0.380 OA
BRANCH  96  97
ATOM     97  C   UNL     1     151.219 164.125 196.376  0.00  0.00    +0.037 C 
ATOM     98  H   UNL     1     151.026 163.448 197.214  0.00  0.00    +0.052 HD
ATOM     99  H   UNL     1     150.553 163.856 195.552  0.00  0.00    +0.052 HD
ATOM    100  H   UNL     1     152.251 164.017 196.030  0.00  0.00    +0.052 HD
ENDBRANCH  96  97
ENDBRANCH  81  96
ENDBRANCH  76  83
ENDBRANCH  73  76
ENDBRANCH  67  73
ENDBRANCH  65  67
BRANCH  65 101
ATOM    101  O   UNL     1     151.054 167.703 188.768  0.00  0.00    -0.391 OA
ATOM    102  H   UNL     1     150.261 168.024 189.229  0.00  0.00    +0.210 HD
ENDBRANCH  65 101
ENDBRANCH  59  65
ENDBRANCH   1  59
BRANCH  19 103
ATOM    103  O   UNL     1     146.167 174.175 191.345  0.00  0.00    -0.385 OA
ATOM    104  H   UNL     1     146.976 173.801 191.742  0.00  0.00    +0.210 HD
ENDBRANCH  19 103
BRANCH  18 105
ATOM    105  O   UNL     1     143.629 174.959 190.906  0.00  0.00    -0.377 OA
BRANCH 105 106
ATOM    106  C   UNL     1     142.962 175.353 192.102  0.00  0.00    +0.037 C 
ATOM    107  H   UNL     1     141.883 175.433 191.932  0.00  0.00    +0.052 HD
ATOM    108  H   UNL     1     143.340 176.335 192.397  0.00  0.00    +0.052 HD
ATOM    109  H   UNL     1     143.168 174.642 192.908  0.00  0.00    +0.052 HD
ENDBRANCH 105 106
ENDBRANCH  18 105
BRANCH   9 110
ATOM    110  O   UNL     1     141.361 168.637 187.805  0.00  0.00    -0.377 OA
BRANCH 110 111
ATOM    111  C   UNL     1     141.459 169.507 186.688  0.00  0.00    +0.037 C 
ATOM    112  H   UNL     1     140.965 170.449 186.940  0.00  0.00    +0.052 HD
ATOM    113  H   UNL     1     140.957 169.071 185.820  0.00  0.00    +0.052 HD
ATOM    114  H   UNL     1     142.505 169.720 186.450  0.00  0.00    +0.052 HD
ENDBRANCH 110 111
ENDBRANCH   9 110
BRANCH   5 115
ATOM    115  O   UNL     1     145.047 167.944 186.997  0.00  0.00    -0.377 OA
BRANCH 115 116
ATOM    116  C   UNL     1     145.369 168.468 185.715  0.00  0.00    +0.037 C 
ATOM    117  H   UNL     1     144.776 167.970 184.942  0.00  0.00    +0.052 HD
ATOM    118  H   UNL     1     146.436 168.359 185.500  0.00  0.00    +0.052 HD
ATOM    119  H   UNL     1     145.118 169.531 185.712  0.00  0.00    +0.052 HD
ENDBRANCH 115 116
ENDBRANCH   5 115
BRANCH   3 120
ATOM    120  O   UNL     1     145.726 164.023 188.427  0.00  0.00    -0.379 OA
BRANCH 120 121
ATOM    121  C   UNL     1     146.072 163.963 189.806  0.00  0.00    +0.037 C 
ATOM    122  H   UNL     1     146.546 164.891 190.129  0.00  0.00    +0.052 HD
ATOM    123  H   UNL     1     145.193 163.748 190.420  0.00  0.00    +0.052 HD
ATOM    124  H   UNL     1     146.788 163.148 189.941  0.00  0.00    +0.052 HD
ENDBRANCH 120 121
ENDBRANCH   3 120
TORSDOF 23
ENDMDL
MODEL 4
REMARK VINA RESULT:      -5.5     17.546     22.597
REMARK  Name = Lobophorolide_conf2
REMARK  23 active torsions:
REMARK  status: ('A' for Active; 'I' for Inactive)
REMARK    1  A    between atoms: C_1  and  C_2
REMARK    2  A    between atoms: C_4  and  O_53
REMARK    3  A    between atoms: C_6  and  C_8
REMARK    4  A    between atoms: C_8  and  C_9
REMARK    5  A    between atoms: C_9  and  C_10
REMARK    6  A    between atoms: C_10  and  C_11
REMARK    7  A    between atoms: C_10  and  C_12
REMARK    8  A    between atoms: C_12  and  C_13
REMARK    9  A    between atoms: C_12  and  O_52
REMARK   10  A    between atoms: C_13  and  C_14
REMARK   11  A    between atoms: C_13  and  C_15
REMARK   12  A    between atoms: C_16  and  C_51
REMARK   13  A    between atoms: C_17  and  O_49
REMARK   14  A    between atoms: C_19  and  O_47
REMARK   15  A    between atoms: C_23  and  O_45
REMARK   16  A    between atoms: C_32  and  O_43
REMARK   17  A    between atoms: C_33  and  O_42
REMARK   18  A    between atoms: C_35  and  C_41
REMARK   19  A    between atoms: O_43  and  C_44
REMARK   20  A    between atoms: O_45  and  C_46
REMARK   21  A    between atoms: O_47  and  C_48
REMARK   22  A    between atoms: O_49  and  C_50
REMARK   23  A    between atoms: O_53  and  C_54
REMARK                            x       y       z     vdW  Elec       q    Type
REMARK                         _______ _______ _______ _____ _____    ______ ____
ROOT
ATOM      1  C   UNL     1     132.351 160.647 198.112  0.00  0.00    +0.113 C 
ATOM      2  C   UNL     1     132.953 160.468 199.538  0.00  0.00    +0.020 C 
ATOM      3  C   UNL     1     133.748 161.739 199.990  0.00  0.00    +0.067 C 
ATOM      4  C   UNL     1     133.596 161.995 201.511  0.00  0.00    +0.003 C 
ATOM      5  C   UNL     1     132.707 163.215 201.858  0.00  0.00    +0.094 C 
ATOM      6  C   UNL     1     133.346 164.584 201.637  0.00  0.00    +0.145 C 
ATOM      7  C   UNL     1     134.799 164.797 202.061  0.00  0.00    +0.083 C 
ATOM      8  O   UNL     1     134.426 164.631 200.688  0.00  0.00    -0.363 OA
ATOM      9  C   UNL     1     132.432 165.815 201.684  0.00  0.00    +0.094 C 
ATOM     10  C   UNL     1     132.875 166.916 200.698  0.00  0.00    +0.003 C 
ATOM     11  C   UNL     1     132.207 168.296 200.807  0.00  0.00    +0.065 C 
ATOM     12  C   UNL     1     132.811 169.164 201.924  0.00  0.00    -0.008 C 
ATOM     13  C   UNL     1     132.084 170.470 202.011  0.00  0.00    -0.083 C 
ATOM     14  C   UNL     1     130.856 170.594 201.494  0.00  0.00    -0.059 C 
ATOM     15  C   UNL     1     130.101 169.457 200.844  0.00  0.00    +0.080 C 
ATOM     16  O   UNL     1     130.784 168.190 200.960  0.00  0.00    -0.369 OA
ATOM     17  C   UNL     1     129.780 169.744 199.369  0.00  0.00    +0.006 C 
ATOM     18  C   UNL     1     128.532 168.961 198.921  0.00  0.00    +0.090 C 
ATOM     19  C   UNL     1     128.650 168.464 197.459  0.00  0.00    +0.100 C 
ATOM     20  C   UNL     1     129.573 167.289 197.274  0.00  0.00    -0.051 C 
ATOM     21  C   UNL     1     129.441 166.035 197.755  0.00  0.00    -0.052 C 
ATOM     22  C   UNL     1     130.483 165.049 197.461  0.00  0.00    -0.052 C 
ATOM     23  C   UNL     1     130.498 163.783 197.903  0.00  0.00    +0.023 C 
ATOM     24  C   UNL     1     131.598 162.862 197.557  0.00  0.00    +0.332 C 
ATOM     25  O   UNL     1     132.541 163.114 196.828  0.00  0.00    -0.246 OA
ATOM     26  O   UNL     1     131.365 161.697 198.215  0.00  0.00    -0.458 OA
ATOM     27  H   UNL     1     133.158 160.928 197.425  0.00  0.00    +0.074 HD
ATOM     28  H   UNL     1     132.096 160.365 200.216  0.00  0.00    +0.036 HD
ATOM     29  H   UNL     1     133.417 162.629 199.445  0.00  0.00    +0.060 HD
ATOM     30  H   UNL     1     134.578 162.090 201.983  0.00  0.00    +0.032 HD
ATOM     31  H   UNL     1     133.143 161.112 201.979  0.00  0.00    +0.032 HD
ATOM     32  H   UNL     1     132.477 163.167 202.930  0.00  0.00    +0.063 HD
ATOM     33  H   UNL     1     135.348 164.002 202.543  0.00  0.00    +0.059 HD
ATOM     34  H   UNL     1     135.107 165.786 202.386  0.00  0.00    +0.059 HD
ATOM     35  H   UNL     1     131.407 165.534 201.410  0.00  0.00    +0.063 HD
ATOM     36  H   UNL     1     132.689 166.526 199.687  0.00  0.00    +0.032 HD
ATOM     37  H   UNL     1     133.957 167.081 200.762  0.00  0.00    +0.032 HD
ATOM     38  H   UNL     1     132.413 168.794 199.850  0.00  0.00    +0.060 HD
ATOM     39  H   UNL     1     133.871 169.347 201.715  0.00  0.00    +0.033 HD
ATOM     40  H   UNL     1     132.741 168.687 202.905  0.00  0.00    +0.033 HD
ATOM     41  H   UNL     1     132.571 171.304 202.504  0.00  0.00    +0.057 HD
ATOM     42  H   UNL     1     130.341 171.549 201.563  0.00  0.00    +0.059 HD
ATOM     43  H   UNL     1     129.167 169.345 201.406  0.00  0.00    +0.064 HD
ATOM     44  H   UNL     1     129.606 170.817 199.221  0.00  0.00    +0.032 HD
ATOM     45  H   UNL     1     130.639 169.465 198.750  0.00  0.00    +0.032 HD
ATOM     46  H   UNL     1     128.350 168.112 199.590  0.00  0.00    +0.063 HD
ATOM     47  H   UNL     1     128.999 169.290 196.824  0.00  0.00    +0.066 HD
ATOM     48  H   UNL     1     130.453 167.527 196.678  0.00  0.00    +0.060 HD
ATOM     49  H   UNL     1     131.308 165.387 196.836  0.00  0.00    +0.062 HD
ATOM     50  H   UNL     1     129.724 163.367 198.534  0.00  0.00    +0.069 HD
ENDROOT
BRANCH  21  51
ATOM     51  C   UNL     1     128.266 165.578 198.585  0.00  0.00    -0.040 C 
ATOM     52  H   UNL     1     127.420 166.262 198.456  0.00  0.00    +0.028 HD
ATOM     53  H   UNL     1     128.525 165.539 199.646  0.00  0.00    +0.028 HD
ATOM     54  H   UNL     1     127.916 164.575 198.334  0.00  0.00    +0.028 HD
ENDBRANCH  21  51
BRANCH   2  55
ATOM     55  C   UNL     1     133.814 159.203 199.673  0.00  0.00    -0.057 C 
ATOM     56  H   UNL     1     134.551 159.315 200.474  0.00  0.00    +0.023 HD
ATOM     57  H   UNL     1     133.214 158.325 199.923  0.00  0.00    +0.023 HD
ATOM     58  H   UNL     1     134.349 158.986 198.741  0.00  0.00    +0.023 HD
ENDBRANCH   2  55
BRANCH   1  59
ATOM     59  C   UNL     1     131.659 159.380 197.521  0.00  0.00    +0.020 C 
ATOM     60  H   UNL     1     132.143 158.508 197.977  0.00  0.00    +0.036 HD
BRANCH  59  61
ATOM     61  C   UNL     1     130.179 159.288 197.900  0.00  0.00    -0.057 C 
ATOM     62  H   UNL     1     130.040 159.346 198.984  0.00  0.00    +0.023 HD
ATOM     63  H   UNL     1     129.605 160.114 197.472  0.00  0.00    +0.023 HD
ATOM     64  H   UNL     1     129.726 158.367 197.530  0.00  0.00    +0.023 HD
ENDBRANCH  59  61
BRANCH  59  65
ATOM     65  C   UNL     1     131.907 159.245 195.987  0.00  0.00    +0.064 C 
ATOM     66  H   UNL     1     130.921 159.270 195.505  0.00  0.00    +0.060 HD
BRANCH  65  67
ATOM     67  C   UNL     1     132.677 157.995 195.458  0.00  0.00    -0.017 C 
ATOM     68  H   UNL     1     131.982 157.158 195.374  0.00  0.00    +0.032 HD
BRANCH  67  69
ATOM     69  C   UNL     1     133.157 158.311 194.029  0.00  0.00    -0.060 C 
ATOM     70  H   UNL     1     132.660 157.677 193.290  0.00  0.00    +0.023 HD
ATOM     71  H   UNL     1     134.240 158.161 193.925  0.00  0.00    +0.023 HD
ATOM     72  H   UNL     1     132.933 159.352 193.767  0.00  0.00    +0.023 HD
ENDBRANCH  67  69
BRANCH  67  73
ATOM     73  C   UNL     1     133.904 157.566 196.306  0.00  0.00    -0.046 C 
ATOM     74  H   UNL     1     134.170 158.354 197.013  0.00  0.00    +0.027 HD
ATOM     75  H   UNL     1     134.791 157.430 195.674  0.00  0.00    +0.027 HD
BRANCH  73  76
ATOM     76  C   UNL     1     133.697 156.283 197.134  0.00  0.00    -0.026 C 
ATOM     77  H   UNL     1     132.697 156.337 197.585  0.00  0.00    +0.029 HD
ATOM     78  H   UNL     1     133.698 155.415 196.467  0.00  0.00    +0.029 HD
BRANCH  76  83
ATOM     79  C   UNL     1     137.034 156.360 198.832  0.00  0.00    +0.059 C 
ATOM     80  C   UNL     1     137.082 154.941 199.399  0.00  0.00    -0.000 C 
ATOM     81  C   UNL     1     136.194 153.997 198.602  0.00  0.00    +0.063 C 
ATOM     82  C   UNL     1     134.769 154.543 198.603  0.00  0.00    -0.000 C 
ATOM     83  C   UNL     1     134.714 156.042 198.266  0.00  0.00    +0.061 C 
ATOM     84  O   UNL     1     135.996 156.515 197.857  0.00  0.00    -0.373 OA
ATOM     85  H   UNL     1     137.970 156.544 198.288  0.00  0.00    +0.059 HD
ATOM     86  H   UNL     1     138.119 154.575 199.403  0.00  0.00    +0.032 HD
ATOM     87  H   UNL     1     136.782 154.924 200.457  0.00  0.00    +0.032 HD
ATOM     88  H   UNL     1     136.572 153.928 197.574  0.00  0.00    +0.060 HD
ATOM     89  H   UNL     1     134.153 153.956 197.909  0.00  0.00    +0.032 HD
ATOM     90  H   UNL     1     134.300 154.378 199.583  0.00  0.00    +0.032 HD
ATOM     91  H   UNL     1     134.383 156.607 199.145  0.00  0.00    +0.060 HD
BRANCH  79  92
ATOM     92  C   UNL     1     136.944 157.416 199.931  0.00  0.00    -0.039 C 
ATOM     93  H   UNL     1     135.924 157.795 200.045  0.00  0.00    +0.025 HD
ATOM     94  H   UNL     1     137.259 156.998 200.891  0.00  0.00    +0.025 HD
ATOM     95  H   UNL     1     137.581 158.274 199.694  0.00  0.00    +0.025 HD
ENDBRANCH  79  92
BRANCH  81  96
ATOM     96  O   UNL     1     136.261 152.705 199.216  0.00  0.00    -0.380 OA
BRANCH  96  97
ATOM     97  C   UNL     1     136.707 152.747 200.568  0.00  0.00    +0.037 C 
ATOM     98  H   UNL     1     136.813 153.781 200.910  0.00  0.00    +0.052 HD
ATOM     99  H   UNL     1     135.955 152.252 201.188  0.00  0.00    +0.052 HD
ATOM    100  H   UNL     1     137.652 152.209 200.682  0.00  0.00    +0.052 HD
ENDBRANCH  96  97
ENDBRANCH  81  96
ENDBRANCH  76  83
ENDBRANCH  73  76
ENDBRANCH  67  73
ENDBRANCH  65  67
BRANCH  65 101
ATOM    101  O   UNL     1     132.582 160.427 195.526  0.00  0.00    -0.391 OA
ATOM    102  H   UNL     1     131.919 161.135 195.463  0.00  0.00    +0.210 HD
ENDBRANCH  65 101
ENDBRANCH  59  65
ENDBRANCH   1  59
BRANCH  19 103
ATOM    103  O   UNL     1     127.364 168.110 196.948  0.00  0.00    -0.385 OA
ATOM    104  H   UNL     1     127.360 168.456 196.036  0.00  0.00    +0.210 HD
ENDBRANCH  19 103
BRANCH  18 105
ATOM    105  O   UNL     1     127.405 169.874 198.982  0.00  0.00    -0.377 OA
BRANCH 105 106
ATOM    106  C   UNL     1     127.752 171.198 198.587  0.00  0.00    +0.037 C 
ATOM    107  H   UNL     1     127.059 171.565 197.822  0.00  0.00    +0.052 HD
ATOM    108  H   UNL     1     128.759 171.174 198.161  0.00  0.00    +0.052 HD
ATOM    109  H   UNL     1     127.754 171.868 199.452  0.00  0.00    +0.052 HD
ENDBRANCH 105 106
ENDBRANCH  18 105
BRANCH   9 110
ATOM    110  O   UNL     1     132.470 166.310 203.030  0.00  0.00    -0.377 OA
BRANCH 110 111
ATOM    111  C   UNL     1     131.216 166.191 203.686  0.00  0.00    +0.037 C 
ATOM    112  H   UNL     1     130.487 165.804 202.971  0.00  0.00    +0.052 HD
ATOM    113  H   UNL     1     130.876 167.170 204.037  0.00  0.00    +0.052 HD
ATOM    114  H   UNL     1     131.280 165.493 204.526  0.00  0.00    +0.052 HD
ENDBRANCH 110 111
ENDBRANCH   9 110
BRANCH   5 115
ATOM    115  O   UNL     1     131.485 163.140 201.106  0.00  0.00    -0.377 OA
BRANCH 115 116
ATOM    116  C   UNL     1     130.518 162.280 201.693  0.00  0.00    +0.037 C 
ATOM    117  H   UNL     1     129.915 161.799 200.916  0.00  0.00    +0.052 HD
ATOM    118  H   UNL     1     129.872 162.826 202.387  0.00  0.00    +0.052 HD
ATOM    119  H   UNL     1     131.048 161.502 202.248  0.00  0.00    +0.052 HD
ENDBRANCH 115 116
ENDBRANCH   5 115
BRANCH   3 120
ATOM    120  O   UNL     1     135.158 161.540 199.752  0.00  0.00    -0.379 OA
BRANCH 120 121
ATOM    121  C   UNL     1     135.935 161.522 200.943  0.00  0.00    +0.037 C 
ATOM    122  H   UNL     1     135.517 162.197 201.692  0.00  0.00    +0.052 HD
ATOM    123  H   UNL     1     136.011 160.507 201.344  0.00  0.00    +0.052 HD
ATOM    124  H   UNL     1     136.943 161.865 200.697  0.00  0.00    +0.052 HD
ENDBRANCH 120 121
ENDBRANCH   3 120
TORSDOF 23
ENDMDL
MODEL 5
REMARK VINA RESULT:      -5.4      2.901      3.934
REMARK  Name = Lobophorolide_conf2
REMARK  23 active torsions:
REMARK  status: ('A' for Active; 'I' for Inactive)
REMARK    1  A    between atoms: C_1  and  C_2
REMARK    2  A    between atoms: C_4  and  O_53
REMARK    3  A    between atoms: C_6  and  C_8
REMARK    4  A    between atoms: C_8  and  C_9
REMARK    5  A    between atoms: C_9  and  C_10
REMARK    6  A    between atoms: C_10  and  C_11
REMARK    7  A    between atoms: C_10  and  C_12
REMARK    8  A    between atoms: C_12  and  C_13
REMARK    9  A    between atoms: C_12  and  O_52
REMARK   10  A    between atoms: C_13  and  C_14
REMARK   11  A    between atoms: C_13  and  C_15
REMARK   12  A    between atoms: C_16  and  C_51
REMARK   13  A    between atoms: C_17  and  O_49
REMARK   14  A    between atoms: C_19  and  O_47
REMARK   15  A    between atoms: C_23  and  O_45
REMARK   16  A    between atoms: C_32  and  O_43
REMARK   17  A    between atoms: C_33  and  O_42
REMARK   18  A    between atoms: C_35  and  C_41
REMARK   19  A    between atoms: O_43  and  C_44
REMARK   20  A    between atoms: O_45  and  C_46
REMARK   21  A    between atoms: O_47  and  C_48
REMARK   22  A    between atoms: O_49  and  C_50
REMARK   23  A    between atoms: O_53  and  C_54
REMARK                            x       y       z     vdW  Elec       q    Type
REMARK                         _______ _______ _______ _____ _____    ______ ____
ROOT
ATOM      1  C   UNL     1     153.106 165.387 189.063  0.00  0.00    +0.113 C 
ATOM      2  C   UNL     1     154.324 165.019 188.163  0.00  0.00    +0.020 C 
ATOM      3  C   UNL     1     154.895 163.604 188.519  0.00  0.00    +0.067 C 
ATOM      4  C   UNL     1     155.408 162.863 187.258  0.00  0.00    +0.003 C 
ATOM      5  C   UNL     1     154.510 161.681 186.815  0.00  0.00    +0.094 C 
ATOM      6  C   UNL     1     154.612 160.417 187.665  0.00  0.00    +0.145 C 
ATOM      7  C   UNL     1     155.992 159.946 188.124  0.00  0.00    +0.083 C 
ATOM      8  O   UNL     1     155.080 160.599 189.013  0.00  0.00    -0.363 OA
ATOM      9  C   UNL     1     153.552 159.328 187.457  0.00  0.00    +0.094 C 
ATOM     10  C   UNL     1     153.198 158.592 188.766  0.00  0.00    +0.003 C 
ATOM     11  C   UNL     1     152.339 157.321 188.672  0.00  0.00    +0.065 C 
ATOM     12  C   UNL     1     153.155 156.076 188.284  0.00  0.00    -0.008 C 
ATOM     13  C   UNL     1     152.254 154.888 188.159  0.00  0.00    -0.083 C 
ATOM     14  C   UNL     1     150.939 155.055 187.977  0.00  0.00    -0.059 C 
ATOM     15  C   UNL     1     150.277 156.407 187.836  0.00  0.00    +0.080 C 
ATOM     16  O   UNL     1     151.225 157.494 187.782  0.00  0.00    -0.369 OA
ATOM     17  C   UNL     1     149.249 156.666 188.949  0.00  0.00    +0.006 C 
ATOM     18  C   UNL     1     148.173 157.661 188.475  0.00  0.00    +0.090 C 
ATOM     19  C   UNL     1     147.719 158.611 189.611  0.00  0.00    +0.100 C 
ATOM     20  C   UNL     1     148.710 159.692 189.951  0.00  0.00    -0.051 C 
ATOM     21  C   UNL     1     149.131 160.717 189.178  0.00  0.00    -0.052 C 
ATOM     22  C   UNL     1     150.126 161.647 189.715  0.00  0.00    -0.052 C 
ATOM     23  C   UNL     1     150.656 162.683 189.049  0.00  0.00    +0.023 C 
ATOM     24  C   UNL     1     151.660 163.565 189.674  0.00  0.00    +0.332 C 
ATOM     25  O   UNL     1     152.062 163.493 190.822  0.00  0.00    -0.246 OA
ATOM     26  O   UNL     1     152.055 164.454 188.727  0.00  0.00    -0.458 OA
ATOM     27  H   UNL     1     153.405 165.285 190.114  0.00  0.00    +0.074 HD
ATOM     28  H   UNL     1     153.935 164.961 187.138  0.00  0.00    +0.036 HD
ATOM     29  H   UNL     1     154.140 162.984 189.013  0.00  0.00    +0.060 HD
ATOM     30  H   UNL     1     156.438 162.528 187.404  0.00  0.00    +0.032 HD
ATOM     31  H   UNL     1     155.458 163.572 186.422  0.00  0.00    +0.032 HD
ATOM     32  H   UNL     1     154.823 161.383 185.805  0.00  0.00    +0.063 HD
ATOM     33  H   UNL     1     156.879 160.479 187.816  0.00  0.00    +0.059 HD
ATOM     34  H   UNL     1     156.160 158.882 188.261  0.00  0.00    +0.059 HD
ATOM     35  H   UNL     1     152.622 159.775 187.081  0.00  0.00    +0.063 HD
ATOM     36  H   UNL     1     152.668 159.316 189.401  0.00  0.00    +0.032 HD
ATOM     37  H   UNL     1     154.107 158.320 189.315  0.00  0.00    +0.032 HD
ATOM     38  H   UNL     1     151.947 157.160 189.685  0.00  0.00    +0.060 HD
ATOM     39  H   UNL     1     153.916 155.882 189.049  0.00  0.00    +0.033 HD
ATOM     40  H   UNL     1     153.669 156.197 187.327  0.00  0.00    +0.033 HD
ATOM     41  H   UNL     1     152.691 153.896 188.214  0.00  0.00    +0.057 HD
ATOM     42  H   UNL     1     150.296 154.182 187.889  0.00  0.00    +0.059 HD
ATOM     43  H   UNL     1     149.770 156.404 186.864  0.00  0.00    +0.064 HD
ATOM     44  H   UNL     1     148.767 155.726 189.245  0.00  0.00    +0.032 HD
ATOM     45  H   UNL     1     149.762 157.060 189.832  0.00  0.00    +0.032 HD
ATOM     46  H   UNL     1     148.539 158.246 187.623  0.00  0.00    +0.063 HD
ATOM     47  H   UNL     1     147.517 158.021 190.516  0.00  0.00    +0.066 HD
ATOM     48  H   UNL     1     149.123 159.594 190.953  0.00  0.00    +0.060 HD
ATOM     49  H   UNL     1     150.453 161.470 190.739  0.00  0.00    +0.062 HD
ATOM     50  H   UNL     1     150.394 162.927 188.028  0.00  0.00    +0.069 HD
ENDROOT
BRANCH  21  51
ATOM     51  C   UNL     1     148.629 160.967 187.777  0.00  0.00    -0.040 C 
ATOM     52  H   UNL     1     148.459 162.038 187.620  0.00  0.00    +0.028 HD
ATOM     53  H   UNL     1     147.692 160.435 187.593  0.00  0.00    +0.028 HD
ATOM     54  H   UNL     1     149.315 160.628 186.999  0.00  0.00    +0.028 HD
ENDBRANCH  21  51
BRANCH   2  55
ATOM     55  C   UNL     1     155.432 166.082 188.187  0.00  0.00    -0.057 C 
ATOM     56  H   UNL     1     156.416 165.618 188.309  0.00  0.00    +0.023 HD
ATOM     57  H   UNL     1     155.471 166.652 187.256  0.00  0.00    +0.023 HD
ATOM     58  H   UNL     1     155.282 166.793 189.007  0.00  0.00    +0.023 HD
ENDBRANCH   2  55
BRANCH   1  59
ATOM     59  C   UNL     1     152.557 166.834 188.875  0.00  0.00    +0.020 C 
ATOM     60  H   UNL     1     153.281 167.374 188.254  0.00  0.00    +0.036 HD
BRANCH  59  61
ATOM     61  C   UNL     1     151.234 166.866 188.107  0.00  0.00    -0.057 C 
ATOM     62  H   UNL     1     150.424 166.415 188.687  0.00  0.00    +0.023 HD
ATOM     63  H   UNL     1     150.923 167.891 187.890  0.00  0.00    +0.023 HD
ATOM     64  H   UNL     1     151.314 166.353 187.147  0.00  0.00    +0.023 HD
ENDBRANCH  59  61
BRANCH  59  65
ATOM     65  C   UNL     1     152.498 167.613 190.226  0.00  0.00    +0.064 C 
ATOM     66  H   UNL     1     153.520 167.953 190.438  0.00  0.00    +0.060 HD
BRANCH  65  67
ATOM     67  C   UNL     1     151.956 166.879 191.492  0.00  0.00    -0.017 C 
ATOM     68  H   UNL     1     152.189 165.815 191.414  0.00  0.00    +0.032 HD
BRANCH  67  69
ATOM     69  C   UNL     1     152.734 167.409 192.711  0.00  0.00    -0.060 C 
ATOM     70  H   UNL     1     152.062 167.677 193.530  0.00  0.00    +0.023 HD
ATOM     71  H   UNL     1     153.325 168.298 192.455  0.00  0.00    +0.023 HD
ATOM     72  H   UNL     1     153.422 166.645 193.093  0.00  0.00    +0.023 HD
ENDBRANCH  67  69
BRANCH  67  73
ATOM     73  C   UNL     1     150.438 167.057 191.761  0.00  0.00    -0.046 C 
ATOM     74  H   UNL     1     149.972 167.617 190.948  0.00  0.00    +0.027 HD
ATOM     75  H   UNL     1     150.266 167.658 192.663  0.00  0.00    +0.027 HD
BRANCH  73  76
ATOM     76  C   UNL     1     149.648 165.741 191.898  0.00  0.00    -0.026 C 
ATOM     77  H   UNL     1     148.819 165.776 191.178  0.00  0.00    +0.029 HD
ATOM     78  H   UNL     1     150.287 164.901 191.605  0.00  0.00    +0.029 HD
BRANCH  76  83
ATOM     79  C   UNL     1     147.662 166.427 194.997  0.00  0.00    +0.059 C 
ATOM     80  C   UNL     1     148.652 165.955 196.062  0.00  0.00    -0.000 C 
ATOM     81  C   UNL     1     150.083 166.011 195.551  0.00  0.00    +0.063 C 
ATOM     82  C   UNL     1     150.190 165.164 194.287  0.00  0.00    -0.000 C 
ATOM     83  C   UNL     1     149.055 165.453 193.290  0.00  0.00    +0.061 C 
ATOM     84  O   UNL     1     148.282 166.574 193.715  0.00  0.00    -0.373 OA
ATOM     85  H   UNL     1     147.320 167.434 195.269  0.00  0.00    +0.059 HD
ATOM     86  H   UNL     1     148.546 166.568 196.969  0.00  0.00    +0.032 HD
ATOM     87  H   UNL     1     148.419 164.932 196.396  0.00  0.00    +0.032 HD
ATOM     88  H   UNL     1     150.346 167.054 195.331  0.00  0.00    +0.060 HD
ATOM     89  H   UNL     1     151.173 165.317 193.825  0.00  0.00    +0.032 HD
ATOM     90  H   UNL     1     150.177 164.096 194.544  0.00  0.00    +0.032 HD
ATOM     91  H   UNL     1     148.403 164.576 193.205  0.00  0.00    +0.060 HD
BRANCH  79  92
ATOM     92  C   UNL     1     146.422 165.540 194.930  0.00  0.00    -0.039 C 
ATOM     93  H   UNL     1     146.652 164.502 195.189  0.00  0.00    +0.025 HD
ATOM     94  H   UNL     1     145.655 165.899 195.621  0.00  0.00    +0.025 HD
ATOM     95  H   UNL     1     146.007 165.533 193.916  0.00  0.00    +0.025 HD
ENDBRANCH  79  92
BRANCH  81  96
ATOM     96  O   UNL     1     150.941 165.518 196.587  0.00  0.00    -0.380 OA
BRANCH  96  97
ATOM     97  C   UNL     1     151.244 164.133 196.455  0.00  0.00    +0.037 C 
ATOM     98  H   UNL     1     151.746 163.758 197.353  0.00  0.00    +0.052 HD
ATOM     99  H   UNL     1     150.303 163.590 196.332  0.00  0.00    +0.052 HD
ATOM    100  H   UNL     1     151.861 163.952 195.571  0.00  0.00    +0.052 HD
ENDBRANCH  96  97
ENDBRANCH  81  96
ENDBRANCH  76  83
ENDBRANCH  73  76
ENDBRANCH  67  73
ENDBRANCH  65  67
BRANCH  65 101
ATOM    101  O   UNL     1     151.733 168.812 190.031  0.00  0.00    -0.391 OA
ATOM    102  H   UNL     1     151.287 169.013 190.871  0.00  0.00    +0.210 HD
ENDBRANCH  65 101
ENDBRANCH  59  65
ENDBRANCH   1  59
BRANCH  19 103
ATOM    103  O   UNL     1     146.475 159.229 189.276  0.00  0.00    -0.385 OA
ATOM    104  H   UNL     1     145.993 158.549 188.770  0.00  0.00    +0.210 HD
ENDBRANCH  19 103
BRANCH  18 105
ATOM    105  O   UNL     1     147.017 156.884 188.067  0.00  0.00    -0.377 OA
BRANCH 105 106
ATOM    106  C   UNL     1     146.782 155.765 188.917  0.00  0.00    +0.037 C 
ATOM    107  H   UNL     1     146.385 154.922 188.342  0.00  0.00    +0.052 HD
ATOM    108  H   UNL     1     146.040 156.055 189.665  0.00  0.00    +0.052 HD
ATOM    109  H   UNL     1     147.703 155.475 189.431  0.00  0.00    +0.052 HD
ENDBRANCH 105 106
ENDBRANCH  18 105
BRANCH   9 110
ATOM    110  O   UNL     1     154.085 158.406 186.497  0.00  0.00    -0.377 OA
BRANCH 110 111
ATOM    111  C   UNL     1     153.455 158.519 185.229  0.00  0.00    +0.037 C 
ATOM    112  H   UNL     1     152.373 158.519 185.380  0.00  0.00    +0.052 HD
ATOM    113  H   UNL     1     153.719 157.667 184.595  0.00  0.00    +0.052 HD
ATOM    114  H   UNL     1     153.735 159.454 184.736  0.00  0.00    +0.052 HD
ENDBRANCH 110 111
ENDBRANCH   9 110
BRANCH   5 115
ATOM    115  O   UNL     1     153.141 162.114 186.779  0.00  0.00    -0.377 OA
BRANCH 115 116
ATOM    116  C   UNL     1     152.770 162.699 185.537  0.00  0.00    +0.037 C 
ATOM    117  H   UNL     1     152.028 162.075 185.030  0.00  0.00    +0.052 HD
ATOM    118  H   UNL     1     153.642 162.846 184.894  0.00  0.00    +0.052 HD
ATOM    119  H   UNL     1     152.319 163.672 185.743  0.00  0.00    +0.052 HD
ENDBRANCH 115 116
ENDBRANCH   5 115
BRANCH   3 120
ATOM    120  O   UNL     1     156.033 163.747 189.395  0.00  0.00    -0.379 OA
BRANCH 120 121
ATOM    121  C   UNL     1     157.250 163.283 188.822  0.00  0.00    +0.037 C 
ATOM    122  H   UNL     1     157.857 164.119 188.469  0.00  0.00    +0.052 HD
ATOM    123  H   UNL     1     157.813 162.678 189.538  0.00  0.00    +0.052 HD
ATOM    124  H   UNL     1     157.003 162.653 187.963  0.00  0.00    +0.052 HD
ENDBRANCH 120 121
ENDBRANCH   3 120
TORSDOF 23
ENDMDL
MODEL 6
REMARK VINA RESULT:      -5.3     21.713     25.667
REMARK  Name = Lobophorolide_conf2
REMARK  23 active torsions:
REMARK  status: ('A' for Active; 'I' for Inactive)
REMARK    1  A    between atoms: C_1  and  C_2
REMARK    2  A    between atoms: C_4  and  O_53
REMARK    3  A    between atoms: C_6  and  C_8
REMARK    4  A    between atoms: C_8  and  C_9
REMARK    5  A    between atoms: C_9  and  C_10
REMARK    6  A    between atoms: C_10  and  C_11
REMARK    7  A    between atoms: C_10  and  C_12
REMARK    8  A    between atoms: C_12  and  C_13
REMARK    9  A    between atoms: C_12  and  O_52
REMARK   10  A    between atoms: C_13  and  C_14
REMARK   11  A    between atoms: C_13  and  C_15
REMARK   12  A    between atoms: C_16  and  C_51
REMARK   13  A    between atoms: C_17  and  O_49
REMARK   14  A    between atoms: C_19  and  O_47
REMARK   15  A    between atoms: C_23  and  O_45
REMARK   16  A    between atoms: C_32  and  O_43
REMARK   17  A    between atoms: C_33  and  O_42
REMARK   18  A    between atoms: C_35  and  C_41
REMARK   19  A    between atoms: O_43  and  C_44
REMARK   20  A    between atoms: O_45  and  C_46
REMARK   21  A    between atoms: O_47  and  C_48
REMARK   22  A    between atoms: O_49  and  C_50
REMARK   23  A    between atoms: O_53  and  C_54
REMARK                            x       y       z     vdW  Elec       q    Type
REMARK                         _______ _______ _______ _____ _____    ______ ____
ROOT
ATOM      1  C   UNL     1     130.252 167.940 206.279  0.00  0.00    +0.113 C 
ATOM      2  C   UNL     1     128.790 168.419 206.030  0.00  0.00    +0.020 C 
ATOM      3  C   UNL     1     128.682 169.278 204.724  0.00  0.00    +0.067 C 
ATOM      4  C   UNL     1     127.336 169.036 203.994  0.00  0.00    +0.003 C 
ATOM      5  C   UNL     1     127.470 168.224 202.681  0.00  0.00    +0.094 C 
ATOM      6  C   UNL     1     128.044 168.984 201.487  0.00  0.00    +0.145 C 
ATOM      7  C   UNL     1     127.572 170.414 201.228  0.00  0.00    +0.083 C 
ATOM      8  O   UNL     1     128.853 170.131 201.799  0.00  0.00    -0.363 OA
ATOM      9  C   UNL     1     128.467 168.170 200.259  0.00  0.00    +0.094 C 
ATOM     10  C   UNL     1     129.700 168.770 199.550  0.00  0.00    +0.003 C 
ATOM     11  C   UNL     1     130.088 168.208 198.173  0.00  0.00    +0.065 C 
ATOM     12  C   UNL     1     129.243 168.795 197.030  0.00  0.00    -0.008 C 
ATOM     13  C   UNL     1     129.634 168.170 195.727  0.00  0.00    -0.083 C 
ATOM     14  C   UNL     1     130.278 166.997 195.708  0.00  0.00    -0.059 C 
ATOM     15  C   UNL     1     130.611 166.204 196.951  0.00  0.00    +0.080 C 
ATOM     16  O   UNL     1     130.044 166.773 198.151  0.00  0.00    -0.369 OA
ATOM     17  C   UNL     1     132.126 166.015 197.129  0.00  0.00    +0.006 C 
ATOM     18  C   UNL     1     132.425 164.745 197.946  0.00  0.00    +0.090 C 
ATOM     19  C   UNL     1     133.644 164.930 198.884  0.00  0.00    +0.100 C 
ATOM     20  C   UNL     1     133.367 165.768 200.104  0.00  0.00    -0.051 C 
ATOM     21  C   UNL     1     132.535 165.501 201.134  0.00  0.00    -0.052 C 
ATOM     22  C   UNL     1     132.409 166.481 202.215  0.00  0.00    -0.052 C 
ATOM     23  C   UNL     1     131.598 166.362 203.276  0.00  0.00    +0.023 C 
ATOM     24  C   UNL     1     131.534 167.408 204.315  0.00  0.00    +0.332 C 
ATOM     25  O   UNL     1     132.214 168.419 204.357  0.00  0.00    -0.246 OA
ATOM     26  O   UNL     1     130.573 167.035 205.199  0.00  0.00    -0.458 OA
ATOM     27  H   UNL     1     130.913 168.815 206.272  0.00  0.00    +0.074 HD
ATOM     28  H   UNL     1     128.198 167.509 205.868  0.00  0.00    +0.036 HD
ATOM     29  H   UNL     1     129.504 169.059 204.035  0.00  0.00    +0.060 HD
ATOM     30  H   UNL     1     126.827 169.984 203.806  0.00  0.00    +0.032 HD
ATOM     31  H   UNL     1     126.663 168.481 204.659  0.00  0.00    +0.032 HD
ATOM     32  H   UNL     1     126.463 167.912 202.376  0.00  0.00    +0.063 HD
ATOM     33  H   UNL     1     126.816 170.861 201.858  0.00  0.00    +0.059 HD
ATOM     34  H   UNL     1     127.541 170.775 200.205  0.00  0.00    +0.059 HD
ATOM     35  H   UNL     1     128.737 167.149 200.557  0.00  0.00    +0.063 HD
ATOM     36  H   UNL     1     130.552 168.628 200.229  0.00  0.00    +0.032 HD
ATOM     37  H   UNL     1     129.588 169.854 199.430  0.00  0.00    +0.032 HD
ATOM     38  H   UNL     1     131.128 168.522 198.015  0.00  0.00    +0.060 HD
ATOM     39  H   UNL     1     129.396 169.879 196.978  0.00  0.00    +0.033 HD
ATOM     40  H   UNL     1     128.174 168.616 197.168  0.00  0.00    +0.033 HD
ATOM     41  H   UNL     1     129.380 168.685 194.807  0.00  0.00    +0.057 HD
ATOM     42  H   UNL     1     130.558 166.556 194.754  0.00  0.00    +0.059 HD
ATOM     43  H   UNL     1     130.133 165.225 196.830  0.00  0.00    +0.064 HD
ATOM     44  H   UNL     1     132.615 165.939 196.149  0.00  0.00    +0.032 HD
ATOM     45  H   UNL     1     132.544 166.893 197.633  0.00  0.00    +0.032 HD
ATOM     46  H   UNL     1     131.546 164.447 198.529  0.00  0.00    +0.063 HD
ATOM     47  H   UNL     1     134.467 165.389 198.320  0.00  0.00    +0.066 HD
ATOM     48  H   UNL     1     133.921 166.706 200.113  0.00  0.00    +0.060 HD
ATOM     49  H   UNL     1     133.028 167.373 202.136  0.00  0.00    +0.062 HD
ATOM     50  H   UNL     1     130.944 165.514 203.430  0.00  0.00    +0.069 HD
ENDROOT
BRANCH  21  51
ATOM     51  C   UNL     1     131.719 164.236 201.243  0.00  0.00    -0.040 C 
ATOM     52  H   UNL     1     131.728 163.866 202.274  0.00  0.00    +0.028 HD
ATOM     53  H   UNL     1     132.116 163.455 200.589  0.00  0.00    +0.028 HD
ATOM     54  H   UNL     1     130.676 164.361 200.949  0.00  0.00    +0.028 HD
ENDBRANCH  21  51
BRANCH   2  55
ATOM     55  C   UNL     1     128.189 169.165 207.231  0.00  0.00    -0.057 C 
ATOM     56  H   UNL     1     127.377 169.827 206.913  0.00  0.00    +0.023 HD
ATOM     57  H   UNL     1     127.762 168.479 207.965  0.00  0.00    +0.023 HD
ATOM     58  H   UNL     1     128.947 169.771 207.741  0.00  0.00    +0.023 HD
ENDBRANCH   2  55
BRANCH   1  59
ATOM     59  C   UNL     1     130.484 167.194 207.629  0.00  0.00    +0.020 C 
ATOM     60  H   UNL     1     129.862 167.693 208.381  0.00  0.00    +0.036 HD
BRANCH  59  61
ATOM     61  C   UNL     1     130.009 165.740 207.586  0.00  0.00    -0.057 C 
ATOM     62  H   UNL     1     129.935 165.374 206.558  0.00  0.00    +0.023 HD
ATOM     63  H   UNL     1     130.710 165.076 208.099  0.00  0.00    +0.023 HD
ATOM     64  H   UNL     1     129.044 165.617 208.080  0.00  0.00    +0.023 HD
ENDBRANCH  59  61
BRANCH  59  65
ATOM     65  C   UNL     1     131.954 167.344 208.130  0.00  0.00    +0.064 C 
ATOM     66  H   UNL     1     132.431 166.363 208.004  0.00  0.00    +0.060 HD
BRANCH  65  67
ATOM     67  C   UNL     1     132.202 167.823 209.594  0.00  0.00    -0.017 C 
ATOM     68  H   UNL     1     133.278 167.875 209.773  0.00  0.00    +0.032 HD
BRANCH  67  69
ATOM     69  C   UNL     1     131.669 169.263 209.712  0.00  0.00    -0.060 C 
ATOM     70  H   UNL     1     131.573 169.737 208.732  0.00  0.00    +0.023 HD
ATOM     71  H   UNL     1     132.331 169.889 210.325  0.00  0.00    +0.023 HD
ATOM     72  H   UNL     1     130.674 169.270 210.174  0.00  0.00    +0.023 HD
ENDBRANCH  67  69
BRANCH  67  73
ATOM     73  C   UNL     1     131.535 166.958 210.696  0.00  0.00    -0.046 C 
ATOM     74  H   UNL     1     130.448 167.026 210.625  0.00  0.00    +0.027 HD
ATOM     75  H   UNL     1     131.785 167.334 211.696  0.00  0.00    +0.027 HD
BRANCH  73  76
ATOM     76  C   UNL     1     131.886 165.459 210.640  0.00  0.00    -0.026 C 
ATOM     77  H   UNL     1     131.558 165.078 209.664  0.00  0.00    +0.029 HD
ATOM     78  H   UNL     1     132.974 165.338 210.678  0.00  0.00    +0.029 HD
BRANCH  76  83
ATOM     79  C   UNL     1     131.081 164.344 214.123  0.00  0.00    +0.059 C 
ATOM     80  C   UNL     1     131.307 162.838 213.984  0.00  0.00    -0.000 C 
ATOM     81  C   UNL     1     132.267 162.526 212.845  0.00  0.00    +0.063 C 
ATOM     82  C   UNL     1     131.712 163.121 211.555  0.00  0.00    -0.000 C 
ATOM     83  C   UNL     1     131.250 164.577 211.730  0.00  0.00    +0.061 C 
ATOM     84  O   UNL     1     131.622 165.073 213.015  0.00  0.00    -0.373 OA
ATOM     85  H   UNL     1     131.640 164.695 215.000  0.00  0.00    +0.059 HD
ATOM     86  H   UNL     1     131.691 162.429 214.929  0.00  0.00    +0.032 HD
ATOM     87  H   UNL     1     130.358 162.306 213.822  0.00  0.00    +0.032 HD
ATOM     88  H   UNL     1     133.248 162.962 213.072  0.00  0.00    +0.060 HD
ATOM     89  H   UNL     1     132.464 163.035 210.760  0.00  0.00    +0.032 HD
ATOM     90  H   UNL     1     130.867 162.519 211.192  0.00  0.00    +0.032 HD
ATOM     91  H   UNL     1     130.161 164.636 211.622  0.00  0.00    +0.060 HD
BRANCH  79  92
ATOM     92  C   UNL     1     129.613 164.685 214.365  0.00  0.00    -0.039 C 
ATOM     93  H   UNL     1     129.471 165.755 214.543  0.00  0.00    +0.025 HD
ATOM     94  H   UNL     1     129.005 164.402 213.502  0.00  0.00    +0.025 HD
ATOM     95  H   UNL     1     129.236 164.160 215.249  0.00  0.00    +0.025 HD
ENDBRANCH  79  92
BRANCH  81  96
ATOM     96  O   UNL     1     132.395 161.103 212.755  0.00  0.00    -0.380 OA
BRANCH  96  97
ATOM     97  C   UNL     1     132.231 160.441 214.006  0.00  0.00    +0.037 C 
ATOM     98  H   UNL     1     133.131 160.545 214.620  0.00  0.00    +0.052 HD
ATOM     99  H   UNL     1     131.397 160.912 214.531  0.00  0.00    +0.052 HD
ATOM    100  H   UNL     1     131.991 159.385 213.858  0.00  0.00    +0.052 HD
ENDBRANCH  96  97
ENDBRANCH  81  96
ENDBRANCH  76  83
ENDBRANCH  73  76
ENDBRANCH  67  73
ENDBRANCH  65  67
BRANCH  65 101
ATOM    101  O   UNL     1     132.655 168.222 207.236  0.00  0.00    -0.391 OA
ATOM    102  H   UNL     1     133.388 167.717 206.846  0.00  0.00    +0.210 HD
ENDBRANCH  65 101
ENDBRANCH  59  65
ENDBRANCH   1  59
BRANCH  19 103
ATOM    103  O   UNL     1     134.139 163.661 199.314  0.00  0.00    -0.385 OA
ATOM    104  H   UNL     1     133.366 163.220 199.712  0.00  0.00    +0.210 HD
ENDBRANCH  19 103
BRANCH  18 105
ATOM    105  O   UNL     1     132.757 163.693 197.002  0.00  0.00    -0.377 OA
BRANCH 105 106
ATOM    106  C   UNL     1     131.774 162.663 196.965  0.00  0.00    +0.037 C 
ATOM    107  H   UNL     1     131.852 162.090 196.035  0.00  0.00    +0.052 HD
ATOM    108  H   UNL     1     130.786 163.131 197.002  0.00  0.00    +0.052 HD
ATOM    109  H   UNL     1     131.879 162.000 197.830  0.00  0.00    +0.052 HD
ENDBRANCH 105 106
ENDBRANCH  18 105
BRANCH   9 110
ATOM    110  O   UNL     1     127.344 168.148 199.367  0.00  0.00    -0.377 OA
BRANCH 110 111
ATOM    111  C   UNL     1     126.705 166.880 199.331  0.00  0.00    +0.037 C 
ATOM    112  H   UNL     1     126.864 166.442 198.343  0.00  0.00    +0.052 HD
ATOM    113  H   UNL     1     125.629 166.992 199.494  0.00  0.00    +0.052 HD
ATOM    114  H   UNL     1     127.131 166.207 200.080  0.00  0.00    +0.052 HD
ENDBRANCH 110 111
ENDBRANCH   9 110
BRANCH   5 115
ATOM    115  O   UNL     1     128.274 167.058 202.926  0.00  0.00    -0.377 OA
BRANCH 115 116
ATOM    116  C   UNL     1     127.518 165.937 203.364  0.00  0.00    +0.037 C 
ATOM    117  H   UNL     1     126.490 166.236 203.590  0.00  0.00    +0.052 HD
ATOM    118  H   UNL     1     127.976 165.469 204.240  0.00  0.00    +0.052 HD
ATOM    119  H   UNL     1     127.493 165.207 202.551  0.00  0.00    +0.052 HD
ENDBRANCH 115 116
ENDBRANCH   5 115
BRANCH   3 120
ATOM    120  O   UNL     1     128.712 170.681 205.062  0.00  0.00    -0.379 OA
BRANCH 120 121
ATOM    121  C   UNL     1     129.967 171.298 204.803  0.00  0.00    +0.037 C 
ATOM    122  H   UNL     1     130.686 171.063 205.590  0.00  0.00    +0.052 HD
ATOM    123  H   UNL     1     130.357 170.996 203.827  0.00  0.00    +0.052 HD
ATOM    124  H   UNL     1     129.817 172.381 204.788  0.00  0.00    +0.052 HD
ENDBRANCH 120 121
ENDBRANCH   3 120
TORSDOF 23
ENDMDL
MODEL 7
REMARK VINA RESULT:      -5.3     23.494     28.760
REMARK  Name = Lobophorolide_conf2
REMARK  23 active torsions:
REMARK  status: ('A' for Active; 'I' for Inactive)
REMARK    1  A    between atoms: C_1  and  C_2
REMARK    2  A    between atoms: C_4  and  O_53
REMARK    3  A    between atoms: C_6  and  C_8
REMARK    4  A    between atoms: C_8  and  C_9
REMARK    5  A    between atoms: C_9  and  C_10
REMARK    6  A    between atoms: C_10  and  C_11
REMARK    7  A    between atoms: C_10  and  C_12
REMARK    8  A    between atoms: C_12  and  C_13
REMARK    9  A    between atoms: C_12  and  O_52
REMARK   10  A    between atoms: C_13  and  C_14
REMARK   11  A    between atoms: C_13  and  C_15
REMARK   12  A    between atoms: C_16  and  C_51
REMARK   13  A    between atoms: C_17  and  O_49
REMARK   14  A    between atoms: C_19  and  O_47
REMARK   15  A    between atoms: C_23  and  O_45
REMARK   16  A    between atoms: C_32  and  O_43
REMARK   17  A    between atoms: C_33  and  O_42
REMARK   18  A    between atoms: C_35  and  C_41
REMARK   19  A    between atoms: O_43  and  C_44
REMARK   20  A    between atoms: O_45  and  C_46
REMARK   21  A    between atoms: O_47  and  C_48
REMARK   22  A    between atoms: O_49  and  C_50
REMARK   23  A    between atoms: O_53  and  C_54
REMARK                            x       y       z     vdW  Elec       q    Type
REMARK                         _______ _______ _______ _____ _____    ______ ____
ROOT
ATOM      1  C   UNL     1     149.396 190.954 201.331  0.00  0.00    +0.113 C 
ATOM      2  C   UNL     1     148.916 192.087 200.374  0.00  0.00    +0.020 C 
ATOM      3  C   UNL     1     148.671 191.548 198.923  0.00  0.00    +0.067 C 
ATOM      4  C   UNL     1     147.474 192.264 198.246  0.00  0.00    +0.003 C 
ATOM      5  C   UNL     1     146.213 191.376 198.098  0.00  0.00    +0.094 C 
ATOM      6  C   UNL     1     146.272 190.318 196.999  0.00  0.00    +0.145 C 
ATOM      7  C   UNL     1     146.867 190.695 195.643  0.00  0.00    +0.083 C 
ATOM      8  O   UNL     1     147.588 189.903 196.593  0.00  0.00    -0.363 OA
ATOM      9  C   UNL     1     145.188 189.233 196.994  0.00  0.00    +0.094 C 
ATOM     10  C   UNL     1     145.723 187.869 196.509  0.00  0.00    +0.003 C 
ATOM     11  C   UNL     1     144.704 186.755 196.218  0.00  0.00    +0.065 C 
ATOM     12  C   UNL     1     144.043 186.898 194.836  0.00  0.00    -0.008 C 
ATOM     13  C   UNL     1     143.028 185.816 194.636  0.00  0.00    -0.083 C 
ATOM     14  C   UNL     1     142.518 185.167 195.690  0.00  0.00    -0.059 C 
ATOM     15  C   UNL     1     142.871 185.489 197.123  0.00  0.00    +0.080 C 
ATOM     16  O   UNL     1     143.709 186.658 197.248  0.00  0.00    -0.369 OA
ATOM     17  C   UNL     1     143.528 184.298 197.840  0.00  0.00    +0.006 C 
ATOM     18  C   UNL     1     143.293 184.379 199.359  0.00  0.00    +0.090 C 
ATOM     19  C   UNL     1     144.518 183.878 200.165  0.00  0.00    +0.100 C 
ATOM     20  C   UNL     1     145.678 184.837 200.193  0.00  0.00    -0.051 C 
ATOM     21  C   UNL     1     145.737 186.066 200.749  0.00  0.00    -0.052 C 
ATOM     22  C   UNL     1     146.977 186.837 200.637  0.00  0.00    -0.052 C 
ATOM     23  C   UNL     1     147.163 188.077 201.109  0.00  0.00    +0.023 C 
ATOM     24  C   UNL     1     148.451 188.778 200.943  0.00  0.00    +0.332 C 
ATOM     25  O   UNL     1     149.457 188.316 200.433  0.00  0.00    -0.246 OA
ATOM     26  O   UNL     1     148.294 190.028 201.449  0.00  0.00    -0.458 OA
ATOM     27  H   UNL     1     150.274 190.471 200.887  0.00  0.00    +0.074 HD
ATOM     28  H   UNL     1     147.946 192.420 200.763  0.00  0.00    +0.036 HD
ATOM     29  H   UNL     1     148.484 190.470 198.927  0.00  0.00    +0.060 HD
ATOM     30  H   UNL     1     147.772 192.670 197.276  0.00  0.00    +0.032 HD
ATOM     31  H   UNL     1     147.195 193.139 198.845  0.00  0.00    +0.032 HD
ATOM     32  H   UNL     1     145.373 192.031 197.832  0.00  0.00    +0.063 HD
ATOM     33  H   UNL     1     147.201 191.705 195.457  0.00  0.00    +0.059 HD
ATOM     34  H   UNL     1     146.490 190.201 194.754  0.00  0.00    +0.059 HD
ATOM     35  H   UNL     1     144.801 189.081 198.009  0.00  0.00    +0.063 HD
ATOM     36  H   UNL     1     146.411 187.507 197.286  0.00  0.00    +0.032 HD
ATOM     37  H   UNL     1     146.329 187.989 195.603  0.00  0.00    +0.032 HD
ATOM     38  H   UNL     1     145.286 185.824 196.214  0.00  0.00    +0.060 HD
ATOM     39  H   UNL     1     144.808 186.833 194.054  0.00  0.00    +0.033 HD
ATOM     40  H   UNL     1     143.527 187.854 194.719  0.00  0.00    +0.033 HD
ATOM     41  H   UNL     1     142.715 185.578 193.626  0.00  0.00    +0.057 HD
ATOM     42  H   UNL     1     141.783 184.382 195.529  0.00  0.00    +0.059 HD
ATOM     43  H   UNL     1     141.929 185.742 197.625  0.00  0.00    +0.064 HD
ATOM     44  H   UNL     1     143.115 183.355 197.460  0.00  0.00    +0.032 HD
ATOM     45  H   UNL     1     144.601 184.293 197.625  0.00  0.00    +0.032 HD
ATOM     46  H   UNL     1     143.046 185.405 199.656  0.00  0.00    +0.063 HD
ATOM     47  H   UNL     1     144.860 182.923 199.744  0.00  0.00    +0.066 HD
ATOM     48  H   UNL     1     146.560 184.456 199.680  0.00  0.00    +0.060 HD
ATOM     49  H   UNL     1     147.805 186.350 200.124  0.00  0.00    +0.062 HD
ATOM     50  H   UNL     1     146.393 188.636 201.624  0.00  0.00    +0.069 HD
ENDROOT
BRANCH  21  51
ATOM     51  C   UNL     1     144.588 186.702 201.494  0.00  0.00    -0.040 C 
ATOM     52  H   UNL     1     143.686 186.089 201.396  0.00  0.00    +0.028 HD
ATOM     53  H   UNL     1     144.375 187.702 201.108  0.00  0.00    +0.028 HD
ATOM     54  H   UNL     1     144.779 186.835 202.561  0.00  0.00    +0.028 HD
ENDBRANCH  21  51
BRANCH   2  55
ATOM     55  C   UNL     1     149.859 193.300 200.358  0.00  0.00    -0.057 C 
ATOM     56  H   UNL     1     150.382 193.377 199.399  0.00  0.00    +0.023 HD
ATOM     57  H   UNL     1     149.317 194.240 200.492  0.00  0.00    +0.023 HD
ATOM     58  H   UNL     1     150.608 193.231 201.155  0.00  0.00    +0.023 HD
ENDBRANCH   2  55
BRANCH   1  59
ATOM     59  C   UNL     1     149.799 191.424 202.763  0.00  0.00    +0.020 C 
ATOM     60  H   UNL     1     150.199 192.440 202.666  0.00  0.00    +0.036 HD
BRANCH  59  61
ATOM     61  C   UNL     1     148.599 191.529 203.706  0.00  0.00    -0.057 C 
ATOM     62  H   UNL     1     148.622 192.462 204.279  0.00  0.00    +0.023 HD
ATOM     63  H   UNL     1     147.656 191.531 203.155  0.00  0.00    +0.023 HD
ATOM     64  H   UNL     1     148.556 190.686 204.398  0.00  0.00    +0.023 HD
ENDBRANCH  59  61
BRANCH  59  65
ATOM     65  C   UNL     1     150.964 190.566 203.348  0.00  0.00    +0.064 C 
ATOM     66  H   UNL     1     150.577 190.090 204.259  0.00  0.00    +0.060 HD
BRANCH  65  67
ATOM     67  C   UNL     1     152.311 191.271 203.699  0.00  0.00    -0.017 C 
ATOM     68  H   UNL     1     153.130 190.563 203.559  0.00  0.00    +0.032 HD
BRANCH  67  69
ATOM     69  C   UNL     1     152.529 192.401 202.677  0.00  0.00    -0.060 C 
ATOM     70  H   UNL     1     152.821 193.334 203.166  0.00  0.00    +0.023 HD
ATOM     71  H   UNL     1     151.620 192.597 202.093  0.00  0.00    +0.023 HD
ATOM     72  H   UNL     1     153.331 192.139 201.976  0.00  0.00    +0.023 HD
ENDBRANCH  67  69
BRANCH  67  73
ATOM     73  C   UNL     1     152.390 191.875 205.127  0.00  0.00    -0.046 C 
ATOM     74  H   UNL     1     152.224 192.954 205.091  0.00  0.00    +0.027 HD
ATOM     75  H   UNL     1     153.393 191.749 205.553  0.00  0.00    +0.027 HD
BRANCH  73  76
ATOM     76  C   UNL     1     151.363 191.306 206.125  0.00  0.00    -0.026 C 
ATOM     77  H   UNL     1     150.740 192.140 206.472  0.00  0.00    +0.029 HD
ATOM     78  H   UNL     1     150.698 190.608 205.606  0.00  0.00    +0.029 HD
BRANCH  76  83
ATOM     79  C   UNL     1     152.798 191.055 209.575  0.00  0.00    +0.059 C 
ATOM     80  C   UNL     1     153.957 190.091 209.316  0.00  0.00    -0.000 C 
ATOM     81  C   UNL     1     154.402 190.140 207.862  0.00  0.00    +0.063 C 
ATOM     82  C   UNL     1     153.207 189.816 206.970  0.00  0.00    -0.000 C 
ATOM     83  C   UNL     1     151.948 190.605 207.366  0.00  0.00    +0.061 C 
ATOM     84  O   UNL     1     152.256 191.582 208.359  0.00  0.00    -0.373 OA
ATOM     85  H   UNL     1     153.190 191.925 210.117  0.00  0.00    +0.059 HD
ATOM     86  H   UNL     1     154.799 190.333 209.981  0.00  0.00    +0.032 HD
ATOM     87  H   UNL     1     153.685 189.059 209.585  0.00  0.00    +0.032 HD
ATOM     88  H   UNL     1     154.783 191.143 207.635  0.00  0.00    +0.060 HD
ATOM     89  H   UNL     1     153.476 189.995 205.921  0.00  0.00    +0.032 HD
ATOM     90  H   UNL     1     152.984 188.741 207.010  0.00  0.00    +0.032 HD
ATOM     91  H   UNL     1     151.189 189.919 207.757  0.00  0.00    +0.060 HD
BRANCH  79  92
ATOM     92  C   UNL     1     151.718 190.432 210.456  0.00  0.00    -0.039 C 
ATOM     93  H   UNL     1     150.897 190.023 209.860  0.00  0.00    +0.025 HD
ATOM     94  H   UNL     1     152.135 189.621 211.060  0.00  0.00    +0.025 HD
ATOM     95  H   UNL     1     151.286 191.184 211.125  0.00  0.00    +0.025 HD
ENDBRANCH  79  92
BRANCH  81  96
ATOM     96  O   UNL     1     155.457 189.186 207.693  0.00  0.00    -0.380 OA
BRANCH  96  97
ATOM     97  C   UNL     1     154.993 187.893 207.318  0.00  0.00    +0.037 C 
ATOM     98  H   UNL     1     154.776 187.287 208.203  0.00  0.00    +0.052 HD
ATOM     99  H   UNL     1     154.069 188.016 206.747  0.00  0.00    +0.052 HD
ATOM    100  H   UNL     1     155.724 187.388 206.681  0.00  0.00    +0.052 HD
ENDBRANCH  96  97
ENDBRANCH  81  96
ENDBRANCH  76  83
ENDBRANCH  73  76
ENDBRANCH  67  73
ENDBRANCH  65  67
BRANCH  65 101
ATOM    101  O   UNL     1     151.236 189.484 202.443  0.00  0.00    -0.391 OA
ATOM    102  H   UNL     1     151.075 189.811 201.542  0.00  0.00    +0.210 HD
ENDBRANCH  65 101
ENDBRANCH  59  65
ENDBRANCH   1  59
BRANCH  19 103
ATOM    103  O   UNL     1     144.143 183.586 201.512  0.00  0.00    -0.385 OA
ATOM    104  H   UNL     1     144.958 183.243 201.923  0.00  0.00    +0.210 HD
ENDBRANCH  19 103
BRANCH  18 105
ATOM    105  O   UNL     1     142.178 183.505 199.672  0.00  0.00    -0.377 OA
BRANCH 105 106
ATOM    106  C   UNL     1     142.117 182.369 198.813  0.00  0.00    +0.037 C 
ATOM    107  H   UNL     1     142.186 181.443 199.395  0.00  0.00    +0.052 HD
ATOM    108  H   UNL     1     142.967 182.412 198.128  0.00  0.00    +0.052 HD
ATOM    109  H   UNL     1     141.193 182.382 198.226  0.00  0.00    +0.052 HD
ENDBRANCH 105 106
ENDBRANCH  18 105
BRANCH   9 110
ATOM    110  O   UNL     1     144.143 189.693 196.126  0.00  0.00    -0.377 OA
BRANCH 110 111
ATOM    111  C   UNL     1     142.987 190.103 196.840  0.00  0.00    +0.037 C 
ATOM    112  H   UNL     1     143.102 191.155 197.109  0.00  0.00    +0.052 HD
ATOM    113  H   UNL     1     142.878 189.518 197.757  0.00  0.00    +0.052 HD
ATOM    114  H   UNL     1     142.090 190.002 196.222  0.00  0.00    +0.052 HD
ENDBRANCH 110 111
ENDBRANCH   9 110
BRANCH   5 115
ATOM    115  O   UNL     1     145.936 190.736 199.354  0.00  0.00    -0.377 OA
BRANCH 115 116
ATOM    116  C   UNL     1     145.115 191.516 200.213  0.00  0.00    +0.037 C 
ATOM    117  H   UNL     1     145.530 192.522 200.324  0.00  0.00    +0.052 HD
ATOM    118  H   UNL     1     145.007 191.043 201.194  0.00  0.00    +0.052 HD
ATOM    119  H   UNL     1     144.127 191.599 199.754  0.00  0.00    +0.052 HD
ENDBRANCH 115 116
ENDBRANCH   5 115
BRANCH   3 120
ATOM    120  O   UNL     1     149.825 191.824 198.102  0.00  0.00    -0.379 OA
BRANCH 120 121
ATOM    121  C   UNL     1     150.687 190.703 197.943  0.00  0.00    +0.037 C 
ATOM    122  H   UNL     1     151.429 190.889 197.164  0.00  0.00    +0.052 HD
ATOM    123  H   UNL     1     151.179 190.453 198.887  0.00  0.00    +0.052 HD
ATOM    124  H   UNL     1     150.079 189.846 197.639  0.00  0.00    +0.052 HD
ENDBRANCH 120 121
ENDBRANCH   3 120
TORSDOF 23
ENDMDL
MODEL 8
REMARK VINA RESULT:      -5.2      2.635      3.730
REMARK  Name = Lobophorolide_conf2
REMARK  23 active torsions:
REMARK  status: ('A' for Active; 'I' for Inactive)
REMARK    1  A    between atoms: C_1  and  C_2
REMARK    2  A    between atoms: C_4  and  O_53
REMARK    3  A    between atoms: C_6  and  C_8
REMARK    4  A    between atoms: C_8  and  C_9
REMARK    5  A    between atoms: C_9  and  C_10
REMARK    6  A    between atoms: C_10  and  C_11
REMARK    7  A    between atoms: C_10  and  C_12
REMARK    8  A    between atoms: C_12  and  C_13
REMARK    9  A    between atoms: C_12  and  O_52
REMARK   10  A    between atoms: C_13  and  C_14
REMARK   11  A    between atoms: C_13  and  C_15
REMARK   12  A    between atoms: C_16  and  C_51
REMARK   13  A    between atoms: C_17  and  O_49
REMARK   14  A    between atoms: C_19  and  O_47
REMARK   15  A    between atoms: C_23  and  O_45
REMARK   16  A    between atoms: C_32  and  O_43
REMARK   17  A    between atoms: C_33  and  O_42
REMARK   18  A    between atoms: C_35  and  C_41
REMARK   19  A    between atoms: O_43  and  C_44
REMARK   20  A    between atoms: O_45  and  C_46
REMARK   21  A    between atoms: O_47  and  C_48
REMARK   22  A    between atoms: O_49  and  C_50
REMARK   23  A    between atoms: O_53  and  C_54
REMARK                            x       y       z     vdW  Elec       q    Type
REMARK                         _______ _______ _______ _____ _____    ______ ____
ROOT
ATOM      1  C   UNL     1     152.979 165.280 189.376  0.00  0.00    +0.113 C 
ATOM      2  C   UNL     1     154.063 164.453 188.621  0.00  0.00    +0.020 C 
ATOM      3  C   UNL     1     154.045 162.949 189.057  0.00  0.00    +0.067 C 
ATOM      4  C   UNL     1     154.377 162.008 187.870  0.00  0.00    +0.003 C 
ATOM      5  C   UNL     1     153.161 161.205 187.345  0.00  0.00    +0.094 C 
ATOM      6  C   UNL     1     152.714 160.035 188.218  0.00  0.00    +0.145 C 
ATOM      7  C   UNL     1     153.777 159.125 188.833  0.00  0.00    +0.083 C 
ATOM      8  O   UNL     1     153.080 160.107 189.607  0.00  0.00    -0.363 OA
ATOM      9  C   UNL     1     151.357 159.389 187.908  0.00  0.00    +0.094 C 
ATOM     10  C   UNL     1     150.634 158.898 189.179  0.00  0.00    +0.003 C 
ATOM     11  C   UNL     1     149.386 158.017 189.006  0.00  0.00    +0.065 C 
ATOM     12  C   UNL     1     149.731 156.544 188.728  0.00  0.00    -0.008 C 
ATOM     13  C   UNL     1     148.478 155.752 188.519  0.00  0.00    -0.083 C 
ATOM     14  C   UNL     1     147.337 156.370 188.190  0.00  0.00    -0.059 C 
ATOM     15  C   UNL     1     147.227 157.859 187.960  0.00  0.00    +0.080 C 
ATOM     16  O   UNL     1     148.505 158.531 187.997  0.00  0.00    -0.369 OA
ATOM     17  C   UNL     1     146.258 158.528 188.948  0.00  0.00    +0.006 C 
ATOM     18  C   UNL     1     145.668 159.816 188.344  0.00  0.00    +0.090 C 
ATOM     19  C   UNL     1     145.478 160.924 189.411  0.00  0.00    +0.100 C 
ATOM     20  C   UNL     1     146.755 161.594 189.844  0.00  0.00    -0.051 C 
ATOM     21  C   UNL     1     147.592 162.358 189.109  0.00  0.00    -0.052 C 
ATOM     22  C   UNL     1     148.798 162.897 189.741  0.00  0.00    -0.052 C 
ATOM     23  C   UNL     1     149.730 163.637 189.125  0.00  0.00    +0.023 C 
ATOM     24  C   UNL     1     150.919 164.133 189.846  0.00  0.00    +0.332 C 
ATOM     25  O   UNL     1     151.151 163.981 191.032  0.00  0.00    -0.246 OA
ATOM     26  O   UNL     1     151.700 164.770 188.937  0.00  0.00    -0.458 OA
ATOM     27  H   UNL     1     153.115 165.133 190.454  0.00  0.00    +0.074 HD
ATOM     28  H   UNL     1     153.783 164.485 187.560  0.00  0.00    +0.036 HD
ATOM     29  H   UNL     1     153.072 162.667 189.472  0.00  0.00    +0.060 HD
ATOM     30  H   UNL     1     155.196 161.334 188.134  0.00  0.00    +0.032 HD
ATOM     31  H   UNL     1     154.763 162.607 187.036  0.00  0.00    +0.032 HD
ATOM     32  H   UNL     1     153.443 160.762 186.381  0.00  0.00    +0.063 HD
ATOM     33  H   UNL     1     154.823 159.288 188.619  0.00  0.00    +0.059 HD
ATOM     34  H   UNL     1     153.534 158.081 189.002  0.00  0.00    +0.059 HD
ATOM     35  H   UNL     1     150.694 160.119 187.425  0.00  0.00    +0.063 HD
ATOM     36  H   UNL     1     150.342 159.796 189.741  0.00  0.00    +0.032 HD
ATOM     37  H   UNL     1     151.324 158.347 189.829  0.00  0.00    +0.032 HD
ATOM     38  H   UNL     1     148.865 158.060 189.972  0.00  0.00    +0.060 HD
ATOM     39  H   UNL     1     150.290 156.130 189.576  0.00  0.00    +0.033 HD
ATOM     40  H   UNL     1     150.346 156.422 187.833  0.00  0.00    +0.033 HD
ATOM     41  H   UNL     1     148.518 154.675 188.635  0.00  0.00    +0.057 HD
ATOM     42  H   UNL     1     146.434 155.782 188.043  0.00  0.00    +0.059 HD
ATOM     43  H   UNL     1     146.852 157.988 186.937  0.00  0.00    +0.064 HD
ATOM     44  H   UNL     1     145.441 157.840 189.200  0.00  0.00    +0.032 HD
ATOM     45  H   UNL     1     146.789 158.758 189.877  0.00  0.00    +0.032 HD
ATOM     46  H   UNL     1     146.303 160.186 187.531  0.00  0.00    +0.063 HD
ATOM     47  H   UNL     1     144.988 160.494 190.294  0.00  0.00    +0.066 HD
ATOM     48  H   UNL     1     147.003 161.407 190.887  0.00  0.00    +0.060 HD
ATOM     49  H   UNL     1     148.936 162.668 190.797  0.00  0.00    +0.062 HD
ATOM     50  H   UNL     1     149.676 163.905 188.078  0.00  0.00    +0.069 HD
ENDROOT
BRANCH  21  51
ATOM     51  C   UNL     1     147.356 162.698 187.658  0.00  0.00    -0.040 C 
ATOM     52  H   UNL     1     146.299 162.565 187.403  0.00  0.00    +0.028 HD
ATOM     53  H   UNL     1     147.956 162.062 187.002  0.00  0.00    +0.028 HD
ATOM     54  H   UNL     1     147.628 163.723 187.399  0.00  0.00    +0.028 HD
ENDBRANCH  21  51
BRANCH   2  55
ATOM     55  C   UNL     1     155.473 165.048 188.753  0.00  0.00    -0.057 C 
ATOM     56  H   UNL     1     155.606 165.526 189.729  0.00  0.00    +0.023 HD
ATOM     57  H   UNL     1     156.248 164.282 188.674  0.00  0.00    +0.023 HD
ATOM     58  H   UNL     1     155.663 165.796 187.975  0.00  0.00    +0.023 HD
ENDBRANCH   2  55
BRANCH   1  59
ATOM     59  C   UNL     1     153.012 166.816 189.109  0.00  0.00    +0.020 C 
ATOM     60  H   UNL     1     154.020 167.164 189.364  0.00  0.00    +0.036 HD
BRANCH  59  61
ATOM     61  C   UNL     1     152.807 167.161 187.632  0.00  0.00    -0.057 C 
ATOM     62  H   UNL     1     151.902 167.759 187.484  0.00  0.00    +0.023 HD
ATOM     63  H   UNL     1     153.636 167.757 187.242  0.00  0.00    +0.023 HD
ATOM     64  H   UNL     1     152.748 166.264 187.014  0.00  0.00    +0.023 HD
ENDBRANCH  59  61
BRANCH  59  65
ATOM     65  C   UNL     1     152.047 167.591 190.058  0.00  0.00    +0.064 C 
ATOM     66  H   UNL     1     152.406 168.628 190.094  0.00  0.00    +0.060 HD
BRANCH  65  67
ATOM     67  C   UNL     1     151.869 167.085 191.524  0.00  0.00    -0.017 C 
ATOM     68  H   UNL     1     151.929 165.995 191.534  0.00  0.00    +0.032 HD
BRANCH  67  69
ATOM     69  C   UNL     1     153.068 167.596 192.344  0.00  0.00    -0.060 C 
ATOM     70  H   UNL     1     153.829 166.822 192.468  0.00  0.00    +0.023 HD
ATOM     71  H   UNL     1     152.760 167.928 193.345  0.00  0.00    +0.023 HD
ATOM     72  H   UNL     1     153.549 168.444 191.841  0.00  0.00    +0.023 HD
ENDBRANCH  67  69
BRANCH  67  73
ATOM     73  C   UNL     1     150.562 167.539 192.227  0.00  0.00    -0.046 C 
ATOM     74  H   UNL     1     150.214 168.484 191.806  0.00  0.00    +0.027 HD
ATOM     75  H   UNL     1     150.738 167.742 193.291  0.00  0.00    +0.027 HD
BRANCH  73  76
ATOM     76  C   UNL     1     149.389 166.546 192.110  0.00  0.00    -0.026 C 
ATOM     77  H   UNL     1     148.553 167.076 191.635  0.00  0.00    +0.029 HD
ATOM     78  H   UNL     1     149.670 165.729 191.437  0.00  0.00    +0.029 HD
BRANCH  76  83
ATOM     79  C   UNL     1     147.460 166.440 195.317  0.00  0.00    +0.059 C 
ATOM     80  C   UNL     1     148.530 165.886 196.258  0.00  0.00    -0.000 C 
ATOM     81  C   UNL     1     149.929 166.185 195.741  0.00  0.00    +0.063 C 
ATOM     82  C   UNL     1     150.073 165.600 194.339  0.00  0.00    -0.000 C 
ATOM     83  C   UNL     1     148.880 165.947 193.433  0.00  0.00    +0.061 C 
ATOM     84  O   UNL     1     148.015 166.884 194.074  0.00  0.00    -0.373 OA
ATOM     85  H   UNL     1     147.030 167.339 195.778  0.00  0.00    +0.059 HD
ATOM     86  H   UNL     1     148.398 166.308 197.265  0.00  0.00    +0.032 HD
ATOM     87  H   UNL     1     148.413 164.801 196.399  0.00  0.00    +0.032 HD
ATOM     88  H   UNL     1     150.080 167.271 195.715  0.00  0.00    +0.060 HD
ATOM     89  H   UNL     1     151.019 165.937 193.897  0.00  0.00    +0.032 HD
ATOM     90  H   UNL     1     150.175 164.507 194.392  0.00  0.00    +0.032 HD
ATOM     91  H   UNL     1     148.315 165.037 193.199  0.00  0.00    +0.060 HD
BRANCH  79  92
ATOM     92  C   UNL     1     146.312 165.456 195.107  0.00  0.00    -0.039 C 
ATOM     93  H   UNL     1     146.310 164.670 195.868  0.00  0.00    +0.025 HD
ATOM     94  H   UNL     1     145.350 165.973 195.152  0.00  0.00    +0.025 HD
ATOM     95  H   UNL     1     146.402 164.962 194.135  0.00  0.00    +0.025 HD
ENDBRANCH  79  92
BRANCH  81  96
ATOM     96  O   UNL     1     150.869 165.601 196.651  0.00  0.00    -0.380 OA
BRANCH  96  97
ATOM     97  C   UNL     1     151.231 164.267 196.309  0.00  0.00    +0.037 C 
ATOM     98  H   UNL     1     152.088 164.260 195.629  0.00  0.00    +0.052 HD
ATOM     99  H   UNL     1     151.512 163.746 197.228  0.00  0.00    +0.052 HD
ATOM    100  H   UNL     1     150.385 163.738 195.861  0.00  0.00    +0.052 HD
ENDBRANCH  96  97
ENDBRANCH  81  96
ENDBRANCH  76  83
ENDBRANCH  73  76
ENDBRANCH  67  73
ENDBRANCH  65  67
BRANCH  65 101
ATOM    101  O   UNL     1     150.753 167.660 189.439  0.00  0.00    -0.391 OA
ATOM    102  H   UNL     1     150.726 168.476 188.911  0.00  0.00    +0.210 HD
ENDBRANCH  65 101
ENDBRANCH  59  65
ENDBRANCH   1  59
BRANCH  19 103
ATOM    103  O   UNL     1     144.583 161.928 188.931  0.00  0.00    -0.385 OA
ATOM    104  H   UNL     1     143.949 162.059 189.661  0.00  0.00    +0.210 HD
ENDBRANCH  19 103
BRANCH  18 105
ATOM    105  O   UNL     1     144.355 159.486 187.820  0.00  0.00    -0.377 OA
BRANCH 105 106
ATOM    106  C   UNL     1     144.304 159.544 186.398  0.00  0.00    +0.037 C 
ATOM    107  H   UNL     1     143.455 160.151 186.068  0.00  0.00    +0.052 HD
ATOM    108  H   UNL     1     144.172 158.527 186.018  0.00  0.00    +0.052 HD
ATOM    109  H   UNL     1     145.239 159.949 185.997  0.00  0.00    +0.052 HD
ENDBRANCH 105 106
ENDBRANCH  18 105
BRANCH   9 110
ATOM    110  O   UNL     1     151.612 158.288 187.025  0.00  0.00    -0.377 OA
BRANCH 110 111
ATOM    111  C   UNL     1     151.197 158.553 185.693  0.00  0.00    +0.037 C 
ATOM    112  H   UNL     1     150.315 157.945 185.480  0.00  0.00    +0.052 HD
ATOM    113  H   UNL     1     151.987 158.283 184.987  0.00  0.00    +0.052 HD
ATOM    114  H   UNL     1     150.927 159.606 185.571  0.00  0.00    +0.052 HD
ENDBRANCH 110 111
ENDBRANCH   9 110
BRANCH   5 115
ATOM    115  O   UNL     1     152.052 162.098 187.152  0.00  0.00    -0.377 OA
BRANCH 115 116
ATOM    116  C   UNL     1     152.017 162.676 185.854  0.00  0.00    +0.037 C 
ATOM    117  H   UNL     1     150.998 162.653 185.455  0.00  0.00    +0.052 HD
ATOM    118  H   UNL     1     152.699 162.159 185.172  0.00  0.00    +0.052 HD
ATOM    119  H   UNL     1     152.331 163.718 185.939  0.00  0.00    +0.052 HD
ENDBRANCH 115 116
ENDBRANCH   5 115
BRANCH   3 120
ATOM    120  O   UNL     1     155.065 162.720 190.052  0.00  0.00    -0.379 OA
BRANCH 120 121
ATOM    121  C   UNL     1     156.105 161.856 189.607  0.00  0.00    +0.037 C 
ATOM    122  H   UNL     1     156.425 161.188 190.409  0.00  0.00    +0.052 HD
ATOM    123  H   UNL     1     155.787 161.280 188.734  0.00  0.00    +0.052 HD
ATOM    124  H   UNL     1     156.959 162.473 189.315  0.00  0.00    +0.052 HD
ENDBRANCH 120 121
ENDBRANCH   3 120
TORSDOF 23
ENDMDL
MODEL 9
REMARK VINA RESULT:      -5.2      3.045      4.259
REMARK  Name = Lobophorolide_conf2
REMARK  23 active torsions:
REMARK  status: ('A' for Active; 'I' for Inactive)
REMARK    1  A    between atoms: C_1  and  C_2
REMARK    2  A    between atoms: C_4  and  O_53
REMARK    3  A    between atoms: C_6  and  C_8
REMARK    4  A    between atoms: C_8  and  C_9
REMARK    5  A    between atoms: C_9  and  C_10
REMARK    6  A    between atoms: C_10  and  C_11
REMARK    7  A    between atoms: C_10  and  C_12
REMARK    8  A    between atoms: C_12  and  C_13
REMARK    9  A    between atoms: C_12  and  O_52
REMARK   10  A    between atoms: C_13  and  C_14
REMARK   11  A    between atoms: C_13  and  C_15
REMARK   12  A    between atoms: C_16  and  C_51
REMARK   13  A    between atoms: C_17  and  O_49
REMARK   14  A    between atoms: C_19  and  O_47
REMARK   15  A    between atoms: C_23  and  O_45
REMARK   16  A    between atoms: C_32  and  O_43
REMARK   17  A    between atoms: C_33  and  O_42
REMARK   18  A    between atoms: C_35  and  C_41
REMARK   19  A    between atoms: O_43  and  C_44
REMARK   20  A    between atoms: O_45  and  C_46
REMARK   21  A    between atoms: O_47  and  C_48
REMARK   22  A    between atoms: O_49  and  C_50
REMARK   23  A    between atoms: O_53  and  C_54
REMARK                            x       y       z     vdW  Elec       q    Type
REMARK                         _______ _______ _______ _____ _____    ______ ____
ROOT
ATOM      1  C   UNL     1     152.239 162.801 189.154  0.00  0.00    +0.113 C 
ATOM      2  C   UNL     1     153.419 162.586 188.159  0.00  0.00    +0.020 C 
ATOM      3  C   UNL     1     154.144 161.220 188.415  0.00  0.00    +0.067 C 
ATOM      4  C   UNL     1     154.633 160.580 187.091  0.00  0.00    +0.003 C 
ATOM      5  C   UNL     1     153.821 159.334 186.657  0.00  0.00    +0.094 C 
ATOM      6  C   UNL     1     154.100 158.055 187.443  0.00  0.00    +0.145 C 
ATOM      7  C   UNL     1     155.547 157.702 187.788  0.00  0.00    +0.083 C 
ATOM      8  O   UNL     1     154.643 158.231 188.764  0.00  0.00    -0.363 OA
ATOM      9  C   UNL     1     153.134 156.878 187.259  0.00  0.00    +0.094 C 
ATOM     10  C   UNL     1     152.945 156.063 188.555  0.00  0.00    +0.003 C 
ATOM     11  C   UNL     1     152.203 154.719 188.463  0.00  0.00    +0.065 C 
ATOM     12  C   UNL     1     153.103 153.574 187.968  0.00  0.00    -0.008 C 
ATOM     13  C   UNL     1     152.310 152.310 187.851  0.00  0.00    -0.083 C 
ATOM     14  C   UNL     1     150.975 152.356 187.765  0.00  0.00    -0.059 C 
ATOM     15  C   UNL     1     150.183 153.642 187.728  0.00  0.00    +0.080 C 
ATOM     16  O   UNL     1     151.018 154.817 187.658  0.00  0.00    -0.369 OA
ATOM     17  C   UNL     1     149.215 153.760 188.917  0.00  0.00    +0.006 C 
ATOM     18  C   UNL     1     148.021 154.663 188.560  0.00  0.00    +0.090 C 
ATOM     19  C   UNL     1     147.561 155.523 189.765  0.00  0.00    +0.100 C 
ATOM     20  C   UNL     1     148.468 156.681 190.084  0.00  0.00    -0.051 C 
ATOM     21  C   UNL     1     148.736 157.769 189.330  0.00  0.00    -0.052 C 
ATOM     22  C   UNL     1     149.674 158.771 189.840  0.00  0.00    -0.052 C 
ATOM     23  C   UNL     1     150.057 159.876 189.186  0.00  0.00    +0.023 C 
ATOM     24  C   UNL     1     151.016 160.828 189.780  0.00  0.00    +0.332 C 
ATOM     25  O   UNL     1     151.503 160.752 190.895  0.00  0.00    -0.246 OA
ATOM     26  O   UNL     1     151.258 161.785 188.848  0.00  0.00    -0.458 OA
ATOM     27  H   UNL     1     152.619 162.690 190.177  0.00  0.00    +0.074 HD
ATOM     28  H   UNL     1     152.966 162.529 187.161  0.00  0.00    +0.036 HD
ATOM     29  H   UNL     1     153.487 160.513 188.930  0.00  0.00    +0.060 HD
ATOM     30  H   UNL     1     155.698 160.340 187.153  0.00  0.00    +0.032 HD
ATOM     31  H   UNL     1     154.558 161.320 186.285  0.00  0.00    +0.032 HD
ATOM     32  H   UNL     1     154.088 159.105 185.618  0.00  0.00    +0.063 HD
ATOM     33  H   UNL     1     156.357 158.329 187.445  0.00  0.00    +0.059 HD
ATOM     34  H   UNL     1     155.823 156.655 187.867  0.00  0.00    +0.059 HD
ATOM     35  H   UNL     1     152.143 157.246 186.966  0.00  0.00    +0.063 HD
ATOM     36  H   UNL     1     152.395 156.708 189.255  0.00  0.00    +0.032 HD
ATOM     37  H   UNL     1     153.912 155.859 189.030  0.00  0.00    +0.032 HD
ATOM     38  H   UNL     1     151.901 154.484 189.492  0.00  0.00    +0.060 HD
ATOM     39  H   UNL     1     153.930 153.426 188.672  0.00  0.00    +0.033 HD
ATOM     40  H   UNL     1     153.534 153.780 186.985  0.00  0.00    +0.033 HD
ATOM     41  H   UNL     1     152.840 151.364 187.834  0.00  0.00    +0.057 HD
ATOM     42  H   UNL     1     150.413 151.430 187.683  0.00  0.00    +0.059 HD
ATOM     43  H   UNL     1     149.611 153.627 186.793  0.00  0.00    +0.064 HD
ATOM     44  H   UNL     1     148.845 152.767 189.203  0.00  0.00    +0.032 HD
ATOM     45  H   UNL     1     149.750 154.169 189.780  0.00  0.00    +0.032 HD
ATOM     46  H   UNL     1     148.269 155.313 187.712  0.00  0.00    +0.063 HD
ATOM     47  H   UNL     1     147.479 154.883 190.654  0.00  0.00    +0.066 HD
ATOM     48  H   UNL     1     148.958 156.586 191.051  0.00  0.00    +0.060 HD
ATOM     49  H   UNL     1     150.088 158.588 190.830  0.00  0.00    +0.062 HD
ATOM     50  H   UNL     1     149.702 160.132 188.196  0.00  0.00    +0.069 HD
ENDROOT
BRANCH  21  51
ATOM     51  C   UNL     1     148.115 158.022 187.978  0.00  0.00    -0.040 C 
ATOM     52  H   UNL     1     148.877 157.967 187.193  0.00  0.00    +0.028 HD
ATOM     53  H   UNL     1     147.645 159.009 187.939  0.00  0.00    +0.028 HD
ATOM     54  H   UNL     1     147.326 157.314 187.719  0.00  0.00    +0.028 HD
ENDBRANCH  21  51
BRANCH   2  55
ATOM     55  C   UNL     1     154.422 163.749 188.155  0.00  0.00    -0.057 C 
ATOM     56  H   UNL     1     155.069 163.710 189.038  0.00  0.00    +0.023 HD
ATOM     57  H   UNL     1     155.082 163.716 187.285  0.00  0.00    +0.023 HD
ATOM     58  H   UNL     1     153.907 164.717 188.148  0.00  0.00    +0.023 HD
ENDBRANCH   2  55
BRANCH   1  59
ATOM     59  C   UNL     1     151.545 164.195 189.067  0.00  0.00    +0.020 C 
ATOM     60  H   UNL     1     152.213 164.850 188.496  0.00  0.00    +0.036 HD
BRANCH  59  61
ATOM     61  C   UNL     1     150.229 164.149 188.287  0.00  0.00    -0.057 C 
ATOM     62  H   UNL     1     150.346 164.566 187.281  0.00  0.00    +0.023 HD
ATOM     63  H   UNL     1     149.878 163.123 188.155  0.00  0.00    +0.023 HD
ATOM     64  H   UNL     1     149.435 164.688 188.806  0.00  0.00    +0.023 HD
ENDBRANCH  59  61
BRANCH  59  65
ATOM     65  C   UNL     1     151.401 164.861 190.470  0.00  0.00    +0.064 C 
ATOM     66  H   UNL     1     150.396 165.300 190.509  0.00  0.00    +0.060 HD
BRANCH  65  67
ATOM     67  C   UNL     1     152.429 165.958 190.890  0.00  0.00    -0.017 C 
ATOM     68  H   UNL     1     153.402 165.491 191.050  0.00  0.00    +0.032 HD
BRANCH  67  69
ATOM     69  C   UNL     1     152.596 166.922 189.701  0.00  0.00    -0.060 C 
ATOM     70  H   UNL     1     153.626 167.279 189.616  0.00  0.00    +0.023 HD
ATOM     71  H   UNL     1     151.943 167.799 189.798  0.00  0.00    +0.023 HD
ATOM     72  H   UNL     1     152.349 166.420 188.758  0.00  0.00    +0.023 HD
ENDBRANCH  67  69
BRANCH  67  73
ATOM     73  C   UNL     1     152.039 166.785 192.144  0.00  0.00    -0.046 C 
ATOM     74  H   UNL     1     152.580 167.734 192.155  0.00  0.00    +0.027 HD
ATOM     75  H   UNL     1     152.339 166.269 193.064  0.00  0.00    +0.027 HD
BRANCH  73  76
ATOM     76  C   UNL     1     150.541 167.131 192.248  0.00  0.00    -0.026 C 
ATOM     77  H   UNL     1     150.464 168.205 192.464  0.00  0.00    +0.029 HD
ATOM     78  H   UNL     1     150.062 166.968 191.278  0.00  0.00    +0.029 HD
BRANCH  76  83
ATOM     79  C   UNL     1     147.975 166.661 194.934  0.00  0.00    +0.059 C 
ATOM     80  C   UNL     1     148.808 165.914 195.976  0.00  0.00    -0.000 C 
ATOM     81  C   UNL     1     150.292 166.207 195.811  0.00  0.00    +0.063 C 
ATOM     82  C   UNL     1     150.715 165.829 194.394  0.00  0.00    -0.000 C 
ATOM     83  C   UNL     1     149.749 166.373 193.329  0.00  0.00    +0.061 C 
ATOM     84  O   UNL     1     148.791 167.252 193.916  0.00  0.00    -0.373 OA
ATOM     85  H   UNL     1     147.479 167.504 195.432  0.00  0.00    +0.059 HD
ATOM     86  H   UNL     1     148.475 166.189 196.987  0.00  0.00    +0.032 HD
ATOM     87  H   UNL     1     148.638 164.828 195.919  0.00  0.00    +0.032 HD
ATOM     88  H   UNL     1     150.470 167.275 195.986  0.00  0.00    +0.060 HD
ATOM     89  H   UNL     1     151.740 166.174 194.215  0.00  0.00    +0.032 HD
ATOM     90  H   UNL     1     150.778 164.736 194.296  0.00  0.00    +0.032 HD
ATOM     91  H   UNL     1     149.225 165.541 192.844  0.00  0.00    +0.060 HD
BRANCH  79  92
ATOM     92  C   UNL     1     146.874 165.784 194.341  0.00  0.00    -0.039 C 
ATOM     93  H   UNL     1     146.629 164.945 194.998  0.00  0.00    +0.025 HD
ATOM     94  H   UNL     1     145.963 166.367 194.182  0.00  0.00    +0.025 HD
ATOM     95  H   UNL     1     147.194 165.360 193.384  0.00  0.00    +0.025 HD
ENDBRANCH  79  92
BRANCH  81  96
ATOM     96  O   UNL     1     151.003 165.443 196.792  0.00  0.00    -0.380 OA
BRANCH  96  97
ATOM     97  C   UNL     1     151.185 164.080 196.422  0.00  0.00    +0.037 C 
ATOM     98  H   UNL     1     152.051 163.651 196.935  0.00  0.00    +0.052 HD
ATOM     99  H   UNL     1     150.293 163.525 196.724  0.00  0.00    +0.052 HD
ATOM    100  H   UNL     1     151.298 163.983 195.339  0.00  0.00    +0.052 HD
ENDBRANCH  96  97
ENDBRANCH  81  96
ENDBRANCH  76  83
ENDBRANCH  73  76
ENDBRANCH  67  73
ENDBRANCH  65  67
BRANCH  65 101
ATOM    101  O   UNL     1     151.401 163.829 191.469  0.00  0.00    -0.391 OA
ATOM    102  H   UNL     1     152.118 163.210 191.249  0.00  0.00    +0.210 HD
ENDBRANCH  65 101
ENDBRANCH  59  65
ENDBRANCH   1  59
BRANCH  19 103
ATOM    103  O   UNL     1     146.244 156.031 189.540  0.00  0.00    -0.385 OA
ATOM    104  H   UNL     1     145.661 155.259 189.663  0.00  0.00    +0.210 HD
ENDBRANCH  19 103
BRANCH  18 105
ATOM    105  O   UNL     1     146.916 153.795 188.196  0.00  0.00    -0.377 OA
BRANCH 105 106
ATOM    106  C   UNL     1     146.861 152.617 188.995  0.00  0.00    +0.037 C 
ATOM    107  H   UNL     1     147.289 152.803 189.986  0.00  0.00    +0.052 HD
ATOM    108  H   UNL     1     147.454 151.842 188.502  0.00  0.00    +0.052 HD
ATOM    109  H   UNL     1     145.829 152.263 189.086  0.00  0.00    +0.052 HD
ENDBRANCH 105 106
ENDBRANCH  18 105
BRANCH   9 110
ATOM    110  O   UNL     1     153.682 156.047 186.226  0.00  0.00    -0.377 OA
BRANCH 110 111
ATOM    111  C   UNL     1     152.958 156.147 185.009  0.00  0.00    +0.037 C 
ATOM    112  H   UNL     1     153.501 155.594 184.238  0.00  0.00    +0.052 HD
ATOM    113  H   UNL     1     152.879 157.192 184.697  0.00  0.00    +0.052 HD
ATOM    114  H   UNL     1     151.962 155.709 185.110  0.00  0.00    +0.052 HD
ENDBRANCH 110 111
ENDBRANCH   9 110
BRANCH   5 115
ATOM    115  O   UNL     1     152.418 159.634 186.732  0.00  0.00    -0.377 OA
BRANCH 115 116
ATOM    116  C   UNL     1     151.899 160.191 185.531  0.00  0.00    +0.037 C 
ATOM    117  H   UNL     1     152.307 159.667 184.662  0.00  0.00    +0.052 HD
ATOM    118  H   UNL     1     152.120 161.260 185.464  0.00  0.00    +0.052 HD
ATOM    119  H   UNL     1     150.815 160.057 185.537  0.00  0.00    +0.052 HD
ENDBRANCH 115 116
ENDBRANCH   5 115
BRANCH   3 120
ATOM    120  O   UNL     1     155.323 161.440 189.218  0.00  0.00    -0.379 OA
BRANCH 120 121
ATOM    121  C   UNL     1     156.532 161.098 188.552  0.00  0.00    +0.037 C 
ATOM    122  H   UNL     1     157.394 161.530 189.065  0.00  0.00    +0.052 HD
ATOM    123  H   UNL     1     156.641 160.013 188.472  0.00  0.00    +0.052 HD
ATOM    124  H   UNL     1     156.493 161.512 187.541  0.00  0.00    +0.052 HD
ENDBRANCH 120 121
ENDBRANCH   3 120
TORSDOF 23
ENDMDL
MODEL 10
REMARK VINA RESULT:      -5.2     17.420     20.067
REMARK  Name = Lobophorolide_conf2
REMARK  23 active torsions:
REMARK  status: ('A' for Active; 'I' for Inactive)
REMARK    1  A    between atoms: C_1  and  C_2
REMARK    2  A    between atoms: C_4  and  O_53
REMARK    3  A    between atoms: C_6  and  C_8
REMARK    4  A    between atoms: C_8  and  C_9
REMARK    5  A    between atoms: C_9  and  C_10
REMARK    6  A    between atoms: C_10  and  C_11
REMARK    7  A    between atoms: C_10  and  C_12
REMARK    8  A    between atoms: C_12  and  C_13
REMARK    9  A    between atoms: C_12  and  O_52
REMARK   10  A    between atoms: C_13  and  C_14
REMARK   11  A    between atoms: C_13  and  C_15
REMARK   12  A    between atoms: C_16  and  C_51
REMARK   13  A    between atoms: C_17  and  O_49
REMARK   14  A    between atoms: C_19  and  O_47
REMARK   15  A    between atoms: C_23  and  O_45
REMARK   16  A    between atoms: C_32  and  O_43
REMARK   17  A    between atoms: C_33  and  O_42
REMARK   18  A    between atoms: C_35  and  C_41
REMARK   19  A    between atoms: O_43  and  C_44
REMARK   20  A    between atoms: O_45  and  C_46
REMARK   21  A    between atoms: O_47  and  C_48
REMARK   22  A    between atoms: O_49  and  C_50
REMARK   23  A    between atoms: O_53  and  C_54
REMARK                            x       y       z     vdW  Elec       q    Type
REMARK                         _______ _______ _______ _____ _____    ______ ____
ROOT
ATOM      1  C   UNL     1     130.143 161.779 198.367  0.00  0.00    +0.113 C 
ATOM      2  C   UNL     1     129.285 161.196 197.204  0.00  0.00    +0.020 C 
ATOM      3  C   UNL     1     130.185 160.682 196.029  0.00  0.00    +0.067 C 
ATOM      4  C   UNL     1     129.579 159.422 195.359  0.00  0.00    +0.003 C 
ATOM      5  C   UNL     1     130.350 158.114 195.668  0.00  0.00    +0.094 C 
ATOM      6  C   UNL     1     131.675 157.936 194.931  0.00  0.00    +0.145 C 
ATOM      7  C   UNL     1     131.752 158.307 193.451  0.00  0.00    +0.083 C 
ATOM      8  O   UNL     1     132.309 159.142 194.471  0.00  0.00    -0.363 OA
ATOM      9  C   UNL     1     132.612 156.817 195.406  0.00  0.00    +0.094 C 
ATOM     10  C   UNL     1     134.101 157.197 195.267  0.00  0.00    +0.003 C 
ATOM     11  C   UNL     1     135.151 156.093 195.471  0.00  0.00    +0.065 C 
ATOM     12  C   UNL     1     135.340 155.213 194.223  0.00  0.00    -0.008 C 
ATOM     13  C   UNL     1     136.334 154.130 194.503  0.00  0.00    -0.083 C 
ATOM     14  C   UNL     1     136.611 153.778 195.764  0.00  0.00    -0.059 C 
ATOM     15  C   UNL     1     135.933 154.385 196.971  0.00  0.00    +0.080 C 
ATOM     16  O   UNL     1     134.861 155.285 196.621  0.00  0.00    -0.369 OA
ATOM     17  C   UNL     1     136.931 155.098 197.898  0.00  0.00    +0.006 C 
ATOM     18  C   UNL     1     136.405 155.130 199.344  0.00  0.00    +0.090 C 
ATOM     19  C   UNL     1     136.772 156.450 200.068  0.00  0.00    +0.100 C 
ATOM     20  C   UNL     1     135.957 157.641 199.640  0.00  0.00    -0.051 C 
ATOM     21  C   UNL     1     134.632 157.851 199.797  0.00  0.00    -0.052 C 
ATOM     22  C   UNL     1     134.044 159.088 199.280  0.00  0.00    -0.052 C 
ATOM     23  C   UNL     1     132.744 159.409 199.335  0.00  0.00    +0.023 C 
ATOM     24  C   UNL     1     132.242 160.681 198.779  0.00  0.00    +0.332 C 
ATOM     25  O   UNL     1     132.921 161.563 198.282  0.00  0.00    -0.246 OA
ATOM     26  O   UNL     1     130.892 160.671 198.915  0.00  0.00    -0.458 OA
ATOM     27  H   UNL     1     130.813 162.545 197.958  0.00  0.00    +0.074 HD
ATOM     28  H   UNL     1     128.767 160.323 197.620  0.00  0.00    +0.036 HD
ATOM     29  H   UNL     1     131.196 160.449 196.376  0.00  0.00    +0.060 HD
ATOM     30  H   UNL     1     129.492 159.568 194.279  0.00  0.00    +0.032 HD
ATOM     31  H   UNL     1     128.549 159.290 195.710  0.00  0.00    +0.032 HD
ATOM     32  H   UNL     1     129.721 157.272 195.351  0.00  0.00    +0.063 HD
ATOM     33  H   UNL     1     130.871 158.651 192.930  0.00  0.00    +0.059 HD
ATOM     34  H   UNL     1     132.439 157.761 192.812  0.00  0.00    +0.059 HD
ATOM     35  H   UNL     1     132.435 156.603 196.468  0.00  0.00    +0.063 HD
ATOM     36  H   UNL     1     134.293 157.990 196.004  0.00  0.00    +0.032 HD
ATOM     37  H   UNL     1     134.297 157.645 194.286  0.00  0.00    +0.032 HD
ATOM     38  H   UNL     1     136.096 156.622 195.652  0.00  0.00    +0.060 HD
ATOM     39  H   UNL     1     135.694 155.830 193.388  0.00  0.00    +0.033 HD
ATOM     40  H   UNL     1     134.411 154.730 193.910  0.00  0.00    +0.033 HD
ATOM     41  H   UNL     1     136.817 153.638 193.665  0.00  0.00    +0.057 HD
ATOM     42  H   UNL     1     137.336 152.990 195.952  0.00  0.00    +0.059 HD
ATOM     43  H   UNL     1     135.462 153.555 197.512  0.00  0.00    +0.064 HD
ATOM     44  H   UNL     1     137.900 154.583 197.877  0.00  0.00    +0.032 HD
ATOM     45  H   UNL     1     137.097 156.118 197.536  0.00  0.00    +0.032 HD
ATOM     46  H   UNL     1     135.318 154.985 199.361  0.00  0.00    +0.063 HD
ATOM     47  H   UNL     1     137.835 156.670 199.898  0.00  0.00    +0.066 HD
ATOM     48  H   UNL     1     136.547 158.403 199.134  0.00  0.00    +0.060 HD
ATOM     49  H   UNL     1     134.731 159.793 198.813  0.00  0.00    +0.062 HD
ATOM     50  H   UNL     1     131.993 158.765 199.773  0.00  0.00    +0.069 HD
ENDROOT
BRANCH  21  51
ATOM     51  C   UNL     1     133.708 156.877 200.487  0.00  0.00    -0.040 C 
ATOM     52  H   UNL     1     134.248 156.324 201.262  0.00  0.00    +0.028 HD
ATOM     53  H   UNL     1     133.289 156.161 199.775  0.00  0.00    +0.028 HD
ATOM     54  H   UNL     1     132.848 157.352 200.963  0.00  0.00    +0.028 HD
ENDBRANCH  21  51
BRANCH   2  55
ATOM     55  C   UNL     1     128.219 162.177 196.693  0.00  0.00    -0.057 C 
ATOM     56  H   UNL     1     128.613 162.793 195.878  0.00  0.00    +0.023 HD
ATOM     57  H   UNL     1     127.344 161.658 196.295  0.00  0.00    +0.023 HD
ATOM     58  H   UNL     1     127.877 162.844 197.493  0.00  0.00    +0.023 HD
ENDBRANCH   2  55
BRANCH   1  59
ATOM     59  C   UNL     1     129.331 162.442 199.522  0.00  0.00    +0.020 C 
ATOM     60  H   UNL     1     128.343 162.690 199.117  0.00  0.00    +0.036 HD
BRANCH  59  61
ATOM     61  C   UNL     1     129.081 161.485 200.690  0.00  0.00    -0.057 C 
ATOM     62  H   UNL     1     129.745 160.616 200.643  0.00  0.00    +0.023 HD
ATOM     63  H   UNL     1     129.275 161.968 201.651  0.00  0.00    +0.023 HD
ATOM     64  H   UNL     1     128.045 161.142 200.714  0.00  0.00    +0.023 HD
ENDBRANCH  59  61
BRANCH  59  65
ATOM     65  C   UNL     1     129.957 163.800 199.967  0.00  0.00    +0.064 C 
ATOM     66  H   UNL     1     130.031 163.769 201.062  0.00  0.00    +0.060 HD
BRANCH  65  67
ATOM     67  C   UNL     1     129.238 165.125 199.564  0.00  0.00    -0.017 C 
ATOM     68  H   UNL     1     129.745 165.556 198.699  0.00  0.00    +0.032 HD
BRANCH  67  69
ATOM     69  C   UNL     1     127.814 164.764 199.103  0.00  0.00    -0.060 C 
ATOM     70  H   UNL     1     127.126 165.604 199.230  0.00  0.00    +0.023 HD
ATOM     71  H   UNL     1     127.412 163.912 199.666  0.00  0.00    +0.023 HD
ATOM     72  H   UNL     1     127.807 164.499 198.039  0.00  0.00    +0.023 HD
ENDBRANCH  67  69
BRANCH  67  73
ATOM     73  C   UNL     1     129.137 166.191 200.688  0.00  0.00    -0.046 C 
ATOM     74  H   UNL     1     128.100 166.511 200.815  0.00  0.00    +0.027 HD
ATOM     75  H   UNL     1     129.691 167.099 200.419  0.00  0.00    +0.027 HD
BRANCH  73  76
ATOM     76  C   UNL     1     129.623 165.717 202.071  0.00  0.00    -0.026 C 
ATOM     77  H   UNL     1     128.811 165.900 202.788  0.00  0.00    +0.029 HD
ATOM     78  H   UNL     1     129.788 164.635 202.048  0.00  0.00    +0.029 HD
BRANCH  76  83
ATOM     79  C   UNL     1     132.505 168.108 202.063  0.00  0.00    +0.059 C 
ATOM     80  C   UNL     1     133.630 167.176 202.513  0.00  0.00    -0.000 C 
ATOM     81  C   UNL     1     133.310 165.725 202.187  0.00  0.00    +0.063 C 
ATOM     82  C   UNL     1     131.988 165.351 202.849  0.00  0.00    -0.000 C 
ATOM     83  C   UNL     1     130.892 166.403 202.610  0.00  0.00    +0.061 C 
ATOM     84  O   UNL     1     131.332 167.385 201.672  0.00  0.00    -0.373 OA
ATOM     85  H   UNL     1     132.835 168.633 201.157  0.00  0.00    +0.059 HD
ATOM     86  H   UNL     1     134.575 167.475 202.036  0.00  0.00    +0.032 HD
ATOM     87  H   UNL     1     133.825 167.278 203.591  0.00  0.00    +0.032 HD
ATOM     88  H   UNL     1     133.234 165.609 201.098  0.00  0.00    +0.060 HD
ATOM     89  H   UNL     1     131.671 164.360 202.500  0.00  0.00    +0.032 HD
ATOM     90  H   UNL     1     132.129 165.222 203.931  0.00  0.00    +0.032 HD
ATOM     91  H   UNL     1     130.637 166.895 203.555  0.00  0.00    +0.060 HD
BRANCH  79  92
ATOM     92  C   UNL     1     132.192 169.178 203.107  0.00  0.00    -0.039 C 
ATOM     93  H   UNL     1     133.073 169.782 203.343  0.00  0.00    +0.025 HD
ATOM     94  H   UNL     1     131.408 169.849 202.745  0.00  0.00    +0.025 HD
ATOM     95  H   UNL     1     131.858 168.717 204.042  0.00  0.00    +0.025 HD
ENDBRANCH  79  92
BRANCH  81  96
ATOM     96  O   UNL     1     134.388 164.917 202.672  0.00  0.00    -0.380 OA
BRANCH  96  97
ATOM     97  C   UNL     1     134.789 163.903 201.756  0.00  0.00    +0.037 C 
ATOM     98  H   UNL     1     134.884 164.310 200.745  0.00  0.00    +0.052 HD
ATOM     99  H   UNL     1     135.766 163.528 202.072  0.00  0.00    +0.052 HD
ATOM    100  H   UNL     1     134.082 163.069 201.766  0.00  0.00    +0.052 HD
ENDBRANCH  96  97
ENDBRANCH  81  96
ENDBRANCH  76  83
ENDBRANCH  73  76
ENDBRANCH  67  73
ENDBRANCH  65  67
BRANCH  65 101
ATOM    101  O   UNL     1     131.313 163.855 199.497  0.00  0.00    -0.391 OA
ATOM    102  H   UNL     1     131.578 162.949 199.266  0.00  0.00    +0.210 HD
ENDBRANCH  65 101
ENDBRANCH  59  65
ENDBRANCH   1  59
BRANCH  19 103
ATOM    103  O   UNL     1     136.637 156.297 201.482  0.00  0.00    -0.385 OA
ATOM    104  H   UNL     1     136.410 157.189 201.803  0.00  0.00    +0.210 HD
ENDBRANCH  19 103
BRANCH  18 105
ATOM    105  O   UNL     1     137.047 154.045 200.062  0.00  0.00    -0.377 OA
BRANCH 105 106
ATOM    106  C   UNL     1     136.136 153.007 200.414  0.00  0.00    +0.037 C 
ATOM    107  H   UNL     1     135.128 153.411 200.554  0.00  0.00    +0.052 HD
ATOM    108  H   UNL     1     136.468 152.568 201.359  0.00  0.00    +0.052 HD
ATOM    109  H   UNL     1     136.131 152.226 199.648  0.00  0.00    +0.052 HD
ENDBRANCH 105 106
ENDBRANCH  18 105
BRANCH   9 110
ATOM    110  O   UNL     1     132.317 155.662 194.608  0.00  0.00    -0.377 OA
BRANCH 110 111
ATOM    111  C   UNL     1     131.620 154.663 195.337  0.00  0.00    +0.037 C 
ATOM    112  H   UNL     1     131.314 153.879 194.641  0.00  0.00    +0.052 HD
ATOM    113  H   UNL     1     130.724 155.086 195.802  0.00  0.00    +0.052 HD
ATOM    114  H   UNL     1     132.263 154.216 196.100  0.00  0.00    +0.052 HD
ENDBRANCH 110 111
ENDBRANCH   9 110
BRANCH   5 115
ATOM    115  O   UNL     1     130.583 158.026 197.083  0.00  0.00    -0.377 OA
BRANCH 115 116
ATOM    116  C   UNL     1     129.525 157.390 197.788  0.00  0.00    +0.037 C 
ATOM    117  H   UNL     1     129.220 157.997 198.645  0.00  0.00    +0.052 HD
ATOM    118  H   UNL     1     129.816 156.389 198.119  0.00  0.00    +0.052 HD
ATOM    119  H   UNL     1     128.673 157.299 197.109  0.00  0.00    +0.052 HD
ENDBRANCH 115 116
ENDBRANCH   5 115
BRANCH   3 120
ATOM    120  O   UNL     1     130.261 161.690 194.999  0.00  0.00    -0.379 OA
BRANCH 120 121
ATOM    121  C   UNL     1     131.468 162.441 195.031  0.00  0.00    +0.037 C 
ATOM    122  H   UNL     1     131.676 162.886 194.056  0.00  0.00    +0.052 HD
ATOM    123  H   UNL     1     131.426 163.216 195.802  0.00  0.00    +0.052 HD
ATOM    124  H   UNL     1     132.287 161.760 195.278  0.00  0.00    +0.052 HD
ENDBRANCH 120 121
ENDBRANCH   3 120
TORSDOF 23
ENDMDL
