MODEL 1
REMARK VINA RESULT:      -6.4      0.000      0.000
REMARK  Name = Lobophorolide_conf1
REMARK  23 active torsions:
REMARK  status: ('A' for Active; 'I' for Inactive)
REMARK    1  A    between atoms: C_1  and  C_2
REMARK    2  A    between atoms: C_4  and  O_53
REMARK    3  A    between atoms: C_6  and  C_8
REMARK    4  A    between atoms: C_8  and  C_9
REMARK    5  A    between atoms: C_9  and  C_10
REMARK    6  A    between atoms: C_10  and  C_11
REMARK    7  A    between atoms: C_10  and  C_12
REMARK    8  A    between atoms: C_12  and  C_13
REMARK    9  A    between atoms: C_12  and  O_52
REMARK   10  A    between atoms: C_13  and  C_14
REMARK   11  A    between atoms: C_13  and  C_15
REMARK   12  A    between atoms: C_16  and  C_51
REMARK   13  A    between atoms: C_17  and  O_49
REMARK   14  A    between atoms: C_19  and  O_47
REMARK   15  A    between atoms: C_23  and  O_45
REMARK   16  A    between atoms: C_32  and  O_43
REMARK   17  A    between atoms: C_33  and  O_42
REMARK   18  A    between atoms: C_35  and  C_41
REMARK   19  A    between atoms: O_43  and  C_44
REMARK   20  A    between atoms: O_45  and  C_46
REMARK   21  A    between atoms: O_47  and  C_48
REMARK   22  A    between atoms: O_49  and  C_50
REMARK   23  A    between atoms: O_53  and  C_54
REMARK                            x       y       z     vdW  Elec       q    Type
REMARK                         _______ _______ _______ _____ _____    ______ ____
ROOT
ATOM      1  C   UNL     1     138.867 176.399 195.195  0.00  0.00    +0.113 C 
ATOM      2  C   UNL     1     139.278 177.885 195.442  0.00  0.00    +0.020 C 
ATOM      3  C   UNL     1     138.119 178.688 196.147  0.00  0.00    +0.067 C 
ATOM      4  C   UNL     1     138.556 180.130 196.477  0.00  0.00    +0.003 C 
ATOM      5  C   UNL     1     137.714 180.831 197.552  0.00  0.00    +0.094 C 
ATOM      6  C   UNL     1     137.894 180.357 199.000  0.00  0.00    +0.145 C 
ATOM      7  C   UNL     1     136.815 180.862 199.951  0.00  0.00    +0.083 C 
ATOM      8  O   UNL     1     136.815 179.516 199.466  0.00  0.00    -0.363 OA
ATOM      9  C   UNL     1     139.269 179.898 199.504  0.00  0.00    +0.094 C 
ATOM     10  C   UNL     1     139.499 179.967 201.027  0.00  0.00    +0.003 C 
ATOM     11  C   UNL     1     138.779 178.955 201.931  0.00  0.00    +0.065 C 
ATOM     12  C   UNL     1     139.345 179.091 203.365  0.00  0.00    -0.008 C 
ATOM     13  C   UNL     1     139.039 177.909 204.227  0.00  0.00    -0.083 C 
ATOM     14  C   UNL     1     138.561 176.778 203.694  0.00  0.00    -0.059 C 
ATOM     15  C   UNL     1     138.286 176.609 202.222  0.00  0.00    +0.080 C 
ATOM     16  O   UNL     1     138.969 177.623 201.444  0.00  0.00    -0.369 OA
ATOM     17  C   UNL     1     136.781 176.602 201.904  0.00  0.00    +0.006 C 
ATOM     18  C   UNL     1     135.952 175.470 202.550  0.00  0.00    +0.090 C 
ATOM     19  C   UNL     1     136.352 174.022 202.137  0.00  0.00    +0.100 C 
ATOM     20  C   UNL     1     136.665 173.890 200.674  0.00  0.00    -0.051 C 
ATOM     21  C   UNL     1     135.809 173.643 199.663  0.00  0.00    -0.052 C 
ATOM     22  C   UNL     1     136.258 173.751 198.284  0.00  0.00    -0.052 C 
ATOM     23  C   UNL     1     136.985 174.793 197.862  0.00  0.00    +0.023 C 
ATOM     24  C   UNL     1     137.407 174.955 196.460  0.00  0.00    +0.332 C 
ATOM     25  O   UNL     1     136.968 174.345 195.503  0.00  0.00    -0.246 OA
ATOM     26  O   UNL     1     138.350 175.924 196.463  0.00  0.00    -0.458 OA
ATOM     27  H   UNL     1     138.033 176.401 194.481  0.00  0.00    +0.074 HD
ATOM     28  H   UNL     1     140.110 177.901 196.155  0.00  0.00    +0.036 HD
ATOM     29  H   UNL     1     137.848 178.178 197.081  0.00  0.00    +0.060 HD
ATOM     30  H   UNL     1     138.484 180.731 195.561  0.00  0.00    +0.032 HD
ATOM     31  H   UNL     1     139.612 180.149 196.747  0.00  0.00    +0.032 HD
ATOM     32  H   UNL     1     136.655 180.699 197.291  0.00  0.00    +0.063 HD
ATOM     33  H   UNL     1     137.034 181.045 200.992  0.00  0.00    +0.059 HD
ATOM     34  H   UNL     1     136.056 181.534 199.567  0.00  0.00    +0.059 HD
ATOM     35  H   UNL     1     139.431 178.876 199.139  0.00  0.00    +0.063 HD
ATOM     36  H   UNL     1     140.574 179.827 201.198  0.00  0.00    +0.032 HD
ATOM     37  H   UNL     1     139.296 180.986 201.382  0.00  0.00    +0.032 HD
ATOM     38  H   UNL     1     137.709 179.174 201.952  0.00  0.00    +0.060 HD
ATOM     39  H   UNL     1     140.438 179.184 203.345  0.00  0.00    +0.033 HD
ATOM     40  H   UNL     1     138.950 180.004 203.828  0.00  0.00    +0.033 HD
ATOM     41  H   UNL     1     139.250 177.965 205.291  0.00  0.00    +0.057 HD
ATOM     42  H   UNL     1     138.381 175.915 204.330  0.00  0.00    +0.059 HD
ATOM     43  H   UNL     1     138.738 175.667 201.897  0.00  0.00    +0.064 HD
ATOM     44  H   UNL     1     136.330 177.553 202.218  0.00  0.00    +0.032 HD
ATOM     45  H   UNL     1     136.636 176.607 200.815  0.00  0.00    +0.032 HD
ATOM     46  H   UNL     1     136.051 175.565 203.639  0.00  0.00    +0.063 HD
ATOM     47  H   UNL     1     135.565 173.319 202.419  0.00  0.00    +0.066 HD
ATOM     48  H   UNL     1     137.712 174.092 200.435  0.00  0.00    +0.060 HD
ATOM     49  H   UNL     1     135.940 172.978 197.590  0.00  0.00    +0.062 HD
ATOM     50  H   UNL     1     137.280 175.592 198.533  0.00  0.00    +0.069 HD
ENDROOT
BRANCH  21  51
ATOM     51  C   UNL     1     134.346 173.336 199.816  0.00  0.00    -0.040 C 
ATOM     52  H   UNL     1     133.983 172.770 198.954  0.00  0.00    +0.028 HD
ATOM     53  H   UNL     1     133.725 174.228 199.907  0.00  0.00    +0.028 HD
ATOM     54  H   UNL     1     134.177 172.737 200.716  0.00  0.00    +0.028 HD
ENDBRANCH  21  51
BRANCH   2  55
ATOM     55  C   UNL     1     139.723 178.578 194.148  0.00  0.00    -0.057 C 
ATOM     56  H   UNL     1     138.976 178.467 193.355  0.00  0.00    +0.023 HD
ATOM     57  H   UNL     1     140.668 178.175 193.791  0.00  0.00    +0.023 HD
ATOM     58  H   UNL     1     139.906 179.645 194.288  0.00  0.00    +0.023 HD
ENDBRANCH   2  55
BRANCH   1  59
ATOM     59  C   UNL     1     139.945 175.380 194.691  0.00  0.00    +0.020 C 
ATOM     60  H   UNL     1     140.057 174.646 195.497  0.00  0.00    +0.036 HD
BRANCH  59  61
ATOM     61  C   UNL     1     139.443 174.546 193.505  0.00  0.00    -0.057 C 
ATOM     62  H   UNL     1     140.274 174.229 192.869  0.00  0.00    +0.023 HD
ATOM     63  H   UNL     1     138.880 173.663 193.801  0.00  0.00    +0.023 HD
ATOM     64  H   UNL     1     138.773 175.150 192.885  0.00  0.00    +0.023 HD
ENDBRANCH  59  61
BRANCH  59  65
ATOM     65  C   UNL     1     141.377 175.929 194.423  0.00  0.00    +0.064 C 
ATOM     66  H   UNL     1     141.335 177.025 194.491  0.00  0.00    +0.060 HD
BRANCH  65  67
ATOM     67  C   UNL     1     141.970 175.596 193.026  0.00  0.00    -0.017 C 
ATOM     68  H   UNL     1     141.259 174.992 192.459  0.00  0.00    +0.032 HD
BRANCH  67  69
ATOM     69  C   UNL     1     142.236 176.882 192.229  0.00  0.00    -0.060 C 
ATOM     70  H   UNL     1     142.787 176.660 191.306  0.00  0.00    +0.023 HD
ATOM     71  H   UNL     1     142.833 177.589 192.815  0.00  0.00    +0.023 HD
ATOM     72  H   UNL     1     141.315 177.384 191.929  0.00  0.00    +0.023 HD
ENDBRANCH  67  69
BRANCH  67  73
ATOM     73  C   UNL     1     143.289 174.784 193.094  0.00  0.00    -0.046 C 
ATOM     74  H   UNL     1     144.138 175.477 193.021  0.00  0.00    +0.027 HD
ATOM     75  H   UNL     1     143.377 174.292 194.070  0.00  0.00    +0.027 HD
BRANCH  73  76
ATOM     76  C   UNL     1     143.425 173.763 191.959  0.00  0.00    -0.026 C 
ATOM     77  H   UNL     1     142.890 172.838 192.198  0.00  0.00    +0.029 HD
ATOM     78  H   UNL     1     142.950 174.152 191.049  0.00  0.00    +0.029 HD
BRANCH  76  83
ATOM     79  C   UNL     1     146.211 171.665 190.720  0.00  0.00    +0.059 C 
ATOM     80  C   UNL     1     147.386 172.517 191.212  0.00  0.00    -0.000 C 
ATOM     81  C   UNL     1     147.149 172.948 192.656  0.00  0.00    +0.063 C 
ATOM     82  C   UNL     1     145.851 173.762 192.762  0.00  0.00    -0.000 C 
ATOM     83  C   UNL     1     144.884 173.440 191.621  0.00  0.00    +0.061 C 
ATOM     84  O   UNL     1     144.963 172.042 191.319  0.00  0.00    -0.373 OA
ATOM     85  H   UNL     1     146.384 170.628 191.027  0.00  0.00    +0.059 HD
ATOM     86  H   UNL     1     148.329 171.967 191.118  0.00  0.00    +0.032 HD
ATOM     87  H   UNL     1     147.512 173.415 190.590  0.00  0.00    +0.032 HD
ATOM     88  H   UNL     1     147.075 172.047 193.280  0.00  0.00    +0.060 HD
ATOM     89  H   UNL     1     145.385 173.526 193.731  0.00  0.00    +0.032 HD
ATOM     90  H   UNL     1     146.054 174.842 192.782  0.00  0.00    +0.032 HD
ATOM     91  H   UNL     1     145.157 174.010 190.722  0.00  0.00    +0.060 HD
BRANCH  79  92
ATOM     92  C   UNL     1     146.077 171.692 189.204  0.00  0.00    -0.039 C 
ATOM     93  H   UNL     1     146.460 170.769 188.758  0.00  0.00    +0.025 HD
ATOM     94  H   UNL     1     145.026 171.812 188.923  0.00  0.00    +0.025 HD
ATOM     95  H   UNL     1     146.616 172.541 188.771  0.00  0.00    +0.025 HD
ENDBRANCH  79  92
BRANCH  81  96
ATOM     96  O   UNL     1     148.278 173.722 193.081  0.00  0.00    -0.380 OA
BRANCH  96  97
ATOM     97  C   UNL     1     149.340 172.922 193.587  0.00  0.00    +0.037 C 
ATOM     98  H   UNL     1     149.672 173.359 194.532  0.00  0.00    +0.052 HD
ATOM     99  H   UNL     1     150.184 172.917 192.891  0.00  0.00    +0.052 HD
ATOM    100  H   UNL     1     149.003 171.899 193.781  0.00  0.00    +0.052 HD
ENDBRANCH  96  97
ENDBRANCH  81  96
ENDBRANCH  76  83
ENDBRANCH  73  76
ENDBRANCH  67  73
ENDBRANCH  65  67
BRANCH  65 101
ATOM    101  O   UNL     1     142.272 175.510 195.445  0.00  0.00    -0.391 OA
ATOM    102  H   UNL     1     142.048 175.997 196.256  0.00  0.00    +0.210 HD
ENDBRANCH  65 101
ENDBRANCH  59  65
ENDBRANCH   1  59
BRANCH  19 103
ATOM    103  O   UNL     1     137.528 173.634 202.852  0.00  0.00    -0.385 OA
ATOM    104  H   UNL     1     137.575 174.188 203.650  0.00  0.00    +0.210 HD
ENDBRANCH  19 103
BRANCH  18 105
ATOM    105  O   UNL     1     134.579 175.721 202.191  0.00  0.00    -0.377 OA
BRANCH 105 106
ATOM    106  C   UNL     1     134.419 176.843 201.332  0.00  0.00    +0.037 C 
ATOM    107  H   UNL     1     133.392 177.218 201.389  0.00  0.00    +0.052 HD
ATOM    108  H   UNL     1     134.669 176.590 200.298  0.00  0.00    +0.052 HD
ATOM    109  H   UNL     1     135.096 177.634 201.668  0.00  0.00    +0.052 HD
ENDBRANCH 105 106
ENDBRANCH  18 105
BRANCH   9 110
ATOM    110  O   UNL     1     140.265 180.770 198.928  0.00  0.00    -0.377 OA
BRANCH 110 111
ATOM    111  C   UNL     1     140.716 181.792 199.812  0.00  0.00    +0.037 C 
ATOM    112  H   UNL     1     140.414 182.760 199.399  0.00  0.00    +0.052 HD
ATOM    113  H   UNL     1     141.807 181.781 199.889  0.00  0.00    +0.052 HD
ATOM    114  H   UNL     1     140.263 181.688 200.800  0.00  0.00    +0.052 HD
ENDBRANCH 110 111
ENDBRANCH   9 110
BRANCH   5 115
ATOM    115  O   UNL     1     137.992 182.245 197.533  0.00  0.00    -0.377 OA
BRANCH 115 116
ATOM    116  C   UNL     1     138.703 182.662 196.377  0.00  0.00    +0.037 C 
ATOM    117  H   UNL     1     139.746 182.816 196.659  0.00  0.00    +0.052 HD
ATOM    118  H   UNL     1     138.663 181.906 195.593  0.00  0.00    +0.052 HD
ATOM    119  H   UNL     1     138.303 183.611 196.006  0.00  0.00    +0.052 HD
ENDBRANCH 115 116
ENDBRANCH   5 115
BRANCH   3 120
ATOM    120  O   UNL     1     137.000 178.762 195.246  0.00  0.00    -0.379 OA
BRANCH 120 121
ATOM    121  C   UNL     1     135.782 178.299 195.812  0.00  0.00    +0.037 C 
ATOM    122  H   UNL     1     135.311 179.136 196.340  0.00  0.00    +0.052 HD
ATOM    123  H   UNL     1     135.962 177.494 196.533  0.00  0.00    +0.052 HD
ATOM    124  H   UNL     1     135.096 177.956 195.030  0.00  0.00    +0.052 HD
ENDBRANCH 120 121
ENDBRANCH   3 120
TORSDOF 23
ENDMDL
MODEL 2
REMARK VINA RESULT:      -6.4      0.684      1.493
REMARK  Name = Lobophorolide_conf1
REMARK  23 active torsions:
REMARK  status: ('A' for Active; 'I' for Inactive)
REMARK    1  A    between atoms: C_1  and  C_2
REMARK    2  A    between atoms: C_4  and  O_53
REMARK    3  A    between atoms: C_6  and  C_8
REMARK    4  A    between atoms: C_8  and  C_9
REMARK    5  A    between atoms: C_9  and  C_10
REMARK    6  A    between atoms: C_10  and  C_11
REMARK    7  A    between atoms: C_10  and  C_12
REMARK    8  A    between atoms: C_12  and  C_13
REMARK    9  A    between atoms: C_12  and  O_52
REMARK   10  A    between atoms: C_13  and  C_14
REMARK   11  A    between atoms: C_13  and  C_15
REMARK   12  A    between atoms: C_16  and  C_51
REMARK   13  A    between atoms: C_17  and  O_49
REMARK   14  A    between atoms: C_19  and  O_47
REMARK   15  A    between atoms: C_23  and  O_45
REMARK   16  A    between atoms: C_32  and  O_43
REMARK   17  A    between atoms: C_33  and  O_42
REMARK   18  A    between atoms: C_35  and  C_41
REMARK   19  A    between atoms: O_43  and  C_44
REMARK   20  A    between atoms: O_45  and  C_46
REMARK   21  A    between atoms: O_47  and  C_48
REMARK   22  A    between atoms: O_49  and  C_50
REMARK   23  A    between atoms: O_53  and  C_54
REMARK                            x       y       z     vdW  Elec       q    Type
REMARK                         _______ _______ _______ _____ _____    ______ ____
ROOT
ATOM      1  C   UNL     1     138.896 176.377 195.185  0.00  0.00    +0.113 C 
ATOM      2  C   UNL     1     139.305 177.864 195.435  0.00  0.00    +0.020 C 
ATOM      3  C   UNL     1     138.142 178.665 196.136  0.00  0.00    +0.067 C 
ATOM      4  C   UNL     1     138.576 180.106 196.469  0.00  0.00    +0.003 C 
ATOM      5  C   UNL     1     137.728 180.805 197.540  0.00  0.00    +0.094 C 
ATOM      6  C   UNL     1     137.901 180.331 198.989  0.00  0.00    +0.145 C 
ATOM      7  C   UNL     1     136.818 180.834 199.936  0.00  0.00    +0.083 C 
ATOM      8  O   UNL     1     136.821 179.488 199.449  0.00  0.00    -0.363 OA
ATOM      9  C   UNL     1     139.274 179.872 199.499  0.00  0.00    +0.094 C 
ATOM     10  C   UNL     1     139.497 179.939 201.024  0.00  0.00    +0.003 C 
ATOM     11  C   UNL     1     138.773 178.926 201.923  0.00  0.00    +0.065 C 
ATOM     12  C   UNL     1     139.332 179.061 203.360  0.00  0.00    -0.008 C 
ATOM     13  C   UNL     1     139.023 177.877 204.219  0.00  0.00    -0.083 C 
ATOM     14  C   UNL     1     138.548 176.747 203.683  0.00  0.00    -0.059 C 
ATOM     15  C   UNL     1     138.280 176.579 202.209  0.00  0.00    +0.080 C 
ATOM     16  O   UNL     1     138.967 177.595 201.435  0.00  0.00    -0.369 OA
ATOM     17  C   UNL     1     136.777 176.572 201.884  0.00  0.00    +0.006 C 
ATOM     18  C   UNL     1     135.946 175.438 202.525  0.00  0.00    +0.090 C 
ATOM     19  C   UNL     1     136.349 173.991 202.112  0.00  0.00    +0.100 C 
ATOM     20  C   UNL     1     136.670 173.860 200.651  0.00  0.00    -0.051 C 
ATOM     21  C   UNL     1     135.819 173.614 199.635  0.00  0.00    -0.052 C 
ATOM     22  C   UNL     1     136.274 173.724 198.258  0.00  0.00    -0.052 C 
ATOM     23  C   UNL     1     137.002 174.767 197.840  0.00  0.00    +0.023 C 
ATOM     24  C   UNL     1     137.431 174.930 196.441  0.00  0.00    +0.332 C 
ATOM     25  O   UNL     1     136.997 174.321 195.481  0.00  0.00    -0.246 OA
ATOM     26  O   UNL     1     138.374 175.901 196.450  0.00  0.00    -0.458 OA
ATOM     27  H   UNL     1     138.066 176.379 194.467  0.00  0.00    +0.074 HD
ATOM     28  H   UNL     1     140.133 177.880 196.152  0.00  0.00    +0.036 HD
ATOM     29  H   UNL     1     137.866 178.153 197.068  0.00  0.00    +0.060 HD
ATOM     30  H   UNL     1     138.508 180.708 195.554  0.00  0.00    +0.032 HD
ATOM     31  H   UNL     1     139.631 180.127 196.744  0.00  0.00    +0.032 HD
ATOM     32  H   UNL     1     136.671 180.673 197.275  0.00  0.00    +0.063 HD
ATOM     33  H   UNL     1     137.031 181.016 200.978  0.00  0.00    +0.059 HD
ATOM     34  H   UNL     1     136.060 181.505 199.548  0.00  0.00    +0.059 HD
ATOM     35  H   UNL     1     139.439 178.850 199.134  0.00  0.00    +0.063 HD
ATOM     36  H   UNL     1     140.571 179.801 201.200  0.00  0.00    +0.032 HD
ATOM     37  H   UNL     1     139.291 180.958 201.379  0.00  0.00    +0.032 HD
ATOM     38  H   UNL     1     137.703 179.144 201.939  0.00  0.00    +0.060 HD
ATOM     39  H   UNL     1     140.425 179.155 203.345  0.00  0.00    +0.033 HD
ATOM     40  H   UNL     1     138.934 179.973 203.822  0.00  0.00    +0.033 HD
ATOM     41  H   UNL     1     139.229 177.932 205.284  0.00  0.00    +0.057 HD
ATOM     42  H   UNL     1     138.366 175.883 204.317  0.00  0.00    +0.059 HD
ATOM     43  H   UNL     1     138.735 175.638 201.885  0.00  0.00    +0.064 HD
ATOM     44  H   UNL     1     136.324 177.522 202.196  0.00  0.00    +0.032 HD
ATOM     45  H   UNL     1     136.638 176.577 200.794  0.00  0.00    +0.032 HD
ATOM     46  H   UNL     1     136.039 175.532 203.614  0.00  0.00    +0.063 HD
ATOM     47  H   UNL     1     135.561 173.287 202.389  0.00  0.00    +0.066 HD
ATOM     48  H   UNL     1     137.717 174.064 200.417  0.00  0.00    +0.060 HD
ATOM     49  H   UNL     1     135.960 172.951 197.562  0.00  0.00    +0.062 HD
ATOM     50  H   UNL     1     137.293 175.566 198.514  0.00  0.00    +0.069 HD
ENDROOT
BRANCH  21  51
ATOM     51  C   UNL     1     134.355 173.305 199.781  0.00  0.00    -0.040 C 
ATOM     52  H   UNL     1     133.799 174.211 200.040  0.00  0.00    +0.028 HD
ATOM     53  H   UNL     1     134.145 172.561 200.550  0.00  0.00    +0.028 HD
ATOM     54  H   UNL     1     133.955 172.914 198.841  0.00  0.00    +0.028 HD
ENDBRANCH  21  51
BRANCH   2  55
ATOM     55  C   UNL     1     139.756 178.558 194.145  0.00  0.00    -0.057 C 
ATOM     56  H   UNL     1     139.919 177.836 193.336  0.00  0.00    +0.023 HD
ATOM     57  H   UNL     1     140.675 179.116 194.299  0.00  0.00    +0.023 HD
ATOM     58  H   UNL     1     139.033 179.296 193.793  0.00  0.00    +0.023 HD
ENDBRANCH   2  55
BRANCH   1  59
ATOM     59  C   UNL     1     139.977 175.359 194.685  0.00  0.00    +0.020 C 
ATOM     60  H   UNL     1     140.096 174.633 195.497  0.00  0.00    +0.036 HD
BRANCH  59  61
ATOM     61  C   UNL     1     139.475 174.513 193.508  0.00  0.00    -0.057 C 
ATOM     62  H   UNL     1     138.468 174.816 193.210  0.00  0.00    +0.023 HD
ATOM     63  H   UNL     1     140.121 174.557 192.634  0.00  0.00    +0.023 HD
ATOM     64  H   UNL     1     139.422 173.461 193.805  0.00  0.00    +0.023 HD
ENDBRANCH  59  61
BRANCH  59  65
ATOM     65  C   UNL     1     141.405 175.914 194.407  0.00  0.00    +0.064 C 
ATOM     66  H   UNL     1     141.356 177.011 194.454  0.00  0.00    +0.060 HD
BRANCH  65  67
ATOM     67  C   UNL     1     142.001 175.559 193.016  0.00  0.00    -0.017 C 
ATOM     68  H   UNL     1     141.317 174.897 192.481  0.00  0.00    +0.032 HD
BRANCH  67  69
ATOM     69  C   UNL     1     142.190 176.825 192.167  0.00  0.00    -0.060 C 
ATOM     70  H   UNL     1     141.633 177.668 192.596  0.00  0.00    +0.023 HD
ATOM     71  H   UNL     1     141.830 176.668 191.145  0.00  0.00    +0.023 HD
ATOM     72  H   UNL     1     143.235 177.137 192.113  0.00  0.00    +0.023 HD
ENDBRANCH  67  69
BRANCH  67  73
ATOM     73  C   UNL     1     143.362 174.821 193.098  0.00  0.00    -0.046 C 
ATOM     74  H   UNL     1     144.128 175.524 193.450  0.00  0.00    +0.027 HD
ATOM     75  H   UNL     1     143.311 174.023 193.848  0.00  0.00    +0.027 HD
BRANCH  73  76
ATOM     76  C   UNL     1     143.827 174.265 191.747  0.00  0.00    -0.026 C 
ATOM     77  H   UNL     1     142.990 173.820 191.198  0.00  0.00    +0.029 HD
ATOM     78  H   UNL     1     144.194 175.084 191.114  0.00  0.00    +0.029 HD
BRANCH  76  83
ATOM     79  C   UNL     1     147.340 173.105 191.755  0.00  0.00    +0.059 C 
ATOM     80  C   UNL     1     147.091 171.593 191.778  0.00  0.00    -0.000 C 
ATOM     81  C   UNL     1     146.018 171.226 190.757  0.00  0.00    +0.063 C 
ATOM     82  C   UNL     1     144.709 171.963 191.075  0.00  0.00    -0.000 C 
ATOM     83  C   UNL     1     144.956 173.239 191.883  0.00  0.00    +0.061 C 
ATOM     84  O   UNL     1     146.164 173.856 191.426  0.00  0.00    -0.373 OA
ATOM     85  H   UNL     1     148.063 173.323 190.961  0.00  0.00    +0.059 HD
ATOM     86  H   UNL     1     148.020 171.044 191.583  0.00  0.00    +0.032 HD
ATOM     87  H   UNL     1     146.762 171.260 192.773  0.00  0.00    +0.032 HD
ATOM     88  H   UNL     1     146.375 171.515 189.759  0.00  0.00    +0.060 HD
ATOM     89  H   UNL     1     144.222 172.209 190.118  0.00  0.00    +0.032 HD
ATOM     90  H   UNL     1     144.002 171.315 191.612  0.00  0.00    +0.032 HD
ATOM     91  H   UNL     1     145.066 172.995 192.949  0.00  0.00    +0.060 HD
BRANCH  79  92
ATOM     92  C   UNL     1     147.917 173.611 193.070  0.00  0.00    -0.039 C 
ATOM     93  H   UNL     1     147.123 173.848 193.785  0.00  0.00    +0.025 HD
ATOM     94  H   UNL     1     148.573 172.852 193.508  0.00  0.00    +0.025 HD
ATOM     95  H   UNL     1     148.531 174.505 192.918  0.00  0.00    +0.025 HD
ENDBRANCH  79  92
BRANCH  81  96
ATOM     96  O   UNL     1     145.832 169.806 190.796  0.00  0.00    -0.380 OA
BRANCH  96  97
ATOM     97  C   UNL     1     144.514 169.409 190.439  0.00  0.00    +0.037 C 
ATOM     98  H   UNL     1     143.822 170.178 190.791  0.00  0.00    +0.052 HD
ATOM     99  H   UNL     1     144.253 168.461 190.919  0.00  0.00    +0.052 HD
ATOM    100  H   UNL     1     144.411 169.324 189.353  0.00  0.00    +0.052 HD
ENDBRANCH  96  97
ENDBRANCH  81  96
ENDBRANCH  76  83
ENDBRANCH  73  76
ENDBRANCH  67  73
ENDBRANCH  65  67
BRANCH  65 101
ATOM    101  O   UNL     1     142.303 175.521 195.436  0.00  0.00    -0.391 OA
ATOM    102  H   UNL     1     142.985 176.209 195.518  0.00  0.00    +0.210 HD
ENDBRANCH  65 101
ENDBRANCH  59  65
ENDBRANCH   1  59
BRANCH  19 103
ATOM    103  O   UNL     1     137.522 173.603 202.832  0.00  0.00    -0.385 OA
ATOM    104  H   UNL     1     138.204 173.386 202.174  0.00  0.00    +0.210 HD
ENDBRANCH  19 103
BRANCH  18 105
ATOM    105  O   UNL     1     134.575 175.688 202.159  0.00  0.00    -0.377 OA
BRANCH 105 106
ATOM    106  C   UNL     1     134.418 176.811 201.299  0.00  0.00    +0.037 C 
ATOM    107  H   UNL     1     134.440 176.490 200.253  0.00  0.00    +0.052 HD
ATOM    108  H   UNL     1     135.195 177.558 201.479  0.00  0.00    +0.052 HD
ATOM    109  H   UNL     1     133.445 177.267 201.502  0.00  0.00    +0.052 HD
ENDBRANCH 105 106
ENDBRANCH  18 105
BRANCH   9 110
ATOM    110  O   UNL     1     140.272 180.746 198.929  0.00  0.00    -0.377 OA
BRANCH 110 111
ATOM    111  C   UNL     1     140.719 181.765 199.817  0.00  0.00    +0.037 C 
ATOM    112  H   UNL     1     140.505 181.445 200.842  0.00  0.00    +0.052 HD
ATOM    113  H   UNL     1     140.180 182.699 199.634  0.00  0.00    +0.052 HD
ATOM    114  H   UNL     1     141.796 181.923 199.729  0.00  0.00    +0.052 HD
ENDBRANCH 110 111
ENDBRANCH   9 110
BRANCH   5 115
ATOM    115  O   UNL     1     138.005 182.220 197.525  0.00  0.00    -0.377 OA
BRANCH 115 116
ATOM    116  C   UNL     1     138.725 182.639 196.375  0.00  0.00    +0.037 C 
ATOM    117  H   UNL     1     138.925 181.758 195.762  0.00  0.00    +0.052 HD
ATOM    118  H   UNL     1     138.149 183.351 195.784  0.00  0.00    +0.052 HD
ATOM    119  H   UNL     1     139.683 183.081 196.666  0.00  0.00    +0.052 HD
ENDBRANCH 115 116
ENDBRANCH   5 115
BRANCH   3 120
ATOM    120  O   UNL     1     137.027 178.738 195.229  0.00  0.00    -0.379 OA
BRANCH 120 121
ATOM    121  C   UNL     1     135.807 178.273 195.789  0.00  0.00    +0.037 C 
ATOM    122  H   UNL     1     135.941 177.223 196.074  0.00  0.00    +0.052 HD
ATOM    123  H   UNL     1     134.991 178.332 195.062  0.00  0.00    +0.052 HD
ATOM    124  H   UNL     1     135.551 178.843 196.689  0.00  0.00    +0.052 HD
ENDBRANCH 120 121
ENDBRANCH   3 120
TORSDOF 23
ENDMDL
MODEL 3
REMARK VINA RESULT:      -6.1     12.014     16.225
REMARK  Name = Lobophorolide_conf1
REMARK  23 active torsions:
REMARK  status: ('A' for Active; 'I' for Inactive)
REMARK    1  A    between atoms: C_1  and  C_2
REMARK    2  A    between atoms: C_4  and  O_53
REMARK    3  A    between atoms: C_6  and  C_8
REMARK    4  A    between atoms: C_8  and  C_9
REMARK    5  A    between atoms: C_9  and  C_10
REMARK    6  A    between atoms: C_10  and  C_11
REMARK    7  A    between atoms: C_10  and  C_12
REMARK    8  A    between atoms: C_12  and  C_13
REMARK    9  A    between atoms: C_12  and  O_52
REMARK   10  A    between atoms: C_13  and  C_14
REMARK   11  A    between atoms: C_13  and  C_15
REMARK   12  A    between atoms: C_16  and  C_51
REMARK   13  A    between atoms: C_17  and  O_49
REMARK   14  A    between atoms: C_19  and  O_47
REMARK   15  A    between atoms: C_23  and  O_45
REMARK   16  A    between atoms: C_32  and  O_43
REMARK   17  A    between atoms: C_33  and  O_42
REMARK   18  A    between atoms: C_35  and  C_41
REMARK   19  A    between atoms: O_43  and  C_44
REMARK   20  A    between atoms: O_45  and  C_46
REMARK   21  A    between atoms: O_47  and  C_48
REMARK   22  A    between atoms: O_49  and  C_50
REMARK   23  A    between atoms: O_53  and  C_54
REMARK                            x       y       z     vdW  Elec       q    Type
REMARK                         _______ _______ _______ _____ _____    ______ ____
ROOT
ATOM      1  C   UNL     1     131.663 163.576 199.403  0.00  0.00    +0.113 C 
ATOM      2  C   UNL     1     132.480 164.901 199.528  0.00  0.00    +0.020 C 
ATOM      3  C   UNL     1     131.531 166.160 199.521  0.00  0.00    +0.067 C 
ATOM      4  C   UNL     1     132.327 167.463 199.738  0.00  0.00    +0.003 C 
ATOM      5  C   UNL     1     131.490 168.659 200.211  0.00  0.00    +0.094 C 
ATOM      6  C   UNL     1     130.985 168.630 201.659  0.00  0.00    +0.145 C 
ATOM      7  C   UNL     1     129.914 169.672 201.959  0.00  0.00    +0.083 C 
ATOM      8  O   UNL     1     129.584 168.292 201.770  0.00  0.00    -0.363 OA
ATOM      9  C   UNL     1     131.839 168.004 202.770  0.00  0.00    +0.094 C 
ATOM     10  C   UNL     1     131.551 168.479 204.208  0.00  0.00    +0.003 C 
ATOM     11  C   UNL     1     130.251 168.027 204.890  0.00  0.00    +0.065 C 
ATOM     12  C   UNL     1     130.307 168.447 206.379  0.00  0.00    -0.008 C 
ATOM     13  C   UNL     1     129.319 167.717 207.229  0.00  0.00    -0.083 C 
ATOM     14  C   UNL     1     128.669 166.645 206.758  0.00  0.00    -0.059 C 
ATOM     15  C   UNL     1     128.866 166.106 205.364  0.00  0.00    +0.080 C 
ATOM     16  O   UNL     1     130.092 166.609 204.778  0.00  0.00    -0.369 OA
ATOM     17  C   UNL     1     127.665 166.399 204.448  0.00  0.00    +0.006 C 
ATOM     18  C   UNL     1     126.314 165.786 204.877  0.00  0.00    +0.090 C 
ATOM     19  C   UNL     1     126.270 164.230 204.939  0.00  0.00    +0.100 C 
ATOM     20  C   UNL     1     126.987 163.571 203.796  0.00  0.00    -0.051 C 
ATOM     21  C   UNL     1     126.495 163.258 202.581  0.00  0.00    -0.052 C 
ATOM     22  C   UNL     1     127.389 162.809 201.525  0.00  0.00    -0.052 C 
ATOM     23  C   UNL     1     128.543 163.437 201.269  0.00  0.00    +0.023 C 
ATOM     24  C   UNL     1     129.441 163.037 200.172  0.00  0.00    +0.332 C 
ATOM     25  O   UNL     1     129.160 162.299 199.246  0.00  0.00    -0.246 OA
ATOM     26  O   UNL     1     130.613 163.674 200.398  0.00  0.00    -0.458 OA
ATOM     27  H   UNL     1     131.181 163.576 198.417  0.00  0.00    +0.074 HD
ATOM     28  H   UNL     1     132.968 164.917 200.509  0.00  0.00    +0.036 HD
ATOM     29  H   UNL     1     130.794 166.056 200.328  0.00  0.00    +0.060 HD
ATOM     30  H   UNL     1     132.793 167.746 198.786  0.00  0.00    +0.032 HD
ATOM     31  H   UNL     1     133.159 167.285 200.420  0.00  0.00    +0.032 HD
ATOM     32  H   UNL     1     130.612 168.738 199.557  0.00  0.00    +0.063 HD
ATOM     33  H   UNL     1     129.819 170.105 202.943  0.00  0.00    +0.059 HD
ATOM     34  H   UNL     1     129.631 170.366 201.176  0.00  0.00    +0.059 HD
ATOM     35  H   UNL     1     131.729 166.914 202.699  0.00  0.00    +0.063 HD
ATOM     36  H   UNL     1     132.374 168.121 204.839  0.00  0.00    +0.032 HD
ATOM     37  H   UNL     1     131.628 169.574 204.254  0.00  0.00    +0.032 HD
ATOM     38  H   UNL     1     129.396 168.516 204.418  0.00  0.00    +0.060 HD
ATOM     39  H   UNL     1     131.296 168.237 206.805  0.00  0.00    +0.033 HD
ATOM     40  H   UNL     1     130.143 169.529 206.458  0.00  0.00    +0.033 HD
ATOM     41  H   UNL     1     129.163 168.043 208.253  0.00  0.00    +0.057 HD
ATOM     42  H   UNL     1     127.983 166.103 207.403  0.00  0.00    +0.059 HD
ATOM     43  H   UNL     1     129.023 165.025 205.436  0.00  0.00    +0.064 HD
ATOM     44  H   UNL     1     127.516 167.484 204.365  0.00  0.00    +0.032 HD
ATOM     45  H   UNL     1     127.909 166.103 203.419  0.00  0.00    +0.032 HD
ATOM     46  H   UNL     1     126.067 166.185 205.869  0.00  0.00    +0.063 HD
ATOM     47  H   UNL     1     125.235 163.884 204.985  0.00  0.00    +0.066 HD
ATOM     48  H   UNL     1     128.049 163.405 203.988  0.00  0.00    +0.060 HD
ATOM     49  H   UNL     1     127.064 161.972 200.914  0.00  0.00    +0.062 HD
ATOM     50  H   UNL     1     128.865 164.297 201.846  0.00  0.00    +0.069 HD
ENDROOT
BRANCH  21  51
ATOM     51  C   UNL     1     125.062 163.412 202.155  0.00  0.00    -0.040 C 
ATOM     52  H   UNL     1     124.921 164.360 201.629  0.00  0.00    +0.028 HD
ATOM     53  H   UNL     1     124.359 163.393 202.990  0.00  0.00    +0.028 HD
ATOM     54  H   UNL     1     124.778 162.599 201.481  0.00  0.00    +0.028 HD
ENDBRANCH  21  51
BRANCH   2  55
ATOM     55  C   UNL     1     133.557 165.013 198.441  0.00  0.00    -0.057 C 
ATOM     56  H   UNL     1     133.763 166.058 198.187  0.00  0.00    +0.023 HD
ATOM     57  H   UNL     1     133.259 164.490 197.537  0.00  0.00    +0.023 HD
ATOM     58  H   UNL     1     134.500 164.549 198.738  0.00  0.00    +0.023 HD
ENDBRANCH   2  55
BRANCH   1  59
ATOM     59  C   UNL     1     132.395 162.204 199.594  0.00  0.00    +0.020 C 
ATOM     60  H   UNL     1     131.682 161.560 200.120  0.00  0.00    +0.036 HD
BRANCH  59  61
ATOM     61  C   UNL     1     132.625 161.481 198.261  0.00  0.00    -0.057 C 
ATOM     62  H   UNL     1     131.958 160.620 198.161  0.00  0.00    +0.023 HD
ATOM     63  H   UNL     1     132.494 162.120 197.390  0.00  0.00    +0.023 HD
ATOM     64  H   UNL     1     133.651 161.101 198.218  0.00  0.00    +0.023 HD
ENDBRANCH  59  61
BRANCH  59  65
ATOM     65  C   UNL     1     133.686 162.198 200.464  0.00  0.00    +0.064 C 
ATOM     66  H   UNL     1     134.123 163.205 200.425  0.00  0.00    +0.060 HD
BRANCH  65  67
ATOM     67  C   UNL     1     134.799 161.216 200.004  0.00  0.00    -0.017 C 
ATOM     68  H   UNL     1     134.644 160.950 198.955  0.00  0.00    +0.032 HD
BRANCH  67  69
ATOM     69  C   UNL     1     136.183 161.869 200.125  0.00  0.00    -0.060 C 
ATOM     70  H   UNL     1     136.705 161.511 201.021  0.00  0.00    +0.023 HD
ATOM     71  H   UNL     1     136.097 162.958 200.198  0.00  0.00    +0.023 HD
ATOM     72  H   UNL     1     136.828 161.637 199.275  0.00  0.00    +0.023 HD
ENDBRANCH  67  69
BRANCH  67  73
ATOM     73  C   UNL     1     134.817 159.887 200.802  0.00  0.00    -0.046 C 
ATOM     74  H   UNL     1     135.858 159.566 200.936  0.00  0.00    +0.027 HD
ATOM     75  H   UNL     1     134.413 160.048 201.808  0.00  0.00    +0.027 HD
BRANCH  73  76
ATOM     76  C   UNL     1     134.069 158.751 200.094  0.00  0.00    -0.026 C 
ATOM     77  H   UNL     1     133.096 158.570 200.565  0.00  0.00    +0.029 HD
ATOM     78  H   UNL     1     133.847 159.040 199.059  0.00  0.00    +0.029 HD
BRANCH  76  83
ATOM     79  C   UNL     1     135.784 155.804 201.530  0.00  0.00    +0.059 C 
ATOM     80  C   UNL     1     136.508 155.314 200.271  0.00  0.00    -0.000 C 
ATOM     81  C   UNL     1     137.170 156.490 199.559  0.00  0.00    +0.063 C 
ATOM     82  C   UNL     1     136.116 157.534 199.166  0.00  0.00    -0.000 C 
ATOM     83  C   UNL     1     134.870 157.447 200.052  0.00  0.00    +0.061 C 
ATOM     84  O   UNL     1     135.269 157.134 201.391  0.00  0.00    -0.373 OA
ATOM     85  H   UNL     1     136.511 155.852 202.349  0.00  0.00    +0.059 HD
ATOM     86  H   UNL     1     137.246 154.544 200.523  0.00  0.00    +0.032 HD
ATOM     87  H   UNL     1     135.809 154.826 199.576  0.00  0.00    +0.032 HD
ATOM     88  H   UNL     1     137.904 156.940 200.241  0.00  0.00    +0.060 HD
ATOM     89  H   UNL     1     136.578 158.530 199.261  0.00  0.00    +0.032 HD
ATOM     90  H   UNL     1     135.827 157.438 198.111  0.00  0.00    +0.032 HD
ATOM     91  H   UNL     1     134.204 156.651 199.688  0.00  0.00    +0.060 HD
BRANCH  79  92
ATOM     92  C   UNL     1     134.663 154.863 201.950  0.00  0.00    -0.039 C 
ATOM     93  H   UNL     1     134.218 155.178 202.899  0.00  0.00    +0.025 HD
ATOM     94  H   UNL     1     133.883 154.844 201.182  0.00  0.00    +0.025 HD
ATOM     95  H   UNL     1     135.024 153.835 202.055  0.00  0.00    +0.025 HD
ENDBRANCH  79  92
BRANCH  81  96
ATOM     96  O   UNL     1     137.851 155.986 198.404  0.00  0.00    -0.380 OA
BRANCH  96  97
ATOM     97  C   UNL     1     136.966 155.644 197.343  0.00  0.00    +0.037 C 
ATOM     98  H   UNL     1     136.476 156.559 197.003  0.00  0.00    +0.052 HD
ATOM     99  H   UNL     1     136.198 154.947 197.692  0.00  0.00    +0.052 HD
ATOM    100  H   UNL     1     137.514 155.213 196.500  0.00  0.00    +0.052 HD
ENDBRANCH  96  97
ENDBRANCH  81  96
ENDBRANCH  76  83
ENDBRANCH  73  76
ENDBRANCH  67  73
ENDBRANCH  65  67
BRANCH  65 101
ATOM    101  O   UNL     1     133.366 161.967 201.830  0.00  0.00    -0.391 OA
ATOM    102  H   UNL     1     134.055 161.394 202.206  0.00  0.00    +0.210 HD
ENDBRANCH  65 101
ENDBRANCH  59  65
ENDBRANCH   1  59
BRANCH  19 103
ATOM    103  O   UNL     1     126.907 163.787 206.141  0.00  0.00    -0.385 OA
ATOM    104  H   UNL     1     126.596 164.364 206.860  0.00  0.00    +0.210 HD
ENDBRANCH  19 103
BRANCH  18 105
ATOM    105  O   UNL     1     125.336 166.266 203.933  0.00  0.00    -0.377 OA
BRANCH 105 106
ATOM    106  C   UNL     1     125.898 167.070 202.903  0.00  0.00    +0.037 C 
ATOM    107  H   UNL     1     125.209 167.128 202.054  0.00  0.00    +0.052 HD
ATOM    108  H   UNL     1     126.864 166.678 202.576  0.00  0.00    +0.052 HD
ATOM    109  H   UNL     1     126.048 168.080 203.296  0.00  0.00    +0.052 HD
ENDBRANCH 105 106
ENDBRANCH  18 105
BRANCH   9 110
ATOM    110  O   UNL     1     133.217 168.358 202.521  0.00  0.00    -0.377 OA
BRANCH 110 111
ATOM    111  C   UNL     1     134.109 167.248 202.542  0.00  0.00    +0.037 C 
ATOM    112  H   UNL     1     133.513 166.329 202.533  0.00  0.00    +0.052 HD
ATOM    113  H   UNL     1     134.710 167.254 203.456  0.00  0.00    +0.052 HD
ATOM    114  H   UNL     1     134.754 167.242 201.662  0.00  0.00    +0.052 HD
ENDBRANCH 110 111
ENDBRANCH   9 110
BRANCH   5 115
ATOM    115  O   UNL     1     132.256 169.871 200.057  0.00  0.00    -0.377 OA
BRANCH 115 116
ATOM    116  C   UNL     1     132.369 170.296 198.706  0.00  0.00    +0.037 C 
ATOM    117  H   UNL     1     132.567 169.417 198.091  0.00  0.00    +0.052 HD
ATOM    118  H   UNL     1     131.446 170.763 198.359  0.00  0.00    +0.052 HD
ATOM    119  H   UNL     1     133.206 170.992 198.595  0.00  0.00    +0.052 HD
ENDBRANCH 115 116
ENDBRANCH   5 115
BRANCH   3 120
ATOM    120  O   UNL     1     130.892 166.243 198.235  0.00  0.00    -0.379 OA
BRANCH 120 121
ATOM    121  C   UNL     1     129.475 166.320 198.308  0.00  0.00    +0.037 C 
ATOM    122  H   UNL     1     129.061 165.401 197.876  0.00  0.00    +0.052 HD
ATOM    123  H   UNL     1     129.096 167.172 197.735  0.00  0.00    +0.052 HD
ATOM    124  H   UNL     1     129.144 166.389 199.350  0.00  0.00    +0.052 HD
ENDBRANCH 120 121
ENDBRANCH   3 120
TORSDOF 23
ENDMDL
MODEL 4
REMARK VINA RESULT:      -6.0     11.021     16.709
REMARK  Name = Lobophorolide_conf1
REMARK  23 active torsions:
REMARK  status: ('A' for Active; 'I' for Inactive)
REMARK    1  A    between atoms: C_1  and  C_2
REMARK    2  A    between atoms: C_4  and  O_53
REMARK    3  A    between atoms: C_6  and  C_8
REMARK    4  A    between atoms: C_8  and  C_9
REMARK    5  A    between atoms: C_9  and  C_10
REMARK    6  A    between atoms: C_10  and  C_11
REMARK    7  A    between atoms: C_10  and  C_12
REMARK    8  A    between atoms: C_12  and  C_13
REMARK    9  A    between atoms: C_12  and  O_52
REMARK   10  A    between atoms: C_13  and  C_14
REMARK   11  A    between atoms: C_13  and  C_15
REMARK   12  A    between atoms: C_16  and  C_51
REMARK   13  A    between atoms: C_17  and  O_49
REMARK   14  A    between atoms: C_19  and  O_47
REMARK   15  A    between atoms: C_23  and  O_45
REMARK   16  A    between atoms: C_32  and  O_43
REMARK   17  A    between atoms: C_33  and  O_42
REMARK   18  A    between atoms: C_35  and  C_41
REMARK   19  A    between atoms: O_43  and  C_44
REMARK   20  A    between atoms: O_45  and  C_46
REMARK   21  A    between atoms: O_47  and  C_48
REMARK   22  A    between atoms: O_49  and  C_50
REMARK   23  A    between atoms: O_53  and  C_54
REMARK                            x       y       z     vdW  Elec       q    Type
REMARK                         _______ _______ _______ _____ _____    ______ ____
ROOT
ATOM      1  C   UNL     1     149.471 165.062 192.670  0.00  0.00    +0.113 C 
ATOM      2  C   UNL     1     150.043 164.409 191.372  0.00  0.00    +0.020 C 
ATOM      3  C   UNL     1     148.975 163.473 190.685  0.00  0.00    +0.067 C 
ATOM      4  C   UNL     1     149.504 162.902 189.354  0.00  0.00    +0.003 C 
ATOM      5  C   UNL     1     148.422 162.383 188.398  0.00  0.00    +0.094 C 
ATOM      6  C   UNL     1     147.550 163.431 187.696  0.00  0.00    +0.145 C 
ATOM      7  C   UNL     1     146.311 162.851 187.024  0.00  0.00    +0.083 C 
ATOM      8  O   UNL     1     146.229 163.553 188.268  0.00  0.00    -0.363 OA
ATOM      9  C   UNL     1     148.144 164.782 187.272  0.00  0.00    +0.094 C 
ATOM     10  C   UNL     1     147.415 165.526 186.135  0.00  0.00    +0.003 C 
ATOM     11  C   UNL     1     146.049 166.165 186.426  0.00  0.00    +0.065 C 
ATOM     12  C   UNL     1     145.642 167.027 185.206  0.00  0.00    -0.008 C 
ATOM     13  C   UNL     1     144.564 168.013 185.521  0.00  0.00    -0.083 C 
ATOM     14  C   UNL     1     144.213 168.262 186.788  0.00  0.00    -0.059 C 
ATOM     15  C   UNL     1     144.850 167.581 187.972  0.00  0.00    +0.080 C 
ATOM     16  O   UNL     1     146.114 166.972 187.606  0.00  0.00    -0.369 OA
ATOM     17  C   UNL     1     143.917 166.548 188.626  0.00  0.00    +0.006 C 
ATOM     18  C   UNL     1     142.592 167.093 189.203  0.00  0.00    +0.090 C 
ATOM     19  C   UNL     1     142.737 168.135 190.353  0.00  0.00    +0.100 C 
ATOM     20  C   UNL     1     143.817 167.786 191.335  0.00  0.00    -0.051 C 
ATOM     21  C   UNL     1     143.720 167.007 192.430  0.00  0.00    -0.052 C 
ATOM     22  C   UNL     1     144.918 166.612 193.153  0.00  0.00    -0.052 C 
ATOM     23  C   UNL     1     146.007 166.162 192.516  0.00  0.00    +0.023 C 
ATOM     24  C   UNL     1     147.213 165.705 193.226  0.00  0.00    +0.332 C 
ATOM     25  O   UNL     1     147.294 165.445 194.413  0.00  0.00    -0.246 OA
ATOM     26  O   UNL     1     148.186 165.617 192.290  0.00  0.00    -0.458 OA
ATOM     27  H   UNL     1     149.280 164.255 193.389  0.00  0.00    +0.074 HD
ATOM     28  H   UNL     1     150.238 165.202 190.641  0.00  0.00    +0.036 HD
ATOM     29  H   UNL     1     148.066 164.056 190.484  0.00  0.00    +0.060 HD
ATOM     30  H   UNL     1     150.172 162.060 189.581  0.00  0.00    +0.032 HD
ATOM     31  H   UNL     1     150.136 163.637 188.854  0.00  0.00    +0.032 HD
ATOM     32  H   UNL     1     147.753 161.726 188.969  0.00  0.00    +0.063 HD
ATOM     33  H   UNL     1     145.896 163.304 186.136  0.00  0.00    +0.059 HD
ATOM     34  H   UNL     1     146.163 161.777 187.043  0.00  0.00    +0.059 HD
ATOM     35  H   UNL     1     148.200 165.415 188.167  0.00  0.00    +0.063 HD
ATOM     36  H   UNL     1     148.075 166.338 185.805  0.00  0.00    +0.032 HD
ATOM     37  H   UNL     1     147.333 164.867 185.260  0.00  0.00    +0.032 HD
ATOM     38  H   UNL     1     145.299 165.385 186.572  0.00  0.00    +0.060 HD
ATOM     39  H   UNL     1     146.497 167.610 184.840  0.00  0.00    +0.033 HD
ATOM     40  H   UNL     1     145.322 166.371 184.387  0.00  0.00    +0.033 HD
ATOM     41  H   UNL     1     144.095 168.557 184.707  0.00  0.00    +0.057 HD
ATOM     42  H   UNL     1     143.454 169.011 187.001  0.00  0.00    +0.059 HD
ATOM     43  H   UNL     1     145.122 168.350 188.703  0.00  0.00    +0.064 HD
ATOM     44  H   UNL     1     143.656 165.769 187.897  0.00  0.00    +0.032 HD
ATOM     45  H   UNL     1     144.468 165.992 189.396  0.00  0.00    +0.032 HD
ATOM     46  H   UNL     1     142.035 167.555 188.378  0.00  0.00    +0.063 HD
ATOM     47  H   UNL     1     141.782 168.260 190.870  0.00  0.00    +0.066 HD
ATOM     48  H   UNL     1     144.799 168.174 191.055  0.00  0.00    +0.060 HD
ATOM     49  H   UNL     1     144.885 166.647 194.239  0.00  0.00    +0.062 HD
ATOM     50  H   UNL     1     146.044 166.086 191.435  0.00  0.00    +0.069 HD
ENDROOT
BRANCH  21  51
ATOM     51  C   UNL     1     142.450 166.403 192.960  0.00  0.00    -0.040 C 
ATOM     52  H   UNL     1     142.043 167.019 193.767  0.00  0.00    +0.028 HD
ATOM     53  H   UNL     1     142.582 165.394 193.353  0.00  0.00    +0.028 HD
ATOM     54  H   UNL     1     141.701 166.340 192.165  0.00  0.00    +0.028 HD
ENDBRANCH  21  51
BRANCH   2  55
ATOM     55  C   UNL     1     151.350 163.654 191.640  0.00  0.00    -0.057 C 
ATOM     56  H   UNL     1     152.132 164.324 192.012  0.00  0.00    +0.023 HD
ATOM     57  H   UNL     1     151.714 163.165 190.740  0.00  0.00    +0.023 HD
ATOM     58  H   UNL     1     151.226 162.849 192.368  0.00  0.00    +0.023 HD
ENDBRANCH   2  55
BRANCH   1  59
ATOM     59  C   UNL     1     150.296 166.182 193.391  0.00  0.00    +0.020 C 
ATOM     60  H   UNL     1     149.565 166.763 193.965  0.00  0.00    +0.036 HD
BRANCH  59  61
ATOM     61  C   UNL     1     151.231 165.610 194.464  0.00  0.00    -0.057 C 
ATOM     62  H   UNL     1     151.715 166.411 195.030  0.00  0.00    +0.023 HD
ATOM     63  H   UNL     1     150.733 164.945 195.167  0.00  0.00    +0.023 HD
ATOM     64  H   UNL     1     152.025 165.024 193.990  0.00  0.00    +0.023 HD
ENDBRANCH  59  61
BRANCH  59  65
ATOM     65  C   UNL     1     151.039 167.212 192.492  0.00  0.00    +0.064 C 
ATOM     66  H   UNL     1     152.009 167.430 192.960  0.00  0.00    +0.060 HD
BRANCH  65  67
ATOM     67  C   UNL     1     150.323 168.579 192.308  0.00  0.00    -0.017 C 
ATOM     68  H   UNL     1     149.705 168.792 193.184  0.00  0.00    +0.032 HD
BRANCH  67  69
ATOM     69  C   UNL     1     151.347 169.715 192.168  0.00  0.00    -0.060 C 
ATOM     70  H   UNL     1     151.515 169.959 191.111  0.00  0.00    +0.023 HD
ATOM     71  H   UNL     1     152.310 169.429 192.605  0.00  0.00    +0.023 HD
ATOM     72  H   UNL     1     151.016 170.635 192.652  0.00  0.00    +0.023 HD
ENDBRANCH  67  69
BRANCH  67  73
ATOM     73  C   UNL     1     149.380 168.621 191.078  0.00  0.00    -0.046 C 
ATOM     74  H   UNL     1     149.778 169.336 190.347  0.00  0.00    +0.027 HD
ATOM     75  H   UNL     1     149.372 167.644 190.579  0.00  0.00    +0.027 HD
BRANCH  73  76
ATOM     76  C   UNL     1     147.954 169.060 191.428  0.00  0.00    -0.026 C 
ATOM     77  H   UNL     1     147.230 168.640 190.722  0.00  0.00    +0.029 HD
ATOM     78  H   UNL     1     147.673 168.662 192.412  0.00  0.00    +0.029 HD
BRANCH  76  83
ATOM     79  C   UNL     1     147.996 172.398 193.026  0.00  0.00    +0.059 C 
ATOM     80  C   UNL     1     147.310 173.201 191.915  0.00  0.00    -0.000 C 
ATOM     81  C   UNL     1     146.079 172.452 191.414  0.00  0.00    +0.063 C 
ATOM     82  C   UNL     1     146.481 171.073 190.871  0.00  0.00    -0.000 C 
ATOM     83  C   UNL     1     147.797 170.583 191.481  0.00  0.00    +0.061 C 
ATOM     84  O   UNL     1     147.853 170.981 192.855  0.00  0.00    -0.373 OA
ATOM     85  H   UNL     1     147.504 172.633 193.976  0.00  0.00    +0.059 HD
ATOM     86  H   UNL     1     147.041 174.202 192.271  0.00  0.00    +0.032 HD
ATOM     87  H   UNL     1     147.992 173.369 191.069  0.00  0.00    +0.032 HD
ATOM     88  H   UNL     1     145.380 172.333 192.253  0.00  0.00    +0.060 HD
ATOM     89  H   UNL     1     145.668 170.369 191.109  0.00  0.00    +0.032 HD
ATOM     90  H   UNL     1     146.560 171.079 189.776  0.00  0.00    +0.032 HD
ATOM     91  H   UNL     1     148.648 171.030 190.949  0.00  0.00    +0.060 HD
BRANCH  79  92
ATOM     92  C   UNL     1     149.471 172.749 193.161  0.00  0.00    -0.039 C 
ATOM     93  H   UNL     1     149.856 172.467 194.146  0.00  0.00    +0.025 HD
ATOM     94  H   UNL     1     150.052 172.229 192.392  0.00  0.00    +0.025 HD
ATOM     95  H   UNL     1     149.641 173.821 193.011  0.00  0.00    +0.025 HD
ENDBRANCH  79  92
BRANCH  81  96
ATOM     96  O   UNL     1     145.459 173.246 190.396  0.00  0.00    -0.380 OA
BRANCH  96  97
ATOM     97  C   UNL     1     145.577 172.675 189.098  0.00  0.00    +0.037 C 
ATOM     98  H   UNL     1     144.716 172.022 188.936  0.00  0.00    +0.052 HD
ATOM     99  H   UNL     1     146.488 172.074 189.023  0.00  0.00    +0.052 HD
ATOM    100  H   UNL     1     145.570 173.451 188.327  0.00  0.00    +0.052 HD
ENDBRANCH  96  97
ENDBRANCH  81  96
ENDBRANCH  76  83
ENDBRANCH  73  76
ENDBRANCH  67  73
ENDBRANCH  65  67
BRANCH  65 101
ATOM    101  O   UNL     1     151.338 166.644 191.224  0.00  0.00    -0.391 OA
ATOM    102  H   UNL     1     151.189 165.685 191.283  0.00  0.00    +0.210 HD
ENDBRANCH  65 101
ENDBRANCH  59  65
ENDBRANCH   1  59
BRANCH  19 103
ATOM    103  O   UNL     1     143.074 169.409 189.796  0.00  0.00    -0.385 OA
ATOM    104  H   UNL     1     144.037 169.417 189.660  0.00  0.00    +0.210 HD
ENDBRANCH  19 103
BRANCH  18 105
ATOM    105  O   UNL     1     141.854 165.947 189.671  0.00  0.00    -0.377 OA
BRANCH 105 106
ATOM    106  C   UNL     1     142.516 164.713 189.420  0.00  0.00    +0.037 C 
ATOM    107  H   UNL     1     141.861 164.044 188.853  0.00  0.00    +0.052 HD
ATOM    108  H   UNL     1     142.826 164.233 190.352  0.00  0.00    +0.052 HD
ATOM    109  H   UNL     1     143.408 164.915 188.820  0.00  0.00    +0.052 HD
ENDBRANCH 105 106
ENDBRANCH  18 105
BRANCH   9 110
ATOM    110  O   UNL     1     149.478 164.542 186.777  0.00  0.00    -0.377 OA
BRANCH 110 111
ATOM    111  C   UNL     1     149.585 164.606 185.358  0.00  0.00    +0.037 C 
ATOM    112  H   UNL     1     148.590 164.804 184.948  0.00  0.00    +0.052 HD
ATOM    113  H   UNL     1     149.934 163.651 184.955  0.00  0.00    +0.052 HD
ATOM    114  H   UNL     1     150.248 165.416 185.047  0.00  0.00    +0.052 HD
ENDBRANCH 110 111
ENDBRANCH   9 110
BRANCH   5 115
ATOM    115  O   UNL     1     149.035 161.585 187.366  0.00  0.00    -0.377 OA
BRANCH 115 116
ATOM    116  C   UNL     1     150.405 161.305 187.612  0.00  0.00    +0.037 C 
ATOM    117  H   UNL     1     150.731 161.920 188.452  0.00  0.00    +0.052 HD
ATOM    118  H   UNL     1     150.555 160.256 187.871  0.00  0.00    +0.052 HD
ATOM    119  H   UNL     1     151.011 161.565 186.738  0.00  0.00    +0.052 HD
ENDBRANCH 115 116
ENDBRANCH   5 115
BRANCH   3 120
ATOM    120  O   UNL     1     148.705 162.367 191.564  0.00  0.00    -0.379 OA
BRANCH 120 121
ATOM    121  C   UNL     1     149.084 161.108 191.027  0.00  0.00    +0.037 C 
ATOM    122  H   UNL     1     148.174 160.515 190.872  0.00  0.00    +0.052 HD
ATOM    123  H   UNL     1     149.737 160.564 191.717  0.00  0.00    +0.052 HD
ATOM    124  H   UNL     1     149.580 161.233 190.058  0.00  0.00    +0.052 HD
ENDBRANCH 120 121
ENDBRANCH   3 120
TORSDOF 23
ENDMDL
MODEL 5
REMARK VINA RESULT:      -6.0     11.057     15.737
REMARK  Name = Lobophorolide_conf1
REMARK  23 active torsions:
REMARK  status: ('A' for Active; 'I' for Inactive)
REMARK    1  A    between atoms: C_1  and  C_2
REMARK    2  A    between atoms: C_4  and  O_53
REMARK    3  A    between atoms: C_6  and  C_8
REMARK    4  A    between atoms: C_8  and  C_9
REMARK    5  A    between atoms: C_9  and  C_10
REMARK    6  A    between atoms: C_10  and  C_11
REMARK    7  A    between atoms: C_10  and  C_12
REMARK    8  A    between atoms: C_12  and  C_13
REMARK    9  A    between atoms: C_12  and  O_52
REMARK   10  A    between atoms: C_13  and  C_14
REMARK   11  A    between atoms: C_13  and  C_15
REMARK   12  A    between atoms: C_16  and  C_51
REMARK   13  A    between atoms: C_17  and  O_49
REMARK   14  A    between atoms: C_19  and  O_47
REMARK   15  A    between atoms: C_23  and  O_45
REMARK   16  A    between atoms: C_32  and  O_43
REMARK   17  A    between atoms: C_33  and  O_42
REMARK   18  A    between atoms: C_35  and  C_41
REMARK   19  A    between atoms: O_43  and  C_44
REMARK   20  A    between atoms: O_45  and  C_46
REMARK   21  A    between atoms: O_47  and  C_48
REMARK   22  A    between atoms: O_49  and  C_50
REMARK   23  A    between atoms: O_53  and  C_54
REMARK                            x       y       z     vdW  Elec       q    Type
REMARK                         _______ _______ _______ _____ _____    ______ ____
ROOT
ATOM      1  C   UNL     1     148.658 165.578 187.958  0.00  0.00    +0.113 C 
ATOM      2  C   UNL     1     148.844 166.385 186.634  0.00  0.00    +0.020 C 
ATOM      3  C   UNL     1     147.497 166.462 185.818  0.00  0.00    +0.067 C 
ATOM      4  C   UNL     1     147.653 167.336 184.558  0.00  0.00    +0.003 C 
ATOM      5  C   UNL     1     146.337 167.856 183.964  0.00  0.00    +0.094 C 
ATOM      6  C   UNL     1     145.609 168.961 184.740  0.00  0.00    +0.145 C 
ATOM      7  C   UNL     1     144.178 169.200 184.275  0.00  0.00    +0.083 C 
ATOM      8  O   UNL     1     144.464 168.483 185.480  0.00  0.00    -0.363 OA
ATOM      9  C   UNL     1     146.404 170.033 185.499  0.00  0.00    +0.094 C 
ATOM     10  C   UNL     1     145.673 171.363 185.774  0.00  0.00    +0.003 C 
ATOM     11  C   UNL     1     144.550 171.388 186.821  0.00  0.00    +0.065 C 
ATOM     12  C   UNL     1     144.141 172.861 187.065  0.00  0.00    -0.008 C 
ATOM     13  C   UNL     1     143.374 173.050 188.334  0.00  0.00    -0.083 C 
ATOM     14  C   UNL     1     143.308 172.074 189.247  0.00  0.00    -0.059 C 
ATOM     15  C   UNL     1     143.972 170.732 189.072  0.00  0.00    +0.080 C 
ATOM     16  O   UNL     1     144.990 170.784 188.042  0.00  0.00    -0.369 OA
ATOM     17  C   UNL     1     142.960 169.611 188.782  0.00  0.00    +0.006 C 
ATOM     18  C   UNL     1     141.904 169.343 189.877  0.00  0.00    +0.090 C 
ATOM     19  C   UNL     1     142.467 168.888 191.257  0.00  0.00    +0.100 C 
ATOM     20  C   UNL     1     143.595 167.904 191.141  0.00  0.00    -0.051 C 
ATOM     21  C   UNL     1     143.518 166.563 191.044  0.00  0.00    -0.052 C 
ATOM     22  C   UNL     1     144.705 165.783 190.733  0.00  0.00    -0.052 C 
ATOM     23  C   UNL     1     145.545 166.142 189.753  0.00  0.00    +0.023 C 
ATOM     24  C   UNL     1     146.724 165.344 189.382  0.00  0.00    +0.332 C 
ATOM     25  O   UNL     1     146.946 164.193 189.712  0.00  0.00    -0.246 OA
ATOM     26  O   UNL     1     147.481 166.140 188.591  0.00  0.00    -0.458 OA
ATOM     27  H   UNL     1     148.420 164.543 187.684  0.00  0.00    +0.074 HD
ATOM     28  H   UNL     1     149.081 167.424 186.891  0.00  0.00    +0.036 HD
ATOM     29  H   UNL     1     146.717 166.897 186.457  0.00  0.00    +0.060 HD
ATOM     30  H   UNL     1     148.149 166.738 183.782  0.00  0.00    +0.032 HD
ATOM     31  H   UNL     1     148.336 168.163 184.757  0.00  0.00    +0.032 HD
ATOM     32  H   UNL     1     145.647 167.007 183.875  0.00  0.00    +0.063 HD
ATOM     33  H   UNL     1     143.728 170.178 184.340  0.00  0.00    +0.059 HD
ATOM     34  H   UNL     1     143.804 168.632 183.430  0.00  0.00    +0.059 HD
ATOM     35  H   UNL     1     146.749 169.586 186.441  0.00  0.00    +0.063 HD
ATOM     36  H   UNL     1     146.429 172.084 186.110  0.00  0.00    +0.032 HD
ATOM     37  H   UNL     1     145.301 171.778 184.827  0.00  0.00    +0.032 HD
ATOM     38  H   UNL     1     143.683 170.839 186.448  0.00  0.00    +0.060 HD
ATOM     39  H   UNL     1     145.027 173.503 187.141  0.00  0.00    +0.033 HD
ATOM     40  H   UNL     1     143.551 173.221 186.214  0.00  0.00    +0.033 HD
ATOM     41  H   UNL     1     142.904 174.010 188.526  0.00  0.00    +0.057 HD
ATOM     42  H   UNL     1     142.778 172.243 190.182  0.00  0.00    +0.059 HD
ATOM     43  H   UNL     1     144.525 170.504 189.989  0.00  0.00    +0.064 HD
ATOM     44  H   UNL     1     142.414 169.833 187.854  0.00  0.00    +0.032 HD
ATOM     45  H   UNL     1     143.498 168.685 188.537  0.00  0.00    +0.032 HD
ATOM     46  H   UNL     1     141.329 170.267 190.019  0.00  0.00    +0.063 HD
ATOM     47  H   UNL     1     141.665 168.471 191.872  0.00  0.00    +0.066 HD
ATOM     48  H   UNL     1     144.577 168.378 191.060  0.00  0.00    +0.060 HD
ATOM     49  H   UNL     1     144.865 164.865 191.292  0.00  0.00    +0.062 HD
ATOM     50  H   UNL     1     145.380 167.036 189.161  0.00  0.00    +0.069 HD
ENDROOT
BRANCH  21  51
ATOM     51  C   UNL     1     142.255 165.754 191.145  0.00  0.00    -0.040 C 
ATOM     52  H   UNL     1     141.429 166.274 190.652  0.00  0.00    +0.028 HD
ATOM     53  H   UNL     1     141.949 165.556 192.173  0.00  0.00    +0.028 HD
ATOM     54  H   UNL     1     142.388 164.783 190.659  0.00  0.00    +0.028 HD
ENDBRANCH  21  51
BRANCH   2  55
ATOM     55  C   UNL     1     149.980 165.818 185.774  0.00  0.00    -0.057 C 
ATOM     56  H   UNL     1     150.719 165.288 186.385  0.00  0.00    +0.023 HD
ATOM     57  H   UNL     1     150.488 166.605 185.224  0.00  0.00    +0.023 HD
ATOM     58  H   UNL     1     149.620 165.126 185.010  0.00  0.00    +0.023 HD
ENDBRANCH   2  55
BRANCH   1  59
ATOM     59  C   UNL     1     149.818 165.556 189.011  0.00  0.00    +0.020 C 
ATOM     60  H   UNL     1     149.332 165.425 189.984  0.00  0.00    +0.036 HD
BRANCH  59  61
ATOM     61  C   UNL     1     150.700 164.308 188.873  0.00  0.00    -0.057 C 
ATOM     62  H   UNL     1     151.382 164.402 188.024  0.00  0.00    +0.023 HD
ATOM     63  H   UNL     1     151.286 164.089 189.763  0.00  0.00    +0.023 HD
ATOM     64  H   UNL     1     150.072 163.430 188.688  0.00  0.00    +0.023 HD
ENDBRANCH  59  61
BRANCH  59  65
ATOM     65  C   UNL     1     150.685 166.842 189.145  0.00  0.00    +0.064 C 
ATOM     66  H   UNL     1     151.006 167.139 188.137  0.00  0.00    +0.060 HD
BRANCH  65  67
ATOM     67  C   UNL     1     151.979 166.691 189.992  0.00  0.00    -0.017 C 
ATOM     68  H   UNL     1     152.031 165.682 190.407  0.00  0.00    +0.032 HD
BRANCH  67  69
ATOM     69  C   UNL     1     153.226 166.906 189.121  0.00  0.00    -0.060 C 
ATOM     70  H   UNL     1     154.141 166.785 189.716  0.00  0.00    +0.023 HD
ATOM     71  H   UNL     1     153.234 167.913 188.692  0.00  0.00    +0.023 HD
ATOM     72  H   UNL     1     153.290 166.188 188.302  0.00  0.00    +0.023 HD
ENDBRANCH  67  69
BRANCH  67  73
ATOM     73  C   UNL     1     152.049 167.670 191.192  0.00  0.00    -0.046 C 
ATOM     74  H   UNL     1     152.855 168.394 191.014  0.00  0.00    +0.027 HD
ATOM     75  H   UNL     1     151.122 168.253 191.255  0.00  0.00    +0.027 HD
BRANCH  73  76
ATOM     76  C   UNL     1     152.340 166.969 192.524  0.00  0.00    -0.026 C 
ATOM     77  H   UNL     1     153.046 166.143 192.385  0.00  0.00    +0.029 HD
ATOM     78  H   UNL     1     152.834 167.668 193.212  0.00  0.00    +0.029 HD
BRANCH  76  83
ATOM     79  C   UNL     1     148.813 167.112 193.633  0.00  0.00    +0.059 C 
ATOM     80  C   UNL     1     148.817 165.917 194.591  0.00  0.00    -0.000 C 
ATOM     81  C   UNL     1     150.051 165.970 195.487  0.00  0.00    +0.063 C 
ATOM     82  C   UNL     1     151.328 165.943 194.634  0.00  0.00    -0.000 C 
ATOM     83  C   UNL     1     151.074 166.454 193.213  0.00  0.00    +0.061 C 
ATOM     84  O   UNL     1     150.133 167.533 193.264  0.00  0.00    -0.373 OA
ATOM     85  H   UNL     1     148.363 167.967 194.150  0.00  0.00    +0.059 HD
ATOM     86  H   UNL     1     147.899 165.897 195.191  0.00  0.00    +0.032 HD
ATOM     87  H   UNL     1     148.820 164.966 194.039  0.00  0.00    +0.032 HD
ATOM     88  H   UNL     1     150.014 166.898 196.073  0.00  0.00    +0.060 HD
ATOM     89  H   UNL     1     152.079 166.575 195.134  0.00  0.00    +0.032 HD
ATOM     90  H   UNL     1     151.763 164.936 194.593  0.00  0.00    +0.032 HD
ATOM     91  H   UNL     1     150.653 165.649 192.593  0.00  0.00    +0.060 HD
BRANCH  79  92
ATOM     92  C   UNL     1     147.996 166.839 192.378  0.00  0.00    -0.039 C 
ATOM     93  H   UNL     1     148.586 166.298 191.632  0.00  0.00    +0.025 HD
ATOM     94  H   UNL     1     147.111 166.244 192.629  0.00  0.00    +0.025 HD
ATOM     95  H   UNL     1     147.630 167.769 191.930  0.00  0.00    +0.025 HD
ENDBRANCH  79  92
BRANCH  81  96
ATOM     96  O   UNL     1     150.004 164.850 196.379  0.00  0.00    -0.380 OA
BRANCH  96  97
ATOM     97  C   UNL     1     151.217 164.107 196.400  0.00  0.00    +0.037 C 
ATOM     98  H   UNL     1     151.421 163.823 197.436  0.00  0.00    +0.052 HD
ATOM     99  H   UNL     1     152.049 164.716 196.037  0.00  0.00    +0.052 HD
ATOM    100  H   UNL     1     151.127 163.193 195.805  0.00  0.00    +0.052 HD
ENDBRANCH  96  97
ENDBRANCH  81  96
ENDBRANCH  76  83
ENDBRANCH  73  76
ENDBRANCH  67  73
ENDBRANCH  65  67
BRANCH  65 101
ATOM    101  O   UNL     1     149.903 167.922 189.638  0.00  0.00    -0.391 OA
ATOM    102  H   UNL     1     150.155 168.722 189.148  0.00  0.00    +0.210 HD
ENDBRANCH  65 101
ENDBRANCH  59  65
ENDBRANCH   1  59
BRANCH  19 103
ATOM    103  O   UNL     1     142.976 170.025 191.959  0.00  0.00    -0.385 OA
ATOM    104  H   UNL     1     143.918 170.104 191.733  0.00  0.00    +0.210 HD
ENDBRANCH  19 103
BRANCH  18 105
ATOM    105  O   UNL     1     141.024 168.331 189.350  0.00  0.00    -0.377 OA
BRANCH 105 106
ATOM    106  C   UNL     1     141.422 167.851 188.071  0.00  0.00    +0.037 C 
ATOM    107  H   UNL     1     142.505 167.692 188.050  0.00  0.00    +0.052 HD
ATOM    108  H   UNL     1     141.130 168.545 187.279  0.00  0.00    +0.052 HD
ATOM    109  H   UNL     1     140.928 166.893 187.893  0.00  0.00    +0.052 HD
ENDBRANCH 105 106
ENDBRANCH  18 105
BRANCH   9 110
ATOM    110  O   UNL     1     147.550 170.387 184.695  0.00  0.00    -0.377 OA
BRANCH 110 111
ATOM    111  C   UNL     1     147.308 171.458 183.789  0.00  0.00    +0.037 C 
ATOM    112  H   UNL     1     146.684 171.081 182.972  0.00  0.00    +0.052 HD
ATOM    113  H   UNL     1     148.247 171.819 183.360  0.00  0.00    +0.052 HD
ATOM    114  H   UNL     1     146.772 172.275 184.276  0.00  0.00    +0.052 HD
ENDBRANCH 110 111
ENDBRANCH   9 110
BRANCH   5 115
ATOM    115  O   UNL     1     146.576 168.362 182.636  0.00  0.00    -0.377 OA
BRANCH 115 116
ATOM    116  C   UNL     1     146.176 167.463 181.612  0.00  0.00    +0.037 C 
ATOM    117  H   UNL     1     146.527 166.465 181.882  0.00  0.00    +0.052 HD
ATOM    118  H   UNL     1     145.090 167.434 181.512  0.00  0.00    +0.052 HD
ATOM    119  H   UNL     1     146.634 167.743 180.658  0.00  0.00    +0.052 HD
ENDBRANCH 115 116
ENDBRANCH   5 115
BRANCH   3 120
ATOM    120  O   UNL     1     147.144 165.133 185.393  0.00  0.00    -0.379 OA
BRANCH 120 121
ATOM    121  C   UNL     1     145.831 164.745 185.770  0.00  0.00    +0.037 C 
ATOM    122  H   UNL     1     145.372 165.578 186.316  0.00  0.00    +0.052 HD
ATOM    123  H   UNL     1     145.851 163.871 186.429  0.00  0.00    +0.052 HD
ATOM    124  H   UNL     1     145.219 164.536 184.886  0.00  0.00    +0.052 HD
ENDBRANCH 120 121
ENDBRANCH   3 120
TORSDOF 23
ENDMDL
MODEL 6
REMARK VINA RESULT:      -6.0     20.745     25.432
REMARK  Name = Lobophorolide_conf1
REMARK  23 active torsions:
REMARK  status: ('A' for Active; 'I' for Inactive)
REMARK    1  A    between atoms: C_1  and  C_2
REMARK    2  A    between atoms: C_4  and  O_53
REMARK    3  A    between atoms: C_6  and  C_8
REMARK    4  A    between atoms: C_8  and  C_9
REMARK    5  A    between atoms: C_9  and  C_10
REMARK    6  A    between atoms: C_10  and  C_11
REMARK    7  A    between atoms: C_10  and  C_12
REMARK    8  A    between atoms: C_12  and  C_13
REMARK    9  A    between atoms: C_12  and  O_52
REMARK   10  A    between atoms: C_13  and  C_14
REMARK   11  A    between atoms: C_13  and  C_15
REMARK   12  A    between atoms: C_16  and  C_51
REMARK   13  A    between atoms: C_17  and  O_49
REMARK   14  A    between atoms: C_19  and  O_47
REMARK   15  A    between atoms: C_23  and  O_45
REMARK   16  A    between atoms: C_32  and  O_43
REMARK   17  A    between atoms: C_33  and  O_42
REMARK   18  A    between atoms: C_35  and  C_41
REMARK   19  A    between atoms: O_43  and  C_44
REMARK   20  A    between atoms: O_45  and  C_46
REMARK   21  A    between atoms: O_47  and  C_48
REMARK   22  A    between atoms: O_49  and  C_50
REMARK   23  A    between atoms: O_53  and  C_54
REMARK                            x       y       z     vdW  Elec       q    Type
REMARK                         _______ _______ _______ _____ _____    ______ ____
ROOT
ATOM      1  C   UNL     1     159.661 160.239 191.520  0.00  0.00    +0.113 C 
ATOM      2  C   UNL     1     159.668 161.683 190.924  0.00  0.00    +0.020 C 
ATOM      3  C   UNL     1     159.160 161.687 189.432  0.00  0.00    +0.067 C 
ATOM      4  C   UNL     1     159.077 163.121 188.872  0.00  0.00    +0.003 C 
ATOM      5  C   UNL     1     158.177 163.283 187.640  0.00  0.00    +0.094 C 
ATOM      6  C   UNL     1     156.662 163.195 187.865  0.00  0.00    +0.145 C 
ATOM      7  C   UNL     1     155.856 163.045 186.580  0.00  0.00    +0.083 C 
ATOM      8  O   UNL     1     156.093 161.934 187.450  0.00  0.00    -0.363 OA
ATOM      9  C   UNL     1     156.034 163.737 189.157  0.00  0.00    +0.094 C 
ATOM     10  C   UNL     1     154.540 164.113 189.088  0.00  0.00    +0.003 C 
ATOM     11  C   UNL     1     153.497 162.989 188.998  0.00  0.00    +0.065 C 
ATOM     12  C   UNL     1     152.090 163.613 189.167  0.00  0.00    -0.008 C 
ATOM     13  C   UNL     1     151.043 162.604 189.512  0.00  0.00    -0.083 C 
ATOM     14  C   UNL     1     151.382 161.363 189.882  0.00  0.00    -0.059 C 
ATOM     15  C   UNL     1     152.810 160.887 189.968  0.00  0.00    +0.080 C 
ATOM     16  O   UNL     1     153.731 162.005 190.011  0.00  0.00    -0.369 OA
ATOM     17  C   UNL     1     153.176 159.924 188.826  0.00  0.00    +0.006 C 
ATOM     18  C   UNL     1     152.369 158.609 188.757  0.00  0.00    +0.090 C 
ATOM     19  C   UNL     1     152.502 157.671 189.994  0.00  0.00    +0.100 C 
ATOM     20  C   UNL     1     153.905 157.584 190.523  0.00  0.00    -0.051 C 
ATOM     21  C   UNL     1     154.887 156.747 190.132  0.00  0.00    -0.052 C 
ATOM     22  C   UNL     1     156.246 156.941 190.612  0.00  0.00    -0.052 C 
ATOM     23  C   UNL     1     156.821 158.151 190.623  0.00  0.00    +0.023 C 
ATOM     24  C   UNL     1     158.212 158.367 191.053  0.00  0.00    +0.332 C 
ATOM     25  O   UNL     1     159.061 157.508 191.202  0.00  0.00    -0.246 OA
ATOM     26  O   UNL     1     158.347 159.703 191.220  0.00  0.00    -0.458 OA
ATOM     27  H   UNL     1     160.393 159.646 190.958  0.00  0.00    +0.074 HD
ATOM     28  H   UNL     1     158.940 162.289 191.475  0.00  0.00    +0.036 HD
ATOM     29  H   UNL     1     158.161 161.233 189.393  0.00  0.00    +0.060 HD
ATOM     30  H   UNL     1     160.087 163.438 188.582  0.00  0.00    +0.032 HD
ATOM     31  H   UNL     1     158.777 163.814 189.658  0.00  0.00    +0.032 HD
ATOM     32  H   UNL     1     158.448 162.502 186.917  0.00  0.00    +0.063 HD
ATOM     33  H   UNL     1     154.857 163.446 186.501  0.00  0.00    +0.059 HD
ATOM     34  H   UNL     1     156.381 163.060 185.632  0.00  0.00    +0.059 HD
ATOM     35  H   UNL     1     156.204 162.993 189.946  0.00  0.00    +0.063 HD
ATOM     36  H   UNL     1     154.308 164.681 189.998  0.00  0.00    +0.032 HD
ATOM     37  H   UNL     1     154.380 164.829 188.271  0.00  0.00    +0.032 HD
ATOM     38  H   UNL     1     153.554 162.509 188.019  0.00  0.00    +0.060 HD
ATOM     39  H   UNL     1     152.087 164.351 189.978  0.00  0.00    +0.033 HD
ATOM     40  H   UNL     1     151.813 164.140 188.246  0.00  0.00    +0.033 HD
ATOM     41  H   UNL     1     149.999 162.903 189.499  0.00  0.00    +0.057 HD
ATOM     42  H   UNL     1     150.609 160.653 190.167  0.00  0.00    +0.059 HD
ATOM     43  H   UNL     1     152.945 160.387 190.933  0.00  0.00    +0.064 HD
ATOM     44  H   UNL     1     153.054 160.429 187.859  0.00  0.00    +0.032 HD
ATOM     45  H   UNL     1     154.253 159.709 188.859  0.00  0.00    +0.032 HD
ATOM     46  H   UNL     1     151.312 158.873 188.629  0.00  0.00    +0.063 HD
ATOM     47  H   UNL     1     152.128 156.673 189.752  0.00  0.00    +0.066 HD
ATOM     48  H   UNL     1     154.138 158.353 191.262  0.00  0.00    +0.060 HD
ATOM     49  H   UNL     1     156.802 156.059 190.917  0.00  0.00    +0.062 HD
ATOM     50  H   UNL     1     156.292 159.036 190.287  0.00  0.00    +0.069 HD
ENDROOT
BRANCH  21  51
ATOM     51  C   UNL     1     154.735 155.631 189.137  0.00  0.00    -0.040 C 
ATOM     52  H   UNL     1     154.466 154.701 189.646  0.00  0.00    +0.028 HD
ATOM     53  H   UNL     1     155.642 155.438 188.562  0.00  0.00    +0.028 HD
ATOM     54  H   UNL     1     153.946 155.869 188.418  0.00  0.00    +0.028 HD
ENDBRANCH  21  51
BRANCH   2  55
ATOM     55  C   UNL     1     161.047 162.342 191.042  0.00  0.00    -0.057 C 
ATOM     56  H   UNL     1     161.230 162.712 192.056  0.00  0.00    +0.023 HD
ATOM     57  H   UNL     1     161.147 163.173 190.348  0.00  0.00    +0.023 HD
ATOM     58  H   UNL     1     161.860 161.660 190.783  0.00  0.00    +0.023 HD
ENDBRANCH   2  55
BRANCH   1  59
ATOM     59  C   UNL     1     159.934 160.041 193.050  0.00  0.00    +0.020 C 
ATOM     60  H   UNL     1     160.412 160.967 193.387  0.00  0.00    +0.036 HD
BRANCH  59  61
ATOM     61  C   UNL     1     158.637 159.980 193.867  0.00  0.00    -0.057 C 
ATOM     62  H   UNL     1     158.598 160.790 194.601  0.00  0.00    +0.023 HD
ATOM     63  H   UNL     1     157.736 160.025 193.258  0.00  0.00    +0.023 HD
ATOM     64  H   UNL     1     158.592 159.037 194.421  0.00  0.00    +0.023 HD
ENDBRANCH  59  61
BRANCH  59  65
ATOM     65  C   UNL     1     160.907 158.895 193.459  0.00  0.00    +0.064 C 
ATOM     66  H   UNL     1     160.311 158.096 193.920  0.00  0.00    +0.060 HD
BRANCH  65  67
ATOM     67  C   UNL     1     162.000 159.283 194.493  0.00  0.00    -0.017 C 
ATOM     68  H   UNL     1     162.811 158.552 194.463  0.00  0.00    +0.032 HD
BRANCH  67  69
ATOM     69  C   UNL     1     162.594 160.660 194.164  0.00  0.00    -0.060 C 
ATOM     70  H   UNL     1     163.265 160.995 194.965  0.00  0.00    +0.023 HD
ATOM     71  H   UNL     1     161.804 161.410 194.051  0.00  0.00    +0.023 HD
ATOM     72  H   UNL     1     163.184 160.650 193.246  0.00  0.00    +0.023 HD
ENDBRANCH  67  69
BRANCH  67  73
ATOM     73  C   UNL     1     161.482 159.313 195.955  0.00  0.00    -0.046 C 
ATOM     74  H   UNL     1     160.388 159.396 195.943  0.00  0.00    +0.027 HD
ATOM     75  H   UNL     1     161.713 158.365 196.454  0.00  0.00    +0.027 HD
BRANCH  73  76
ATOM     76  C   UNL     1     162.029 160.496 196.761  0.00  0.00    -0.026 C 
ATOM     77  H   UNL     1     162.722 160.154 197.537  0.00  0.00    +0.029 HD
ATOM     78  H   UNL     1     162.619 161.152 196.107  0.00  0.00    +0.029 HD
BRANCH  76  83
ATOM     79  C   UNL     1     158.682 161.135 198.204  0.00  0.00    +0.059 C 
ATOM     80  C   UNL     1     158.730 162.666 198.244  0.00  0.00    -0.000 C 
ATOM     81  C   UNL     1     159.264 163.207 196.921  0.00  0.00    +0.063 C 
ATOM     82  C   UNL     1     160.674 162.661 196.655  0.00  0.00    -0.000 C 
ATOM     83  C   UNL     1     160.924 161.345 197.397  0.00  0.00    +0.061 C 
ATOM     84  O   UNL     1     159.720 160.569 197.393  0.00  0.00    -0.373 OA
ATOM     85  H   UNL     1     157.740 160.832 197.734  0.00  0.00    +0.059 HD
ATOM     86  H   UNL     1     157.738 163.079 198.463  0.00  0.00    +0.032 HD
ATOM     87  H   UNL     1     159.376 163.022 199.059  0.00  0.00    +0.032 HD
ATOM     88  H   UNL     1     158.584 162.891 196.118  0.00  0.00    +0.060 HD
ATOM     89  H   UNL     1     160.775 162.508 195.569  0.00  0.00    +0.032 HD
ATOM     90  H   UNL     1     161.447 163.392 196.928  0.00  0.00    +0.032 HD
ATOM     91  H   UNL     1     161.209 161.548 198.439  0.00  0.00    +0.060 HD
BRANCH  79  92
ATOM     92  C   UNL     1     158.732 160.523 199.597  0.00  0.00    -0.039 C 
ATOM     93  H   UNL     1     157.751 160.561 200.080  0.00  0.00    +0.025 HD
ATOM     94  H   UNL     1     159.057 159.479 199.535  0.00  0.00    +0.025 HD
ATOM     95  H   UNL     1     159.458 161.039 200.234  0.00  0.00    +0.025 HD
ENDBRANCH  79  92
BRANCH  81  96
ATOM     96  O   UNL     1     159.271 164.637 196.994  0.00  0.00    -0.380 OA
BRANCH  96  97
ATOM     97  C   UNL     1     160.094 165.240 196.002  0.00  0.00    +0.037 C 
ATOM     98  H   UNL     1     160.800 164.485 195.645  0.00  0.00    +0.052 HD
ATOM     99  H   UNL     1     160.661 166.073 196.426  0.00  0.00    +0.052 HD
ATOM    100  H   UNL     1     159.496 165.581 195.152  0.00  0.00    +0.052 HD
ENDBRANCH  96  97
ENDBRANCH  81  96
ENDBRANCH  76  83
ENDBRANCH  73  76
ENDBRANCH  67  73
ENDBRANCH  65  67
BRANCH  65 101
ATOM    101  O   UNL     1     161.508 158.317 192.308  0.00  0.00    -0.391 OA
ATOM    102  H   UNL     1     162.195 158.927 191.991  0.00  0.00    +0.210 HD
ENDBRANCH  65 101
ENDBRANCH  59  65
ENDBRANCH   1  59
BRANCH  19 103
ATOM    103  O   UNL     1     151.687 158.171 191.057  0.00  0.00    -0.385 OA
ATOM    104  H   UNL     1     151.999 157.755 191.879  0.00  0.00    +0.210 HD
ENDBRANCH  19 103
BRANCH  18 105
ATOM    105  O   UNL     1     152.817 157.922 187.572  0.00  0.00    -0.377 OA
BRANCH 105 106
ATOM    106  C   UNL     1     153.870 158.599 186.895  0.00  0.00    +0.037 C 
ATOM    107  H   UNL     1     153.458 159.271 186.135  0.00  0.00    +0.052 HD
ATOM    108  H   UNL     1     154.564 157.892 186.434  0.00  0.00    +0.052 HD
ATOM    109  H   UNL     1     154.420 159.199 187.626  0.00  0.00    +0.052 HD
ENDBRANCH 105 106
ENDBRANCH  18 105
BRANCH   9 110
ATOM    110  O   UNL     1     156.719 164.959 189.503  0.00  0.00    -0.377 OA
BRANCH 110 111
ATOM    111  C   UNL     1     155.950 166.135 189.275  0.00  0.00    +0.037 C 
ATOM    112  H   UNL     1     155.461 166.413 190.214  0.00  0.00    +0.052 HD
ATOM    113  H   UNL     1     155.171 165.947 188.530  0.00  0.00    +0.052 HD
ATOM    114  H   UNL     1     156.583 166.968 188.962  0.00  0.00    +0.052 HD
ENDBRANCH 110 111
ENDBRANCH   9 110
BRANCH   5 115
ATOM    115  O   UNL     1     158.437 164.557 187.018  0.00  0.00    -0.377 OA
BRANCH 115 116
ATOM    116  C   UNL     1     159.628 164.572 186.245  0.00  0.00    +0.037 C 
ATOM    117  H   UNL     1     159.685 165.532 185.730  0.00  0.00    +0.052 HD
ATOM    118  H   UNL     1     160.511 164.462 186.876  0.00  0.00    +0.052 HD
ATOM    119  H   UNL     1     159.603 163.777 185.492  0.00  0.00    +0.052 HD
ENDBRANCH 115 116
ENDBRANCH   5 115
BRANCH   3 120
ATOM    120  O   UNL     1     160.100 160.953 188.628  0.00  0.00    -0.379 OA
BRANCH 120 121
ATOM    121  C   UNL     1     159.505 159.915 187.861  0.00  0.00    +0.037 C 
ATOM    122  H   UNL     1     158.946 159.264 188.544  0.00  0.00    +0.052 HD
ATOM    123  H   UNL     1     160.265 159.312 187.354  0.00  0.00    +0.052 HD
ATOM    124  H   UNL     1     158.802 160.328 187.129  0.00  0.00    +0.052 HD
ENDBRANCH 120 121
ENDBRANCH   3 120
TORSDOF 23
ENDMDL
MODEL 7
REMARK VINA RESULT:      -6.0     19.939     24.932
REMARK  Name = Lobophorolide_conf1
REMARK  23 active torsions:
REMARK  status: ('A' for Active; 'I' for Inactive)
REMARK    1  A    between atoms: C_1  and  C_2
REMARK    2  A    between atoms: C_4  and  O_53
REMARK    3  A    between atoms: C_6  and  C_8
REMARK    4  A    between atoms: C_8  and  C_9
REMARK    5  A    between atoms: C_9  and  C_10
REMARK    6  A    between atoms: C_10  and  C_11
REMARK    7  A    between atoms: C_10  and  C_12
REMARK    8  A    between atoms: C_12  and  C_13
REMARK    9  A    between atoms: C_12  and  O_52
REMARK   10  A    between atoms: C_13  and  C_14
REMARK   11  A    between atoms: C_13  and  C_15
REMARK   12  A    between atoms: C_16  and  C_51
REMARK   13  A    between atoms: C_17  and  O_49
REMARK   14  A    between atoms: C_19  and  O_47
REMARK   15  A    between atoms: C_23  and  O_45
REMARK   16  A    between atoms: C_32  and  O_43
REMARK   17  A    between atoms: C_33  and  O_42
REMARK   18  A    between atoms: C_35  and  C_41
REMARK   19  A    between atoms: O_43  and  C_44
REMARK   20  A    between atoms: O_45  and  C_46
REMARK   21  A    between atoms: O_47  and  C_48
REMARK   22  A    between atoms: O_49  and  C_50
REMARK   23  A    between atoms: O_53  and  C_54
REMARK                            x       y       z     vdW  Elec       q    Type
REMARK                         _______ _______ _______ _____ _____    ______ ____
ROOT
ATOM      1  C   UNL     1     159.359 159.797 189.908  0.00  0.00    +0.113 C 
ATOM      2  C   UNL     1     159.394 161.268 189.384  0.00  0.00    +0.020 C 
ATOM      3  C   UNL     1     158.476 161.443 188.114  0.00  0.00    +0.067 C 
ATOM      4  C   UNL     1     158.435 162.914 187.651  0.00  0.00    +0.003 C 
ATOM      5  C   UNL     1     157.245 163.275 186.752  0.00  0.00    +0.094 C 
ATOM      6  C   UNL     1     155.866 163.360 187.419  0.00  0.00    +0.145 C 
ATOM      7  C   UNL     1     154.706 163.405 186.431  0.00  0.00    +0.083 C 
ATOM      8  O   UNL     1     155.030 162.213 187.153  0.00  0.00    -0.363 OA
ATOM      9  C   UNL     1     155.727 163.880 188.856  0.00  0.00    +0.094 C 
ATOM     10  C   UNL     1     154.346 164.443 189.251  0.00  0.00    +0.003 C 
ATOM     11  C   UNL     1     153.176 163.467 189.442  0.00  0.00    +0.065 C 
ATOM     12  C   UNL     1     151.982 164.247 190.045  0.00  0.00    -0.008 C 
ATOM     13  C   UNL     1     150.952 163.353 190.656  0.00  0.00    -0.083 C 
ATOM     14  C   UNL     1     151.207 162.056 190.866  0.00  0.00    -0.059 C 
ATOM     15  C   UNL     1     152.515 161.402 190.504  0.00  0.00    +0.080 C 
ATOM     16  O   UNL     1     153.556 162.391 190.305  0.00  0.00    -0.369 OA
ATOM     17  C   UNL     1     152.393 160.486 189.275  0.00  0.00    +0.006 C 
ATOM     18  C   UNL     1     151.424 159.290 189.409  0.00  0.00    +0.090 C 
ATOM     19  C   UNL     1     151.781 158.255 190.518  0.00  0.00    +0.100 C 
ATOM     20  C   UNL     1     153.251 157.957 190.598  0.00  0.00    -0.051 C 
ATOM     21  C   UNL     1     153.947 157.035 189.904  0.00  0.00    -0.052 C 
ATOM     22  C   UNL     1     155.400 157.024 189.960  0.00  0.00    -0.052 C 
ATOM     23  C   UNL     1     156.117 158.148 189.837  0.00  0.00    +0.023 C 
ATOM     24  C   UNL     1     157.589 158.159 189.837  0.00  0.00    +0.332 C 
ATOM     25  O   UNL     1     158.315 157.192 189.696  0.00  0.00    -0.246 OA
ATOM     26  O   UNL     1     157.954 159.452 189.999  0.00  0.00    -0.458 OA
ATOM     27  H   UNL     1     159.804 159.160 189.133  0.00  0.00    +0.074 HD
ATOM     28  H   UNL     1     158.951 161.918 190.147  0.00  0.00    +0.036 HD
ATOM     29  H   UNL     1     157.456 161.121 188.362  0.00  0.00    +0.060 HD
ATOM     30  H   UNL     1     159.350 163.123 187.082  0.00  0.00    +0.032 HD
ATOM     31  H   UNL     1     158.479 163.580 188.513  0.00  0.00    +0.032 HD
ATOM     32  H   UNL     1     157.181 162.521 185.957  0.00  0.00    +0.063 HD
ATOM     33  H   UNL     1     153.795 163.932 186.667  0.00  0.00    +0.059 HD
ATOM     34  H   UNL     1     154.928 163.424 185.369  0.00  0.00    +0.059 HD
ATOM     35  H   UNL     1     156.014 163.066 189.533  0.00  0.00    +0.063 HD
ATOM     36  H   UNL     1     154.473 164.969 190.206  0.00  0.00    +0.032 HD
ATOM     37  H   UNL     1     154.056 165.231 188.542  0.00  0.00    +0.032 HD
ATOM     38  H   UNL     1     152.876 163.056 188.475  0.00  0.00    +0.060 HD
ATOM     39  H   UNL     1     152.320 164.919 190.843  0.00  0.00    +0.033 HD
ATOM     40  H   UNL     1     151.524 164.870 189.267  0.00  0.00    +0.033 HD
ATOM     41  H   UNL     1     150.003 163.780 190.966  0.00  0.00    +0.057 HD
ATOM     42  H   UNL     1     150.460 161.430 191.347  0.00  0.00    +0.059 HD
ATOM     43  H   UNL     1     152.856 160.821 191.367  0.00  0.00    +0.064 HD
ATOM     44  H   UNL     1     152.064 161.072 188.405  0.00  0.00    +0.032 HD
ATOM     45  H   UNL     1     153.390 160.137 188.976  0.00  0.00    +0.032 HD
ATOM     46  H   UNL     1     150.424 159.693 189.612  0.00  0.00    +0.063 HD
ATOM     47  H   UNL     1     151.217 157.332 190.367  0.00  0.00    +0.066 HD
ATOM     48  H   UNL     1     153.796 158.636 191.258  0.00  0.00    +0.060 HD
ATOM     49  H   UNL     1     155.892 156.059 190.056  0.00  0.00    +0.062 HD
ATOM     50  H   UNL     1     155.643 159.114 189.704  0.00  0.00    +0.069 HD
ENDROOT
BRANCH  21  51
ATOM     51  C   UNL     1     153.356 156.021 188.965  0.00  0.00    -0.040 C 
ATOM     52  H   UNL     1     154.147 155.498 188.421  0.00  0.00    +0.028 HD
ATOM     53  H   UNL     1     152.684 156.459 188.225  0.00  0.00    +0.028 HD
ATOM     54  H   UNL     1     152.776 155.281 189.523  0.00  0.00    +0.028 HD
ENDBRANCH  21  51
BRANCH   2  55
ATOM     55  C   UNL     1     160.825 161.741 189.103  0.00  0.00    -0.057 C 
ATOM     56  H   UNL     1     160.869 162.827 188.966  0.00  0.00    +0.023 HD
ATOM     57  H   UNL     1     161.230 161.264 188.215  0.00  0.00    +0.023 HD
ATOM     58  H   UNL     1     161.517 161.477 189.906  0.00  0.00    +0.023 HD
ENDBRANCH   2  55
BRANCH   1  59
ATOM     59  C   UNL     1     160.038 159.455 191.278  0.00  0.00    +0.020 C 
ATOM     60  H   UNL     1     159.632 158.482 191.574  0.00  0.00    +0.036 HD
BRANCH  59  61
ATOM     61  C   UNL     1     161.542 159.192 191.127  0.00  0.00    -0.057 C 
ATOM     62  H   UNL     1     162.113 160.121 191.215  0.00  0.00    +0.023 HD
ATOM     63  H   UNL     1     161.934 158.479 191.849  0.00  0.00    +0.023 HD
ATOM     64  H   UNL     1     161.748 158.778 190.135  0.00  0.00    +0.023 HD
ENDBRANCH  59  61
BRANCH  59  65
ATOM     65  C   UNL     1     159.753 160.411 192.474  0.00  0.00    +0.064 C 
ATOM     66  H   UNL     1     158.887 161.032 192.210  0.00  0.00    +0.060 HD
BRANCH  65  67
ATOM     67  C   UNL     1     160.904 161.390 192.835  0.00  0.00    -0.017 C 
ATOM     68  H   UNL     1     161.766 161.200 192.191  0.00  0.00    +0.032 HD
BRANCH  67  69
ATOM     69  C   UNL     1     160.467 162.846 192.618  0.00  0.00    -0.060 C 
ATOM     70  H   UNL     1     161.262 163.422 192.127  0.00  0.00    +0.023 HD
ATOM     71  H   UNL     1     160.238 163.333 193.572  0.00  0.00    +0.023 HD
ATOM     72  H   UNL     1     159.586 162.925 191.978  0.00  0.00    +0.023 HD
ENDBRANCH  67  69
BRANCH  67  73
ATOM     73  C   UNL     1     161.401 161.245 194.297  0.00  0.00    -0.046 C 
ATOM     74  H   UNL     1     160.984 160.324 194.725  0.00  0.00    +0.027 HD
ATOM     75  H   UNL     1     162.491 161.126 194.313  0.00  0.00    +0.027 HD
BRANCH  73  76
ATOM     76  C   UNL     1     160.971 162.410 195.196  0.00  0.00    -0.026 C 
ATOM     77  H   UNL     1     161.842 162.899 195.646  0.00  0.00    +0.029 HD
ATOM     78  H   UNL     1     160.478 163.183 194.592  0.00  0.00    +0.029 HD
BRANCH  76  83
ATOM     79  C   UNL     1     158.987 162.841 198.289  0.00  0.00    +0.059 C 
ATOM     80  C   UNL     1     158.549 161.387 198.494  0.00  0.00    -0.000 C 
ATOM     81  C   UNL     1     159.740 160.452 198.305  0.00  0.00    +0.063 C 
ATOM     82  C   UNL     1     160.323 160.614 196.893  0.00  0.00    -0.000 C 
ATOM     83  C   UNL     1     159.995 161.985 196.296  0.00  0.00    +0.061 C 
ATOM     84  O   UNL     1     160.048 162.972 197.333  0.00  0.00    -0.373 OA
ATOM     85  H   UNL     1     159.393 163.216 199.235  0.00  0.00    +0.059 HD
ATOM     86  H   UNL     1     158.101 161.253 199.486  0.00  0.00    +0.032 HD
ATOM     87  H   UNL     1     157.761 161.106 197.782  0.00  0.00    +0.032 HD
ATOM     88  H   UNL     1     160.502 160.705 199.054  0.00  0.00    +0.060 HD
ATOM     89  H   UNL     1     161.414 160.483 196.964  0.00  0.00    +0.032 HD
ATOM     90  H   UNL     1     159.969 159.822 196.219  0.00  0.00    +0.032 HD
ATOM     91  H   UNL     1     158.983 161.977 195.868  0.00  0.00    +0.060 HD
BRANCH  79  92
ATOM     92  C   UNL     1     157.825 163.739 197.888  0.00  0.00    -0.039 C 
ATOM     93  H   UNL     1     156.970 163.149 197.544  0.00  0.00    +0.025 HD
ATOM     94  H   UNL     1     157.513 164.351 198.740  0.00  0.00    +0.025 HD
ATOM     95  H   UNL     1     158.115 164.434 197.093  0.00  0.00    +0.025 HD
ENDBRANCH  79  92
BRANCH  81  96
ATOM     96  O   UNL     1     159.292 159.109 198.526  0.00  0.00    -0.380 OA
BRANCH  96  97
ATOM     97  C   UNL     1     158.370 159.002 199.604  0.00  0.00    +0.037 C 
ATOM     98  H   UNL     1     157.574 159.733 199.442  0.00  0.00    +0.052 HD
ATOM     99  H   UNL     1     158.861 159.227 200.555  0.00  0.00    +0.052 HD
ATOM    100  H   UNL     1     157.920 158.005 199.637  0.00  0.00    +0.052 HD
ENDBRANCH  96  97
ENDBRANCH  81  96
ENDBRANCH  76  83
ENDBRANCH  73  76
ENDBRANCH  67  73
ENDBRANCH  65  67
BRANCH  65 101
ATOM    101  O   UNL     1     159.365 159.670 193.623  0.00  0.00    -0.391 OA
ATOM    102  H   UNL     1     159.347 158.729 193.380  0.00  0.00    +0.210 HD
ENDBRANCH  65 101
ENDBRANCH  59  65
ENDBRANCH   1  59
BRANCH  19 103
ATOM    103  O   UNL     1     151.392 158.775 191.792  0.00  0.00    -0.385 OA
ATOM    104  H   UNL     1     151.677 158.132 192.464  0.00  0.00    +0.210 HD
ENDBRANCH  19 103
BRANCH  18 105
ATOM    105  O   UNL     1     151.405 158.641 188.122  0.00  0.00    -0.377 OA
BRANCH 105 106
ATOM    106  C   UNL     1     150.249 157.838 187.916  0.00  0.00    +0.037 C 
ATOM    107  H   UNL     1     149.984 157.316 188.841  0.00  0.00    +0.052 HD
ATOM    108  H   UNL     1     150.407 157.116 187.111  0.00  0.00    +0.052 HD
ATOM    109  H   UNL     1     149.419 158.492 187.637  0.00  0.00    +0.052 HD
ENDBRANCH 105 106
ENDBRANCH  18 105
BRANCH   9 110
ATOM    110  O   UNL     1     156.648 164.980 189.020  0.00  0.00    -0.377 OA
BRANCH 110 111
ATOM    111  C   UNL     1     156.019 166.212 189.359  0.00  0.00    +0.037 C 
ATOM    112  H   UNL     1     154.942 166.104 189.192  0.00  0.00    +0.052 HD
ATOM    113  H   UNL     1     156.383 167.019 188.717  0.00  0.00    +0.052 HD
ATOM    114  H   UNL     1     156.176 166.460 190.410  0.00  0.00    +0.052 HD
ENDBRANCH 110 111
ENDBRANCH   9 110
BRANCH   5 115
ATOM    115  O   UNL     1     157.488 164.549 186.122  0.00  0.00    -0.377 OA
BRANCH 115 116
ATOM    116  C   UNL     1     158.829 164.996 186.258  0.00  0.00    +0.037 C 
ATOM    117  H   UNL     1     159.363 164.747 185.339  0.00  0.00    +0.052 HD
ATOM    118  H   UNL     1     158.874 166.076 186.406  0.00  0.00    +0.052 HD
ATOM    119  H   UNL     1     159.319 164.482 187.091  0.00  0.00    +0.052 HD
ENDBRANCH 115 116
ENDBRANCH   5 115
BRANCH   3 120
ATOM    120  O   UNL     1     159.027 160.659 187.041  0.00  0.00    -0.379 OA
BRANCH 120 121
ATOM    121  C   UNL     1     158.094 159.761 186.456  0.00  0.00    +0.037 C 
ATOM    122  H   UNL     1     157.156 160.303 186.291  0.00  0.00    +0.052 HD
ATOM    123  H   UNL     1     157.891 158.914 187.120  0.00  0.00    +0.052 HD
ATOM    124  H   UNL     1     158.457 159.402 185.487  0.00  0.00    +0.052 HD
ENDBRANCH 120 121
ENDBRANCH   3 120
TORSDOF 23
ENDMDL
MODEL 8
REMARK VINA RESULT:      -5.9     15.290     20.585
REMARK  Name = Lobophorolide_conf1
REMARK  23 active torsions:
REMARK  status: ('A' for Active; 'I' for Inactive)
REMARK    1  A    between atoms: C_1  and  C_2
REMARK    2  A    between atoms: C_4  and  O_53
REMARK    3  A    between atoms: C_6  and  C_8
REMARK    4  A    between atoms: C_8  and  C_9
REMARK    5  A    between atoms: C_9  and  C_10
REMARK    6  A    between atoms: C_10  and  C_11
REMARK    7  A    between atoms: C_10  and  C_12
REMARK    8  A    between atoms: C_12  and  C_13
REMARK    9  A    between atoms: C_12  and  O_52
REMARK   10  A    between atoms: C_13  and  C_14
REMARK   11  A    between atoms: C_13  and  C_15
REMARK   12  A    between atoms: C_16  and  C_51
REMARK   13  A    between atoms: C_17  and  O_49
REMARK   14  A    between atoms: C_19  and  O_47
REMARK   15  A    between atoms: C_23  and  O_45
REMARK   16  A    between atoms: C_32  and  O_43
REMARK   17  A    between atoms: C_33  and  O_42
REMARK   18  A    between atoms: C_35  and  C_41
REMARK   19  A    between atoms: O_43  and  C_44
REMARK   20  A    between atoms: O_45  and  C_46
REMARK   21  A    between atoms: O_47  and  C_48
REMARK   22  A    between atoms: O_49  and  C_50
REMARK   23  A    between atoms: O_53  and  C_54
REMARK                            x       y       z     vdW  Elec       q    Type
REMARK                         _______ _______ _______ _____ _____    ______ ____
ROOT
ATOM      1  C   UNL     1     133.440 161.285 199.993  0.00  0.00    +0.113 C 
ATOM      2  C   UNL     1     131.902 161.171 199.747  0.00  0.00    +0.020 C 
ATOM      3  C   UNL     1     131.590 160.266 198.494  0.00  0.00    +0.067 C 
ATOM      4  C   UNL     1     130.072 160.075 198.305  0.00  0.00    +0.003 C 
ATOM      5  C   UNL     1     129.675 158.871 197.440  0.00  0.00    +0.094 C 
ATOM      6  C   UNL     1     129.857 157.478 198.056  0.00  0.00    +0.145 C 
ATOM      7  C   UNL     1     129.750 156.340 197.047  0.00  0.00    +0.083 C 
ATOM      8  O   UNL     1     131.015 156.776 197.553  0.00  0.00    -0.363 OA
ATOM      9  C   UNL     1     129.628 157.254 199.557  0.00  0.00    +0.094 C 
ATOM     10  C   UNL     1     129.293 155.813 199.992  0.00  0.00    +0.003 C 
ATOM     11  C   UNL     1     130.403 154.752 199.956  0.00  0.00    +0.065 C 
ATOM     12  C   UNL     1     129.876 153.469 200.643  0.00  0.00    -0.008 C 
ATOM     13  C   UNL     1     130.968 152.529 201.040  0.00  0.00    -0.083 C 
ATOM     14  C   UNL     1     132.248 152.919 201.021  0.00  0.00    -0.059 C 
ATOM     15  C   UNL     1     132.686 154.298 200.599  0.00  0.00    +0.080 C 
ATOM     16  O   UNL     1     131.575 155.229 200.624  0.00  0.00    -0.369 OA
ATOM     17  C   UNL     1     133.366 154.300 199.220  0.00  0.00    +0.006 C 
ATOM     18  C   UNL     1     134.660 153.465 199.096  0.00  0.00    +0.090 C 
ATOM     19  C   UNL     1     135.840 153.910 200.012  0.00  0.00    +0.100 C 
ATOM     20  C   UNL     1     135.994 155.401 200.094  0.00  0.00    -0.051 C 
ATOM     21  C   UNL     1     136.695 156.207 199.273  0.00  0.00    -0.052 C 
ATOM     22  C   UNL     1     136.567 157.651 199.384  0.00  0.00    -0.052 C 
ATOM     23  C   UNL     1     135.372 158.244 199.496  0.00  0.00    +0.023 C 
ATOM     24  C   UNL     1     135.210 159.706 199.556  0.00  0.00    +0.332 C 
ATOM     25  O   UNL     1     136.054 160.535 199.271  0.00  0.00    -0.246 OA
ATOM     26  O   UNL     1     133.939 159.925 199.964  0.00  0.00    -0.458 OA
ATOM     27  H   UNL     1     133.873 161.812 199.134  0.00  0.00    +0.074 HD
ATOM     28  H   UNL     1     131.452 160.645 200.597  0.00  0.00    +0.036 HD
ATOM     29  H   UNL     1     132.056 159.282 198.640  0.00  0.00    +0.060 HD
ATOM     30  H   UNL     1     129.668 160.973 197.821  0.00  0.00    +0.032 HD
ATOM     31  H   UNL     1     129.575 160.029 199.275  0.00  0.00    +0.032 HD
ATOM     32  H   UNL     1     130.272 158.905 196.519  0.00  0.00    +0.063 HD
ATOM     33  H   UNL     1     129.373 155.372 197.339  0.00  0.00    +0.059 HD
ATOM     34  H   UNL     1     129.512 156.580 196.016  0.00  0.00    +0.059 HD
ATOM     35  H   UNL     1     130.520 157.614 200.086  0.00  0.00    +0.063 HD
ATOM     36  H   UNL     1     128.943 155.862 201.031  0.00  0.00    +0.032 HD
ATOM     37  H   UNL     1     128.422 155.453 199.428  0.00  0.00    +0.032 HD
ATOM     38  H   UNL     1     130.657 154.518 198.920  0.00  0.00    +0.060 HD
ATOM     39  H   UNL     1     129.331 153.715 201.563  0.00  0.00    +0.033 HD
ATOM     40  H   UNL     1     129.170 152.961 199.974  0.00  0.00    +0.033 HD
ATOM     41  H   UNL     1     130.705 151.533 201.384  0.00  0.00    +0.057 HD
ATOM     42  H   UNL     1     133.026 152.235 201.350  0.00  0.00    +0.059 HD
ATOM     43  H   UNL     1     133.378 154.682 201.355  0.00  0.00    +0.064 HD
ATOM     44  H   UNL     1     132.667 153.927 198.459  0.00  0.00    +0.032 HD
ATOM     45  H   UNL     1     133.549 155.335 198.902  0.00  0.00    +0.032 HD
ATOM     46  H   UNL     1     134.407 152.423 199.329  0.00  0.00    +0.063 HD
ATOM     47  H   UNL     1     136.772 153.452 199.674  0.00  0.00    +0.066 HD
ATOM     48  H   UNL     1     135.397 155.855 200.888  0.00  0.00    +0.060 HD
ATOM     49  H   UNL     1     137.477 158.243 199.323  0.00  0.00    +0.062 HD
ATOM     50  H   UNL     1     134.452 157.670 199.521  0.00  0.00    +0.069 HD
ENDROOT
BRANCH  21  51
ATOM     51  C   UNL     1     137.574 155.748 198.143  0.00  0.00    -0.040 C 
ATOM     52  H   UNL     1     137.421 156.377 197.262  0.00  0.00    +0.028 HD
ATOM     53  H   UNL     1     137.388 154.715 197.844  0.00  0.00    +0.028 HD
ATOM     54  H   UNL     1     138.627 155.811 198.432  0.00  0.00    +0.028 HD
ENDBRANCH  21  51
BRANCH   2  55
ATOM     55  C   UNL     1     131.240 162.548 199.614  0.00  0.00    -0.057 C 
ATOM     56  H   UNL     1     130.177 162.460 199.363  0.00  0.00    +0.023 HD
ATOM     57  H   UNL     1     131.727 163.147 198.850  0.00  0.00    +0.023 HD
ATOM     58  H   UNL     1     131.319 163.139 200.529  0.00  0.00    +0.023 HD
ENDBRANCH   2  55
BRANCH   1  59
ATOM     59  C   UNL     1     133.957 161.970 201.305  0.00  0.00    +0.020 C 
ATOM     60  H   UNL     1     133.058 162.280 201.850  0.00  0.00    +0.036 HD
BRANCH  59  61
ATOM     61  C   UNL     1     134.632 160.970 202.252  0.00  0.00    -0.057 C 
ATOM     62  H   UNL     1     135.633 160.709 201.898  0.00  0.00    +0.023 HD
ATOM     63  H   UNL     1     134.711 161.325 203.277  0.00  0.00    +0.023 HD
ATOM     64  H   UNL     1     134.050 160.043 202.287  0.00  0.00    +0.023 HD
ENDBRANCH  59  61
BRANCH  59  65
ATOM     65  C   UNL     1     134.816 163.259 201.146  0.00  0.00    +0.064 C 
ATOM     66  H   UNL     1     135.469 163.339 202.026  0.00  0.00    +0.060 HD
BRANCH  65  67
ATOM     67  C   UNL     1     134.018 164.589 201.066  0.00  0.00    -0.017 C 
ATOM     68  H   UNL     1     132.986 164.419 201.383  0.00  0.00    +0.032 HD
BRANCH  67  69
ATOM     69  C   UNL     1     134.628 165.645 202.000  0.00  0.00    -0.060 C 
ATOM     70  H   UNL     1     135.652 165.369 202.282  0.00  0.00    +0.023 HD
ATOM     71  H   UNL     1     134.040 165.742 202.918  0.00  0.00    +0.023 HD
ATOM     72  H   UNL     1     134.688 166.629 201.532  0.00  0.00    +0.023 HD
ENDBRANCH  67  69
BRANCH  67  73
ATOM     73  C   UNL     1     133.952 165.185 199.636  0.00  0.00    -0.046 C 
ATOM     74  H   UNL     1     134.920 165.644 199.397  0.00  0.00    +0.027 HD
ATOM     75  H   UNL     1     133.803 164.383 198.903  0.00  0.00    +0.027 HD
BRANCH  73  76
ATOM     76  C   UNL     1     132.875 166.264 199.483  0.00  0.00    -0.026 C 
ATOM     77  H   UNL     1     132.167 166.232 200.318  0.00  0.00    +0.029 HD
ATOM     78  H   UNL     1     133.337 167.259 199.527  0.00  0.00    +0.029 HD
BRANCH  76  83
ATOM     79  C   UNL     1     129.874 165.987 197.336  0.00  0.00    +0.059 C 
ATOM     80  C   UNL     1     130.565 165.681 196.003  0.00  0.00    -0.000 C 
ATOM     81  C   UNL     1     131.637 164.614 196.203  0.00  0.00    +0.063 C 
ATOM     82  C   UNL     1     132.683 165.097 197.218  0.00  0.00    -0.000 C 
ATOM     83  C   UNL     1     132.114 166.162 198.159  0.00  0.00    +0.061 C 
ATOM     84  O   UNL     1     130.751 165.840 198.461  0.00  0.00    -0.373 OA
ATOM     85  H   UNL     1     129.075 165.253 197.487  0.00  0.00    +0.059 HD
ATOM     86  H   UNL     1     129.832 165.362 195.252  0.00  0.00    +0.032 HD
ATOM     87  H   UNL     1     131.034 166.582 195.584  0.00  0.00    +0.032 HD
ATOM     88  H   UNL     1     131.153 163.700 196.573  0.00  0.00    +0.060 HD
ATOM     89  H   UNL     1     133.018 164.222 197.796  0.00  0.00    +0.032 HD
ATOM     90  H   UNL     1     133.580 165.486 196.718  0.00  0.00    +0.032 HD
ATOM     91  H   UNL     1     132.143 167.148 197.674  0.00  0.00    +0.060 HD
BRANCH  79  92
ATOM     92  C   UNL     1     129.249 167.374 197.354  0.00  0.00    -0.039 C 
ATOM     93  H   UNL     1     128.168 167.323 197.194  0.00  0.00    +0.025 HD
ATOM     94  H   UNL     1     129.442 167.859 198.317  0.00  0.00    +0.025 HD
ATOM     95  H   UNL     1     129.688 168.019 196.585  0.00  0.00    +0.025 HD
ENDBRANCH  79  92
BRANCH  81  96
ATOM     96  O   UNL     1     132.240 164.344 194.932  0.00  0.00    -0.380 OA
BRANCH  96  97
ATOM     97  C   UNL     1     131.481 163.440 194.138  0.00  0.00    +0.037 C 
ATOM     98  H   UNL     1     130.451 163.454 194.501  0.00  0.00    +0.052 HD
ATOM     99  H   UNL     1     131.870 162.423 194.234  0.00  0.00    +0.052 HD
ATOM    100  H   UNL     1     131.479 163.747 193.088  0.00  0.00    +0.052 HD
ENDBRANCH  96  97
ENDBRANCH  81  96
ENDBRANCH  76  83
ENDBRANCH  73  76
ENDBRANCH  67  73
ENDBRANCH  65  67
BRANCH  65 101
ATOM    101  O   UNL     1     135.685 163.144 200.027  0.00  0.00    -0.391 OA
ATOM    102  H   UNL     1     136.326 162.438 200.217  0.00  0.00    +0.210 HD
ENDBRANCH  65 101
ENDBRANCH  59  65
ENDBRANCH   1  59
BRANCH  19 103
ATOM    103  O   UNL     1     135.607 153.440 201.342  0.00  0.00    -0.385 OA
ATOM    104  H   UNL     1     134.779 152.931 201.327  0.00  0.00    +0.210 HD
ENDBRANCH  19 103
BRANCH  18 105
ATOM    105  O   UNL     1     135.058 153.542 197.713  0.00  0.00    -0.377 OA
BRANCH 105 106
ATOM    106  C   UNL     1     135.906 152.472 197.312  0.00  0.00    +0.037 C 
ATOM    107  H   UNL     1     135.680 151.574 197.896  0.00  0.00    +0.052 HD
ATOM    108  H   UNL     1     136.960 152.737 197.426  0.00  0.00    +0.052 HD
ATOM    109  H   UNL     1     135.715 152.256 196.257  0.00  0.00    +0.052 HD
ENDBRANCH 105 106
ENDBRANCH  18 105
BRANCH   9 110
ATOM    110  O   UNL     1     128.489 158.047 199.954  0.00  0.00    -0.377 OA
BRANCH 110 111
ATOM    111  C   UNL     1     127.254 157.340 199.913  0.00  0.00    +0.037 C 
ATOM    112  H   UNL     1     126.473 158.033 199.583  0.00  0.00    +0.052 HD
ATOM    113  H   UNL     1     126.985 156.976 200.909  0.00  0.00    +0.052 HD
ATOM    114  H   UNL     1     127.295 156.513 199.203  0.00  0.00    +0.052 HD
ENDBRANCH 110 111
ENDBRANCH   9 110
BRANCH   5 115
ATOM    115  O   UNL     1     128.288 158.987 197.063  0.00  0.00    -0.377 OA
BRANCH 115 116
ATOM    116  C   UNL     1     127.752 160.283 197.284  0.00  0.00    +0.037 C 
ATOM    117  H   UNL     1     126.666 160.219 197.200  0.00  0.00    +0.052 HD
ATOM    118  H   UNL     1     128.004 160.651 198.280  0.00  0.00    +0.052 HD
ATOM    119  H   UNL     1     128.117 160.981 196.523  0.00  0.00    +0.052 HD
ENDBRANCH 115 116
ENDBRANCH   5 115
BRANCH   3 120
ATOM    120  O   UNL     1     132.102 160.920 197.320  0.00  0.00    -0.379 OA
BRANCH 120 121
ATOM    121  C   UNL     1     132.347 160.034 196.237  0.00  0.00    +0.037 C 
ATOM    122  H   UNL     1     131.902 160.467 195.334  0.00  0.00    +0.052 HD
ATOM    123  H   UNL     1     131.887 159.056 196.414  0.00  0.00    +0.052 HD
ATOM    124  H   UNL     1     133.424 159.919 196.067  0.00  0.00    +0.052 HD
ENDBRANCH 120 121
ENDBRANCH   3 120
TORSDOF 23
ENDMDL
MODEL 9
REMARK VINA RESULT:      -5.9     14.977     20.798
REMARK  Name = Lobophorolide_conf1
REMARK  23 active torsions:
REMARK  status: ('A' for Active; 'I' for Inactive)
REMARK    1  A    between atoms: C_1  and  C_2
REMARK    2  A    between atoms: C_4  and  O_53
REMARK    3  A    between atoms: C_6  and  C_8
REMARK    4  A    between atoms: C_8  and  C_9
REMARK    5  A    between atoms: C_9  and  C_10
REMARK    6  A    between atoms: C_10  and  C_11
REMARK    7  A    between atoms: C_10  and  C_12
REMARK    8  A    between atoms: C_12  and  C_13
REMARK    9  A    between atoms: C_12  and  O_52
REMARK   10  A    between atoms: C_13  and  C_14
REMARK   11  A    between atoms: C_13  and  C_15
REMARK   12  A    between atoms: C_16  and  C_51
REMARK   13  A    between atoms: C_17  and  O_49
REMARK   14  A    between atoms: C_19  and  O_47
REMARK   15  A    between atoms: C_23  and  O_45
REMARK   16  A    between atoms: C_32  and  O_43
REMARK   17  A    between atoms: C_33  and  O_42
REMARK   18  A    between atoms: C_35  and  C_41
REMARK   19  A    between atoms: O_43  and  C_44
REMARK   20  A    between atoms: O_45  and  C_46
REMARK   21  A    between atoms: O_47  and  C_48
REMARK   22  A    between atoms: O_49  and  C_50
REMARK   23  A    between atoms: O_53  and  C_54
REMARK                            x       y       z     vdW  Elec       q    Type
REMARK                         _______ _______ _______ _____ _____    ______ ____
ROOT
ATOM      1  C   UNL     1     133.560 161.372 199.924  0.00  0.00    +0.113 C 
ATOM      2  C   UNL     1     132.040 161.288 199.577  0.00  0.00    +0.020 C 
ATOM      3  C   UNL     1     131.791 160.368 198.321  0.00  0.00    +0.067 C 
ATOM      4  C   UNL     1     130.285 160.208 198.034  0.00  0.00    +0.003 C 
ATOM      5  C   UNL     1     129.918 158.998 197.164  0.00  0.00    +0.094 C 
ATOM      6  C   UNL     1     130.025 157.612 197.813  0.00  0.00    +0.145 C 
ATOM      7  C   UNL     1     129.958 156.459 196.819  0.00  0.00    +0.083 C 
ATOM      8  O   UNL     1     131.197 156.875 197.401  0.00  0.00    -0.363 OA
ATOM      9  C   UNL     1     129.691 157.421 199.299  0.00  0.00    +0.094 C 
ATOM     10  C   UNL     1     129.294 155.996 199.735  0.00  0.00    +0.003 C 
ATOM     11  C   UNL     1     130.378 154.909 199.791  0.00  0.00    +0.065 C 
ATOM     12  C   UNL     1     129.775 153.651 200.461  0.00  0.00    -0.008 C 
ATOM     13  C   UNL     1     130.816 152.694 200.946  0.00  0.00    -0.083 C 
ATOM     14  C   UNL     1     132.103 153.055 201.008  0.00  0.00    -0.059 C 
ATOM     15  C   UNL     1     132.601 154.415 200.593  0.00  0.00    +0.080 C 
ATOM     16  O   UNL     1     131.514 155.372 200.528  0.00  0.00    -0.369 OA
ATOM     17  C   UNL     1     133.372 154.377 199.263  0.00  0.00    +0.006 C 
ATOM     18  C   UNL     1     134.651 153.511 199.240  0.00  0.00    +0.090 C 
ATOM     19  C   UNL     1     135.777 153.945 200.225  0.00  0.00    +0.100 C 
ATOM     20  C   UNL     1     135.962 155.434 200.294  0.00  0.00    -0.051 C 
ATOM     21  C   UNL     1     136.735 156.209 199.508  0.00  0.00    -0.052 C 
ATOM     22  C   UNL     1     136.634 157.658 199.586  0.00  0.00    -0.052 C 
ATOM     23  C   UNL     1     135.448 158.279 199.608  0.00  0.00    +0.023 C 
ATOM     24  C   UNL     1     135.318 159.745 199.632  0.00  0.00    +0.332 C 
ATOM     25  O   UNL     1     136.199 160.550 199.391  0.00  0.00    -0.246 OA
ATOM     26  O   UNL     1     134.027 160.000 199.951  0.00  0.00    -0.458 OA
ATOM     27  H   UNL     1     134.063 161.873 199.087  0.00  0.00    +0.074 HD
ATOM     28  H   UNL     1     131.522 160.788 200.403  0.00  0.00    +0.036 HD
ATOM     29  H   UNL     1     132.223 159.377 198.514  0.00  0.00    +0.060 HD
ATOM     30  H   UNL     1     129.935 161.106 197.508  0.00  0.00    +0.032 HD
ATOM     31  H   UNL     1     129.723 160.190 198.968  0.00  0.00    +0.032 HD
ATOM     32  H   UNL     1     130.575 159.001 196.284  0.00  0.00    +0.063 HD
ATOM     33  H   UNL     1     129.540 155.505 197.100  0.00  0.00    +0.059 HD
ATOM     34  H   UNL     1     129.796 156.685 195.771  0.00  0.00    +0.059 HD
ATOM     35  H   UNL     1     130.554 157.770 199.881  0.00  0.00    +0.063 HD
ATOM     36  H   UNL     1     128.877 156.072 200.747  0.00  0.00    +0.032 HD
ATOM     37  H   UNL     1     128.454 155.646 199.119  0.00  0.00    +0.032 HD
ATOM     38  H   UNL     1     130.695 154.651 198.778  0.00  0.00    +0.060 HD
ATOM     39  H   UNL     1     129.177 153.927 201.339  0.00  0.00    +0.033 HD
ATOM     40  H   UNL     1     129.104 153.148 199.755  0.00  0.00    +0.033 HD
ATOM     41  H   UNL     1     130.507 151.711 201.289  0.00  0.00    +0.057 HD
ATOM     42  H   UNL     1     132.842 152.359 201.400  0.00  0.00    +0.059 HD
ATOM     43  H   UNL     1     133.251 154.797 201.387  0.00  0.00    +0.064 HD
ATOM     44  H   UNL     1     132.717 154.007 198.463  0.00  0.00    +0.032 HD
ATOM     45  H   UNL     1     133.601 155.402 198.941  0.00  0.00    +0.032 HD
ATOM     46  H   UNL     1     134.358 152.479 199.472  0.00  0.00    +0.063 HD
ATOM     47  H   UNL     1     136.719 153.460 199.958  0.00  0.00    +0.066 HD
ATOM     48  H   UNL     1     135.323 155.916 201.038  0.00  0.00    +0.060 HD
ATOM     49  H   UNL     1     137.559 158.227 199.576  0.00  0.00    +0.062 HD
ATOM     50  H   UNL     1     134.515 157.727 199.581  0.00  0.00    +0.069 HD
ENDROOT
BRANCH  21  51
ATOM     51  C   UNL     1     137.675 155.710 198.447  0.00  0.00    -0.040 C 
ATOM     52  H   UNL     1     138.225 154.835 198.806  0.00  0.00    +0.028 HD
ATOM     53  H   UNL     1     138.411 156.453 198.138  0.00  0.00    +0.028 HD
ATOM     54  H   UNL     1     137.118 155.422 197.552  0.00  0.00    +0.028 HD
ENDBRANCH  21  51
BRANCH   2  55
ATOM     55  C   UNL     1     131.421 162.677 199.377  0.00  0.00    -0.057 C 
ATOM     56  H   UNL     1     132.160 163.395 199.003  0.00  0.00    +0.023 HD
ATOM     57  H   UNL     1     131.006 163.061 200.305  0.00  0.00    +0.023 HD
ATOM     58  H   UNL     1     130.583 162.664 198.677  0.00  0.00    +0.023 HD
ENDBRANCH   2  55
BRANCH   1  59
ATOM     59  C   UNL     1     134.005 162.068 201.255  0.00  0.00    +0.020 C 
ATOM     60  H   UNL     1     133.084 162.449 201.711  0.00  0.00    +0.036 HD
BRANCH  59  61
ATOM     61  C   UNL     1     134.533 161.062 202.285  0.00  0.00    -0.057 C 
ATOM     62  H   UNL     1     134.981 161.576 203.141  0.00  0.00    +0.023 HD
ATOM     63  H   UNL     1     133.774 160.377 202.655  0.00  0.00    +0.023 HD
ATOM     64  H   UNL     1     135.317 160.445 201.832  0.00  0.00    +0.023 HD
ENDBRANCH  59  61
BRANCH  59  65
ATOM     65  C   UNL     1     134.953 163.298 201.136  0.00  0.00    +0.064 C 
ATOM     66  H   UNL     1     135.700 163.226 201.938  0.00  0.00    +0.060 HD
BRANCH  65  67
ATOM     67  C   UNL     1     134.271 164.685 201.292  0.00  0.00    -0.017 C 
ATOM     68  H   UNL     1     134.955 165.379 201.786  0.00  0.00    +0.032 HD
BRANCH  67  69
ATOM     69  C   UNL     1     133.915 165.274 199.919  0.00  0.00    -0.060 C 
ATOM     70  H   UNL     1     134.814 165.383 199.298  0.00  0.00    +0.023 HD
ATOM     71  H   UNL     1     133.456 166.262 200.024  0.00  0.00    +0.023 HD
ATOM     72  H   UNL     1     133.226 164.638 199.360  0.00  0.00    +0.023 HD
ENDBRANCH  67  69
BRANCH  67  73
ATOM     73  C   UNL     1     132.981 164.645 202.152  0.00  0.00    -0.046 C 
ATOM     74  H   UNL     1     132.621 163.610 202.207  0.00  0.00    +0.027 HD
ATOM     75  H   UNL     1     133.208 164.946 203.182  0.00  0.00    +0.027 HD
BRANCH  73  76
ATOM     76  C   UNL     1     131.848 165.501 201.576  0.00  0.00    -0.026 C 
ATOM     77  H   UNL     1     132.062 165.789 200.541  0.00  0.00    +0.029 HD
ATOM     78  H   UNL     1     130.922 164.912 201.534  0.00  0.00    +0.029 HD
BRANCH  76  83
ATOM     79  C   UNL     1     132.516 168.897 202.885  0.00  0.00    +0.059 C 
ATOM     80  C   UNL     1     131.456 168.937 203.992  0.00  0.00    -0.000 C 
ATOM     81  C   UNL     1     131.485 167.637 204.790  0.00  0.00    +0.063 C 
ATOM     82  C   UNL     1     131.212 166.441 203.866  0.00  0.00    -0.000 C 
ATOM     83  C   UNL     1     131.565 166.754 202.410  0.00  0.00    +0.061 C 
ATOM     84  O   UNL     1     132.739 167.574 202.378  0.00  0.00    -0.373 OA
ATOM     85  H   UNL     1     133.473 169.215 203.313  0.00  0.00    +0.059 HD
ATOM     86  H   UNL     1     131.614 169.801 204.648  0.00  0.00    +0.032 HD
ATOM     87  H   UNL     1     130.449 169.073 203.572  0.00  0.00    +0.032 HD
ATOM     88  H   UNL     1     132.478 167.533 205.248  0.00  0.00    +0.060 HD
ATOM     89  H   UNL     1     131.814 165.593 204.227  0.00  0.00    +0.032 HD
ATOM     90  H   UNL     1     130.165 166.113 203.931  0.00  0.00    +0.032 HD
ATOM     91  H   UNL     1     130.740 167.301 201.931  0.00  0.00    +0.060 HD
BRANCH  79  92
ATOM     92  C   UNL     1     132.179 169.834 201.735  0.00  0.00    -0.039 C 
ATOM     93  H   UNL     1     132.540 170.848 201.932  0.00  0.00    +0.025 HD
ATOM     94  H   UNL     1     132.636 169.470 200.809  0.00  0.00    +0.025 HD
ATOM     95  H   UNL     1     131.099 169.874 201.556  0.00  0.00    +0.025 HD
ENDBRANCH  79  92
BRANCH  81  96
ATOM     96  O   UNL     1     130.498 167.725 205.823  0.00  0.00    -0.380 OA
BRANCH  96  97
ATOM     97  C   UNL     1     130.017 166.453 206.242  0.00  0.00    +0.037 C 
ATOM     98  H   UNL     1     130.746 165.699 205.937  0.00  0.00    +0.052 HD
ATOM     99  H   UNL     1     129.060 166.226 205.763  0.00  0.00    +0.052 HD
ATOM    100  H   UNL     1     129.915 166.412 207.331  0.00  0.00    +0.052 HD
ENDBRANCH  96  97
ENDBRANCH  81  96
ENDBRANCH  76  83
ENDBRANCH  73  76
ENDBRANCH  67  73
ENDBRANCH  65  67
BRANCH  65 101
ATOM    101  O   UNL     1     135.683 163.248 199.917  0.00  0.00    -0.391 OA
ATOM    102  H   UNL     1     135.086 162.920 199.224  0.00  0.00    +0.210 HD
ENDBRANCH  65 101
ENDBRANCH  59  65
ENDBRANCH   1  59
BRANCH  19 103
ATOM    103  O   UNL     1     135.445 153.505 201.545  0.00  0.00    -0.385 OA
ATOM    104  H   UNL     1     136.277 153.250 201.980  0.00  0.00    +0.210 HD
ENDBRANCH  19 103
BRANCH  18 105
ATOM    105  O   UNL     1     135.142 153.553 197.885  0.00  0.00    -0.377 OA
BRANCH 105 106
ATOM    106  C   UNL     1     134.380 154.405 197.038  0.00  0.00    +0.037 C 
ATOM    107  H   UNL     1     133.931 153.823 196.227  0.00  0.00    +0.052 HD
ATOM    108  H   UNL     1     134.996 155.209 196.627  0.00  0.00    +0.052 HD
ATOM    109  H   UNL     1     133.576 154.851 197.631  0.00  0.00    +0.052 HD
ENDBRANCH 105 106
ENDBRANCH  18 105
BRANCH   9 110
ATOM    110  O   UNL     1     128.547 158.246 199.606  0.00  0.00    -0.377 OA
BRANCH 110 111
ATOM    111  C   UNL     1     127.315 157.533 199.639  0.00  0.00    +0.037 C 
ATOM    112  H   UNL     1     126.642 157.978 198.899  0.00  0.00    +0.052 HD
ATOM    113  H   UNL     1     126.845 157.622 200.622  0.00  0.00    +0.052 HD
ATOM    114  H   UNL     1     127.459 156.483 199.379  0.00  0.00    +0.052 HD
ENDBRANCH 110 111
ENDBRANCH   9 110
BRANCH   5 115
ATOM    115  O   UNL     1     128.563 159.138 196.692  0.00  0.00    -0.377 OA
BRANCH 115 116
ATOM    116  C   UNL     1     128.014 160.425 196.934  0.00  0.00    +0.037 C 
ATOM    117  H   UNL     1     127.269 160.332 197.726  0.00  0.00    +0.052 HD
ATOM    118  H   UNL     1     128.782 161.128 197.260  0.00  0.00    +0.052 HD
ATOM    119  H   UNL     1     127.516 160.803 196.035  0.00  0.00    +0.052 HD
ENDBRANCH 115 116
ENDBRANCH   5 115
BRANCH   3 120
ATOM    120  O   UNL     1     132.396 160.989 197.173  0.00  0.00    -0.379 OA
BRANCH 120 121
ATOM    121  C   UNL     1     131.463 161.632 196.317  0.00  0.00    +0.037 C 
ATOM    122  H   UNL     1     131.375 161.039 195.400  0.00  0.00    +0.052 HD
ATOM    123  H   UNL     1     131.802 162.638 196.047  0.00  0.00    +0.052 HD
ATOM    124  H   UNL     1     130.475 161.683 196.788  0.00  0.00    +0.052 HD
ENDBRANCH 120 121
ENDBRANCH   3 120
TORSDOF 23
ENDMDL
MODEL 10
REMARK VINA RESULT:      -5.8      9.311     17.981
REMARK  Name = Lobophorolide_conf1
REMARK  23 active torsions:
REMARK  status: ('A' for Active; 'I' for Inactive)
REMARK    1  A    between atoms: C_1  and  C_2
REMARK    2  A    between atoms: C_4  and  O_53
REMARK    3  A    between atoms: C_6  and  C_8
REMARK    4  A    between atoms: C_8  and  C_9
REMARK    5  A    between atoms: C_9  and  C_10
REMARK    6  A    between atoms: C_10  and  C_11
REMARK    7  A    between atoms: C_10  and  C_12
REMARK    8  A    between atoms: C_12  and  C_13
REMARK    9  A    between atoms: C_12  and  O_52
REMARK   10  A    between atoms: C_13  and  C_14
REMARK   11  A    between atoms: C_13  and  C_15
REMARK   12  A    between atoms: C_16  and  C_51
REMARK   13  A    between atoms: C_17  and  O_49
REMARK   14  A    between atoms: C_19  and  O_47
REMARK   15  A    between atoms: C_23  and  O_45
REMARK   16  A    between atoms: C_32  and  O_43
REMARK   17  A    between atoms: C_33  and  O_42
REMARK   18  A    between atoms: C_35  and  C_41
REMARK   19  A    between atoms: O_43  and  C_44
REMARK   20  A    between atoms: O_45  and  C_46
REMARK   21  A    between atoms: O_47  and  C_48
REMARK   22  A    between atoms: O_49  and  C_50
REMARK   23  A    between atoms: O_53  and  C_54
REMARK                            x       y       z     vdW  Elec       q    Type
REMARK                         _______ _______ _______ _____ _____    ______ ____
ROOT
ATOM      1  C   UNL     1     148.724 168.128 190.480  0.00  0.00    +0.113 C 
ATOM      2  C   UNL     1     147.301 167.869 189.893  0.00  0.00    +0.020 C 
ATOM      3  C   UNL     1     147.383 167.119 188.508  0.00  0.00    +0.067 C 
ATOM      4  C   UNL     1     145.978 166.778 187.971  0.00  0.00    +0.003 C 
ATOM      5  C   UNL     1     145.943 165.670 186.911  0.00  0.00    +0.094 C 
ATOM      6  C   UNL     1     146.197 164.235 187.391  0.00  0.00    +0.145 C 
ATOM      7  C   UNL     1     146.462 163.246 186.262  0.00  0.00    +0.083 C 
ATOM      8  O   UNL     1     147.523 163.753 187.078  0.00  0.00    -0.363 OA
ATOM      9  C   UNL     1     145.706 163.777 188.771  0.00  0.00    +0.094 C 
ATOM     10  C   UNL     1     145.502 162.260 188.958  0.00  0.00    +0.003 C 
ATOM     11  C   UNL     1     146.739 161.352 189.046  0.00  0.00    +0.065 C 
ATOM     12  C   UNL     1     146.276 159.932 189.452  0.00  0.00    -0.008 C 
ATOM     13  C   UNL     1     147.390 159.082 189.970  0.00  0.00    -0.083 C 
ATOM     14  C   UNL     1     148.577 159.619 190.276  0.00  0.00    -0.059 C 
ATOM     15  C   UNL     1     148.886 161.085 190.117  0.00  0.00    +0.080 C 
ATOM     16  O   UNL     1     147.670 161.866 190.003  0.00  0.00    -0.369 OA
ATOM     17  C   UNL     1     149.823 161.362 188.929  0.00  0.00    +0.006 C 
ATOM     18  C   UNL     1     151.222 160.711 188.998  0.00  0.00    +0.090 C 
ATOM     19  C   UNL     1     152.116 161.158 190.194  0.00  0.00    +0.100 C 
ATOM     20  C   UNL     1     152.033 162.631 190.475  0.00  0.00    -0.051 C 
ATOM     21  C   UNL     1     152.760 163.622 189.923  0.00  0.00    -0.052 C 
ATOM     22  C   UNL     1     152.404 165.011 190.165  0.00  0.00    -0.052 C 
ATOM     23  C   UNL     1     151.137 165.437 190.079  0.00  0.00    +0.023 C 
ATOM     24  C   UNL     1     150.756 166.846 190.266  0.00  0.00    +0.332 C 
ATOM     25  O   UNL     1     151.512 167.801 190.267  0.00  0.00    -0.246 OA
ATOM     26  O   UNL     1     149.411 166.854 190.408  0.00  0.00    -0.458 OA
ATOM     27  H   UNL     1     149.241 168.818 189.801  0.00  0.00    +0.074 HD
ATOM     28  H   UNL     1     146.770 167.180 190.559  0.00  0.00    +0.036 HD
ATOM     29  H   UNL     1     147.948 166.186 188.640  0.00  0.00    +0.060 HD
ATOM     30  H   UNL     1     145.554 167.682 187.514  0.00  0.00    +0.032 HD
ATOM     31  H   UNL     1     145.308 166.538 188.798  0.00  0.00    +0.032 HD
ATOM     32  H   UNL     1     146.702 165.903 186.152  0.00  0.00    +0.063 HD
ATOM     33  H   UNL     1     146.179 162.209 186.353  0.00  0.00    +0.059 HD
ATOM     34  H   UNL     1     146.405 163.598 185.238  0.00  0.00    +0.059 HD
ATOM     35  H   UNL     1     146.411 164.162 189.519  0.00  0.00    +0.063 HD
ATOM     36  H   UNL     1     144.947 162.121 189.894  0.00  0.00    +0.032 HD
ATOM     37  H   UNL     1     144.825 161.883 188.179  0.00  0.00    +0.032 HD
ATOM     38  H   UNL     1     147.227 161.298 188.071  0.00  0.00    +0.060 HD
ATOM     39  H   UNL     1     145.527 159.981 190.252  0.00  0.00    +0.033 HD
ATOM     40  H   UNL     1     145.800 159.444 188.592  0.00  0.00    +0.033 HD
ATOM     41  H   UNL     1     147.211 158.023 190.135  0.00  0.00    +0.057 HD
ATOM     42  H   UNL     1     149.364 158.992 190.688  0.00  0.00    +0.059 HD
ATOM     43  H   UNL     1     149.349 161.438 191.045  0.00  0.00    +0.064 HD
ATOM     44  H   UNL     1     149.353 161.020 187.997  0.00  0.00    +0.032 HD
ATOM     45  H   UNL     1     149.914 162.446 188.778  0.00  0.00    +0.032 HD
ATOM     46  H   UNL     1     151.082 159.624 189.051  0.00  0.00    +0.063 HD
ATOM     47  H   UNL     1     153.154 160.866 190.019  0.00  0.00    +0.066 HD
ATOM     48  H   UNL     1     151.228 162.896 191.165  0.00  0.00    +0.060 HD
ATOM     49  H   UNL     1     153.212 165.708 190.371  0.00  0.00    +0.062 HD
ATOM     50  H   UNL     1     150.324 164.760 189.838  0.00  0.00    +0.069 HD
ENDROOT
BRANCH  21  51
ATOM     51  C   UNL     1     153.906 163.433 188.968  0.00  0.00    -0.040 C 
ATOM     52  H   UNL     1     154.857 163.634 189.470  0.00  0.00    +0.028 HD
ATOM     53  H   UNL     1     153.852 164.085 188.096  0.00  0.00    +0.028 HD
ATOM     54  H   UNL     1     153.923 162.405 188.597  0.00  0.00    +0.028 HD
ENDBRANCH  21  51
BRANCH   2  55
ATOM     55  C   UNL     1     146.487 169.163 189.774  0.00  0.00    -0.057 C 
ATOM     56  H   UNL     1     146.556 169.766 190.686  0.00  0.00    +0.023 HD
ATOM     57  H   UNL     1     145.439 168.953 189.578  0.00  0.00    +0.023 HD
ATOM     58  H   UNL     1     146.811 169.785 188.937  0.00  0.00    +0.023 HD
ENDBRANCH   2  55
BRANCH   1  59
ATOM     59  C   UNL     1     148.861 168.678 191.941  0.00  0.00    +0.020 C 
ATOM     60  H   UNL     1     147.840 168.894 192.272  0.00  0.00    +0.036 HD
BRANCH  59  61
ATOM     61  C   UNL     1     149.342 167.601 192.922  0.00  0.00    -0.057 C 
ATOM     62  H   UNL     1     150.130 166.988 192.475  0.00  0.00    +0.023 HD
ATOM     63  H   UNL     1     149.711 168.002 193.863  0.00  0.00    +0.023 HD
ATOM     64  H   UNL     1     148.513 166.930 193.171  0.00  0.00    +0.023 HD
ENDBRANCH  59  61
BRANCH  59  65
ATOM     65  C   UNL     1     149.654 170.004 192.133  0.00  0.00    +0.064 C 
ATOM     66  H   UNL     1     150.290 169.891 193.022  0.00  0.00    +0.060 HD
BRANCH  65  67
ATOM     67  C   UNL     1     148.788 171.273 192.370  0.00  0.00    -0.017 C 
ATOM     68  H   UNL     1     147.862 170.997 192.881  0.00  0.00    +0.032 HD
BRANCH  67  69
ATOM     69  C   UNL     1     149.533 172.281 193.257  0.00  0.00    -0.060 C 
ATOM     70  H   UNL     1     150.348 172.761 192.701  0.00  0.00    +0.023 HD
ATOM     71  H   UNL     1     149.968 171.785 194.132  0.00  0.00    +0.023 HD
ATOM     72  H   UNL     1     148.882 173.083 193.612  0.00  0.00    +0.023 HD
ENDBRANCH  67  69
BRANCH  67  73
ATOM     73  C   UNL     1     148.375 171.991 191.059  0.00  0.00    -0.046 C 
ATOM     74  H   UNL     1     149.265 172.118 190.427  0.00  0.00    +0.027 HD
ATOM     75  H   UNL     1     147.681 171.362 190.489  0.00  0.00    +0.027 HD
BRANCH  73  76
ATOM     76  C   UNL     1     147.774 173.380 191.299  0.00  0.00    -0.026 C 
ATOM     77  H   UNL     1     147.787 173.634 192.364  0.00  0.00    +0.029 HD
ATOM     78  H   UNL     1     148.392 174.143 190.806  0.00  0.00    +0.029 HD
BRANCH  76  83
ATOM     79  C   UNL     1     144.084 173.157 191.435  0.00  0.00    +0.059 C 
ATOM     80  C   UNL     1     143.778 173.376 189.950  0.00  0.00    -0.000 C 
ATOM     81  C   UNL     1     144.706 172.520 189.094  0.00  0.00    +0.063 C 
ATOM     82  C   UNL     1     146.171 172.885 189.371  0.00  0.00    -0.000 C 
ATOM     83  C   UNL     1     146.349 173.514 190.756  0.00  0.00    +0.061 C 
ATOM     84  O   UNL     1     145.467 172.868 191.680  0.00  0.00    -0.373 OA
ATOM     85  H   UNL     1     143.532 172.273 191.774  0.00  0.00    +0.059 HD
ATOM     86  H   UNL     1     142.727 173.150 189.733  0.00  0.00    +0.032 HD
ATOM     87  H   UNL     1     143.909 174.431 189.669  0.00  0.00    +0.032 HD
ATOM     88  H   UNL     1     144.531 171.464 189.343  0.00  0.00    +0.060 HD
ATOM     89  H   UNL     1     146.767 171.962 189.295  0.00  0.00    +0.032 HD
ATOM     90  H   UNL     1     146.569 173.562 188.603  0.00  0.00    +0.032 HD
ATOM     91  H   UNL     1     146.098 174.584 190.719  0.00  0.00    +0.060 HD
BRANCH  79  92
ATOM     92  C   UNL     1     143.651 174.339 192.291  0.00  0.00    -0.039 C 
ATOM     93  H   UNL     1     142.564 174.359 192.417  0.00  0.00    +0.025 HD
ATOM     94  H   UNL     1     144.120 174.279 193.278  0.00  0.00    +0.025 HD
ATOM     95  H   UNL     1     143.971 175.289 191.850  0.00  0.00    +0.025 HD
ENDBRANCH  79  92
BRANCH  81  96
ATOM     96  O   UNL     1     144.372 172.739 187.718  0.00  0.00    -0.380 OA
BRANCH  96  97
ATOM     97  C   UNL     1     145.514 172.952 186.897  0.00  0.00    +0.037 C 
ATOM     98  H   UNL     1     145.480 172.231 186.076  0.00  0.00    +0.052 HD
ATOM     99  H   UNL     1     146.434 172.788 187.466  0.00  0.00    +0.052 HD
ATOM    100  H   UNL     1     145.507 173.959 186.470  0.00  0.00    +0.052 HD
ENDBRANCH  96  97
ENDBRANCH  81  96
ENDBRANCH  76  83
ENDBRANCH  73  76
ENDBRANCH  67  73
ENDBRANCH  65  67
BRANCH  65 101
ATOM    101  O   UNL     1     150.543 170.217 191.044  0.00  0.00    -0.391 OA
ATOM    102  H   UNL     1     150.723 169.355 190.633  0.00  0.00    +0.210 HD
ENDBRANCH  65 101
ENDBRANCH  59  65
ENDBRANCH   1  59
BRANCH  19 103
ATOM    103  O   UNL     1     151.690 160.483 191.380  0.00  0.00    -0.385 OA
ATOM    104  H   UNL     1     150.718 160.506 191.391  0.00  0.00    +0.210 HD
ENDBRANCH  19 103
BRANCH  18 105
ATOM    105  O   UNL     1     151.876 161.028 187.753  0.00  0.00    -0.377 OA
BRANCH 105 106
ATOM    106  C   UNL     1     152.947 160.145 187.441  0.00  0.00    +0.037 C 
ATOM    107  H   UNL     1     153.494 159.880 188.352  0.00  0.00    +0.052 HD
ATOM    108  H   UNL     1     153.628 160.591 186.711  0.00  0.00    +0.052 HD
ATOM    109  H   UNL     1     152.527 159.232 187.011  0.00  0.00    +0.052 HD
ENDBRANCH 105 106
ENDBRANCH  18 105
BRANCH   9 110
ATOM    110  O   UNL     1     144.407 164.366 188.996  0.00  0.00    -0.377 OA
BRANCH 110 111
ATOM    111  C   UNL     1     143.321 163.481 188.737  0.00  0.00    +0.037 C 
ATOM    112  H   UNL     1     142.520 164.054 188.258  0.00  0.00    +0.052 HD
ATOM    113  H   UNL     1     142.931 163.068 189.671  0.00  0.00    +0.052 HD
ATOM    114  H   UNL     1     143.618 162.679 188.059  0.00  0.00    +0.052 HD
ENDBRANCH 110 111
ENDBRANCH   9 110
BRANCH   5 115
ATOM    115  O   UNL     1     144.659 165.673 186.255  0.00  0.00    -0.377 OA
BRANCH 115 116
ATOM    116  C   UNL     1     143.897 166.842 186.518  0.00  0.00    +0.037 C 
ATOM    117  H   UNL     1     144.523 167.709 186.305  0.00  0.00    +0.052 HD
ATOM    118  H   UNL     1     143.010 166.888 185.885  0.00  0.00    +0.052 HD
ATOM    119  H   UNL     1     143.606 166.877 187.573  0.00  0.00    +0.052 HD
ENDBRANCH 115 116
ENDBRANCH   5 115
BRANCH   3 120
ATOM    120  O   UNL     1     148.021 167.987 187.555  0.00  0.00    -0.379 OA
BRANCH 120 121
ATOM    121  C   UNL     1     149.122 167.388 186.888  0.00  0.00    +0.037 C 
ATOM    122  H   UNL     1     149.695 168.181 186.394  0.00  0.00    +0.052 HD
ATOM    123  H   UNL     1     148.784 166.680 186.124  0.00  0.00    +0.052 HD
ATOM    124  H   UNL     1     149.781 166.884 187.604  0.00  0.00    +0.052 HD
ENDBRANCH 120 121
ENDBRANCH   3 120
TORSDOF 23
ENDMDL
