MODEL 1
REMARK VINA RESULT:      -6.5      0.000      0.000
REMARK  Name = Mycalolide B_conf3
REMARK  35 active torsions:
REMARK  status: ('A' for Active; 'I' for Inactive)
REMARK    1  A    between atoms: C_1  and  C_2
REMARK    2  A    between atoms: C_3  and  O_72
REMARK    3  A    between atoms: C_22  and  O_70
REMARK    4  A    between atoms: C_23  and  C_69
REMARK    5  A    between atoms: C_29  and  O_68
REMARK    6  A    between atoms: C_34  and  C_35
REMARK    7  A    between atoms: C_35  and  C_36
REMARK    8  A    between atoms: C_36  and  C_37
REMARK    9  A    between atoms: C_36  and  O_66
REMARK   10  A    between atoms: C_37  and  C_38
REMARK   11  A    between atoms: C_37  and  C_39
REMARK   12  A    between atoms: C_39  and  C_40
REMARK   13  A    between atoms: C_40  and  C_41
REMARK   14  A    between atoms: C_41  and  C_42
REMARK   15  A    between atoms: C_41  and  O_57
REMARK   16  A    between atoms: C_42  and  C_43
REMARK   17  A    between atoms: C_42  and  C_44
REMARK   18  A    between atoms: C_44  and  C_45
REMARK   19  A    between atoms: C_44  and  O_53
REMARK   20  A    between atoms: C_45  and  C_46
REMARK   21  A    between atoms: C_45  and  C_47
REMARK   22  A    between atoms: C_48  and  N_49
REMARK   23  A    between atoms: N_49  and  C_50
REMARK   24  A    between atoms: O_53  and  C_54
REMARK   25  A    between atoms: C_54  and  C_56
REMARK   26  A    between atoms: O_57  and  C_58
REMARK   27  A    between atoms: C_58  and  C_60
REMARK   28  A    between atoms: C_60  and  C_61
REMARK   29  A    between atoms: C_60  and  O_64
REMARK   30  A    between atoms: C_61  and  O_62
REMARK   31  A    between atoms: O_62  and  C_63
REMARK   32  A    between atoms: O_64  and  C_65
REMARK   33  A    between atoms: O_66  and  C_67
REMARK   34  A    between atoms: O_70  and  C_71
REMARK   35  A    between atoms: O_72  and  C_73
REMARK                            x       y       z     vdW  Elec       q    Type
REMARK                         _______ _______ _______ _____ _____    ______ ____
ROOT
ATOM      1  C   UNL     1     151.172 164.937 188.163  0.00  0.00    +0.011 C 
ATOM      2  H   UNL     1     150.721 164.178 188.812  0.00  0.00    +0.033 HD
ATOM      3  H   UNL     1     150.472 165.142 187.346  0.00  0.00    +0.033 HD
ENDROOT
BRANCH   1  36
ATOM      4  C   UNL     1     152.644 162.848 187.707  0.00  0.00    +0.020 C 
ATOM      5  C   UNL     1     152.861 162.351 189.165  0.00  0.00    +0.068 C 
ATOM      6  C   UNL     1     154.003 163.057 189.941  0.00  0.00    -0.008 C 
ATOM      7  C   UNL     1     155.265 163.341 189.173  0.00  0.00    -0.077 C 
ATOM      8  C   UNL     1     156.069 162.424 188.613  0.00  0.00    -0.003 C 
ATOM      9  C   UNL     1     157.227 162.845 187.900  0.00  0.00    +0.220 A 
ATOM     10  N   UNL     1     157.401 164.031 187.327  0.00  0.00    -0.205 NA
ATOM     11  C   UNL     1     158.703 164.039 186.895  0.00  0.00    +0.164 A 
ATOM     12  C   UNL     1     159.286 162.833 187.162  0.00  0.00    +0.125 A 
ATOM     13  O   UNL     1     158.353 162.042 187.761  0.00  0.00    -0.443 OA
ATOM     14  C   UNL     1     159.392 165.270 186.245  0.00  0.00    +0.250 A 
ATOM     15  N   UNL     1     158.735 166.373 185.923  0.00  0.00    -0.203 NA
ATOM     16  C   UNL     1     159.712 167.233 185.486  0.00  0.00    +0.164 A 
ATOM     17  C   UNL     1     160.928 166.607 185.512  0.00  0.00    +0.125 A 
ATOM     18  O   UNL     1     160.739 165.337 185.974  0.00  0.00    -0.442 OA
ATOM     19  C   UNL     1     159.461 168.696 185.014  0.00  0.00    +0.249 A 
ATOM     20  N   UNL     1     158.254 169.219 184.882  0.00  0.00    -0.210 NA
ATOM     21  C   UNL     1     158.470 170.481 184.369  0.00  0.00    +0.109 A 
ATOM     22  C   UNL     1     159.821 170.701 184.289  0.00  0.00    +0.118 A 
ATOM     23  O   UNL     1     160.470 169.558 184.650  0.00  0.00    -0.442 OA
ATOM     24  C   UNL     1     157.328 171.381 183.995  0.00  0.00    +0.113 C 
ATOM     25  C   UNL     1     156.864 171.235 182.531  0.00  0.00    +0.051 C 
ATOM     26  C   UNL     1     155.811 170.150 182.388  0.00  0.00    +0.161 C 
ATOM     27  O   UNL     1     154.634 170.452 182.179  0.00  0.00    -0.292 OA
ATOM     28  C   UNL     1     156.208 168.721 182.537  0.00  0.00    -0.023 C 
ATOM     29  C   UNL     1     155.277 167.756 182.589  0.00  0.00    -0.078 C 
ATOM     30  C   UNL     1     155.593 166.314 182.879  0.00  0.00    -0.008 C 
ATOM     31  C   UNL     1     155.085 165.872 184.260  0.00  0.00    +0.069 C 
ATOM     32  C   UNL     1     153.562 165.766 184.320  0.00  0.00    +0.071 C 
ATOM     33  C   UNL     1     153.151 165.814 185.763  0.00  0.00    +0.310 C 
ATOM     34  O   UNL     1     153.376 166.777 186.484  0.00  0.00    -0.251 OA
ATOM     35  O   UNL     1     152.551 164.660 186.146  0.00  0.00    -0.461 OA
ATOM     36  C   UNL     1     152.487 164.387 187.571  0.00  0.00    +0.110 C 
ATOM     37  H   UNL     1     153.523 162.547 187.114  0.00  0.00    +0.036 HD
ATOM     38  H   UNL     1     151.929 162.498 189.725  0.00  0.00    +0.060 HD
ATOM     39  H   UNL     1     153.622 164.014 190.309  0.00  0.00    +0.033 HD
ATOM     40  H   UNL     1     154.273 162.483 190.835  0.00  0.00    +0.033 HD
ATOM     41  H   UNL     1     155.517 164.400 189.070  0.00  0.00    +0.057 HD
ATOM     42  H   UNL     1     155.875 161.364 188.707  0.00  0.00    +0.067 HD
ATOM     43  H   UNL     1     160.259 162.394 187.002  0.00  0.00    +0.105 HD
ATOM     44  H   UNL     1     161.944 166.890 185.265  0.00  0.00    +0.105 HD
ATOM     45  H   UNL     1     160.434 171.531 183.963  0.00  0.00    +0.105 HD
ATOM     46  H   UNL     1     156.498 171.125 184.668  0.00  0.00    +0.067 HD
ATOM     47  H   UNL     1     156.340 172.165 182.262  0.00  0.00    +0.041 HD
ATOM     48  H   UNL     1     157.258 168.493 182.672  0.00  0.00    +0.065 HD
ATOM     49  H   UNL     1     154.229 168.016 182.453  0.00  0.00    +0.057 HD
ATOM     50  H   UNL     1     155.162 165.679 182.095  0.00  0.00    +0.033 HD
ATOM     51  H   UNL     1     156.677 166.144 182.830  0.00  0.00    +0.033 HD
ATOM     52  H   UNL     1     155.466 166.563 185.022  0.00  0.00    +0.060 HD
ATOM     53  H   UNL     1     153.051 166.604 183.830  0.00  0.00    +0.040 HD
ATOM     54  H   UNL     1     153.203 164.839 183.855  0.00  0.00    +0.040 HD
ATOM     55  H   UNL     1     153.359 164.849 188.035  0.00  0.00    +0.074 HD
BRANCH   4  56
ATOM     56  C   UNL     1     151.470 162.103 187.045  0.00  0.00    -0.057 C 
ATOM     57  H   UNL     1     151.649 161.957 185.975  0.00  0.00    +0.023 HD
ATOM     58  H   UNL     1     150.536 162.656 187.158  0.00  0.00    +0.023 HD
ATOM     59  H   UNL     1     151.330 161.110 187.484  0.00  0.00    +0.023 HD
ENDBRANCH   4  56
BRANCH  25  60
ATOM     60  C   UNL     1     157.976 171.106 181.491  0.00  0.00    -0.053 C 
ATOM     61  H   UNL     1     158.946 171.452 181.862  0.00  0.00    +0.024 HD
ATOM     62  H   UNL     1     157.727 171.671 180.585  0.00  0.00    +0.024 HD
ATOM     63  H   UNL     1     158.101 170.053 181.206  0.00  0.00    +0.024 HD
ENDBRANCH  25  60
BRANCH  31  64
ATOM     64  O   UNL     1     155.627 164.579 184.547  0.00  0.00    -0.391 OA
ATOM     65  H   UNL     1     156.584 164.621 184.337  0.00  0.00    +0.210 HD
ENDBRANCH  31  64
BRANCH  24  66
ATOM     66  O   UNL     1     157.703 172.754 184.225  0.00  0.00    -0.373 OA
BRANCH  66  67
ATOM     67  C   UNL     1     156.608 173.646 184.045  0.00  0.00    +0.037 C 
ATOM     68  H   UNL     1     156.565 174.010 183.014  0.00  0.00    +0.052 HD
ATOM     69  H   UNL     1     155.666 173.152 184.306  0.00  0.00    +0.052 HD
ATOM     70  H   UNL     1     156.748 174.501 184.711  0.00  0.00    +0.052 HD
ENDBRANCH  66  67
ENDBRANCH  24  66
BRANCH   5  71
ATOM     71  O   UNL     1     153.134 160.934 189.115  0.00  0.00    -0.379 OA
BRANCH  71  72
ATOM     72  C   UNL     1     152.442 160.204 190.120  0.00  0.00    +0.037 C 
ATOM     73  H   UNL     1     151.969 159.306 189.712  0.00  0.00    +0.052 HD
ATOM     74  H   UNL     1     151.662 160.852 190.532  0.00  0.00    +0.052 HD
ATOM     75  H   UNL     1     153.128 159.930 190.929  0.00  0.00    +0.052 HD
ENDBRANCH  71  72
ENDBRANCH   5  71
ENDBRANCH   1  36
BRANCH   1  76
ATOM     76  C   UNL     1     151.354 166.201 189.019  0.00  0.00    +0.064 C 
ATOM     77  H   UNL     1     152.241 166.750 188.686  0.00  0.00    +0.060 HD
BRANCH  76  78
ATOM     78  C   UNL     1     150.124 167.150 188.979  0.00  0.00    -0.017 C 
ATOM     79  H   UNL     1     150.494 168.167 189.108  0.00  0.00    +0.032 HD
BRANCH  78  80
ATOM     80  C   UNL     1     149.488 167.078 187.570  0.00  0.00    -0.060 C 
ATOM     81  H   UNL     1     149.534 166.057 187.172  0.00  0.00    +0.023 HD
ATOM     82  H   UNL     1     148.432 167.361 187.591  0.00  0.00    +0.023 HD
ATOM     83  H   UNL     1     150.012 167.737 186.871  0.00  0.00    +0.023 HD
ENDBRANCH  78  80
BRANCH  78  84
ATOM     84  C   UNL     1     148.997 166.872 189.988  0.00  0.00    -0.045 C 
ATOM     85  H   UNL     1     148.333 166.104 189.562  0.00  0.00    +0.027 HD
ATOM     86  H   UNL     1     149.429 166.401 190.887  0.00  0.00    +0.027 HD
BRANCH  84  87
ATOM     87  C   UNL     1     148.062 168.006 190.439  0.00  0.00    -0.015 C 
ATOM     88  H   UNL     1     148.023 168.674 189.571  0.00  0.00    +0.030 HD
ATOM     89  H   UNL     1     147.039 167.627 190.551  0.00  0.00    +0.030 HD
BRANCH  87  90
ATOM     90  C   UNL     1     148.417 168.858 191.681  0.00  0.00    +0.109 C 
ATOM     91  H   UNL     1     147.470 169.160 192.145  0.00  0.00    +0.074 HD
BRANCH  90  92
ATOM     92  C   UNL     1     149.249 170.129 191.280  0.00  0.00    +0.031 C 
ATOM     93  H   UNL     1     149.511 170.026 190.220  0.00  0.00    +0.037 HD
BRANCH  92  94
ATOM     94  C   UNL     1     150.615 170.178 191.992  0.00  0.00    -0.056 C 
ATOM     95  H   UNL     1     150.509 170.028 193.067  0.00  0.00    +0.023 HD
ATOM     96  H   UNL     1     151.127 171.126 191.811  0.00  0.00    +0.023 HD
ATOM     97  H   UNL     1     151.268 169.370 191.636  0.00  0.00    +0.023 HD
ENDBRANCH  92  94
BRANCH  92  98
ATOM     98  C   UNL     1     148.552 171.510 191.511  0.00  0.00    +0.115 C 
ATOM     99  H   UNL     1     149.281 172.306 191.299  0.00  0.00    +0.074 HD
BRANCH  98 100
ATOM    100  C   UNL     1     147.346 171.826 190.576  0.00  0.00    +0.013 C 
ATOM    101  H   UNL     1     147.442 171.265 189.644  0.00  0.00    +0.038 HD
BRANCH 100 102
ATOM    102  C   UNL     1     147.260 173.321 190.235  0.00  0.00    -0.056 C 
ATOM    103  H   UNL     1     148.047 173.620 189.530  0.00  0.00    +0.024 HD
ATOM    104  H   UNL     1     146.291 173.572 189.777  0.00  0.00    +0.024 HD
ATOM    105  H   UNL     1     147.379 173.941 191.128  0.00  0.00    +0.024 HD
ENDBRANCH 100 102
BRANCH 100 106
ATOM    106  C   UNL     1     146.032 171.420 191.225  0.00  0.00    -0.064 C 
ATOM    107  C   UNL     1     144.916 171.156 190.529  0.00  0.00    -0.005 C 
ATOM    108  H   UNL     1     146.037 171.369 192.311  0.00  0.00    +0.059 HD
ATOM    109  H   UNL     1     144.951 171.254 189.445  0.00  0.00    +0.078 HD
BRANCH 107 110
ATOM    110  N   UNL     1     143.678 170.789 191.031  0.00  0.00    -0.284 N 
ATOM    111  C   UNL     1     143.304 169.494 191.391  0.00  0.00    +0.206 C 
ATOM    112  O   UNL     1     143.963 168.461 191.347  0.00  0.00    -0.279 OA
ATOM    113  H   UNL     1     142.263 169.452 191.753  0.00  0.00    +0.126 HD
BRANCH 110 114
ATOM    114  C   UNL     1     142.690 171.855 191.186  0.00  0.00    +0.007 C 
ATOM    115  H   UNL     1     143.182 172.821 191.023  0.00  0.00    +0.043 HD
ATOM    116  H   UNL     1     142.248 171.858 192.188  0.00  0.00    +0.043 HD
ATOM    117  H   UNL     1     141.893 171.719 190.451  0.00  0.00    +0.043 HD
ENDBRANCH 110 114
ENDBRANCH 107 110
ENDBRANCH 100 106
ENDBRANCH  98 100
BRANCH  98 118
ATOM    118  O   UNL     1     148.107 171.612 192.884  0.00  0.00    -0.461 OA
BRANCH 118 119
ATOM    119  C   UNL     1     148.547 172.700 193.582  0.00  0.00    +0.304 C 
ATOM    120  O   UNL     1     149.700 172.913 193.925  0.00  0.00    -0.251 OA
BRANCH 119 121
ATOM    121  C   UNL     1     147.401 173.606 193.914  0.00  0.00    +0.033 C 
ATOM    122  H   UNL     1     147.468 174.511 193.306  0.00  0.00    +0.034 HD
ATOM    123  H   UNL     1     147.415 173.851 194.979  0.00  0.00    +0.034 HD
ATOM    124  H   UNL     1     146.459 173.093 193.702  0.00  0.00    +0.034 HD
ENDBRANCH 119 121
ENDBRANCH 118 119
ENDBRANCH  98 118
ENDBRANCH  92  98
ENDBRANCH  90  92
BRANCH  90 125
ATOM    125  O   UNL     1     149.163 168.040 192.619  0.00  0.00    -0.459 OA
BRANCH 125 126
ATOM    126  C   UNL     1     148.419 167.320 193.525  0.00  0.00    +0.339 C 
ATOM    127  O   UNL     1     147.312 167.659 193.923  0.00  0.00    -0.248 OA
BRANCH 126 128
ATOM    128  C   UNL     1     149.159 166.079 194.053  0.00  0.00    +0.178 C 
ATOM    129  H   UNL     1     150.194 166.154 193.682  0.00  0.00    +0.074 HD
BRANCH 128 130
ATOM    130  C   UNL     1     149.191 166.121 195.582  0.00  0.00    +0.084 C 
ATOM    131  H   UNL     1     149.794 166.966 195.921  0.00  0.00    +0.059 HD
ATOM    132  H   UNL     1     148.176 166.290 195.962  0.00  0.00    +0.059 HD
BRANCH 130 133
ATOM    133  O   UNL     1     149.697 164.904 196.124  0.00  0.00    -0.380 OA
BRANCH 133 134
ATOM    134  C   UNL     1     151.116 164.851 196.058  0.00  0.00    +0.037 C 
ATOM    135  H   UNL     1     151.536 164.799 197.067  0.00  0.00    +0.052 HD
ATOM    136  H   UNL     1     151.403 163.948 195.513  0.00  0.00    +0.052 HD
ATOM    137  H   UNL     1     151.518 165.723 195.532  0.00  0.00    +0.052 HD
ENDBRANCH 133 134
ENDBRANCH 130 133
ENDBRANCH 128 130
BRANCH 128 138
ATOM    138  O   UNL     1     148.607 164.818 193.665  0.00  0.00    -0.366 OA
BRANCH 138 139
ATOM    139  C   UNL     1     149.339 164.210 192.611  0.00  0.00    +0.038 C 
ATOM    140  H   UNL     1     149.076 163.149 192.579  0.00  0.00    +0.052 HD
ATOM    141  H   UNL     1     150.416 164.290 192.797  0.00  0.00    +0.052 HD
ATOM    142  H   UNL     1     149.090 164.660 191.646  0.00  0.00    +0.052 HD
ENDBRANCH 138 139
ENDBRANCH 128 138
ENDBRANCH 126 128
ENDBRANCH 125 126
ENDBRANCH  90 125
ENDBRANCH  87  90
ENDBRANCH  84  87
ENDBRANCH  78  84
ENDBRANCH  76  78
BRANCH  76 143
ATOM    143  O   UNL     1     151.483 165.774 190.388  0.00  0.00    -0.379 OA
BRANCH 143 144
ATOM    144  C   UNL     1     152.407 166.544 191.148  0.00  0.00    +0.037 C 
ATOM    145  H   UNL     1     151.839 167.250 191.763  0.00  0.00    +0.052 HD
ATOM    146  H   UNL     1     153.092 167.112 190.509  0.00  0.00    +0.052 HD
ATOM    147  H   UNL     1     152.973 165.899 191.823  0.00  0.00    +0.052 HD
ENDBRANCH 143 144
ENDBRANCH  76 143
ENDBRANCH   1  76
TORSDOF 35
ENDMDL
MODEL 2
REMARK VINA RESULT:      -6.2      2.181      4.627
REMARK  Name = Mycalolide B_conf3
REMARK  35 active torsions:
REMARK  status: ('A' for Active; 'I' for Inactive)
REMARK    1  A    between atoms: C_1  and  C_2
REMARK    2  A    between atoms: C_3  and  O_72
REMARK    3  A    between atoms: C_22  and  O_70
REMARK    4  A    between atoms: C_23  and  C_69
REMARK    5  A    between atoms: C_29  and  O_68
REMARK    6  A    between atoms: C_34  and  C_35
REMARK    7  A    between atoms: C_35  and  C_36
REMARK    8  A    between atoms: C_36  and  C_37
REMARK    9  A    between atoms: C_36  and  O_66
REMARK   10  A    between atoms: C_37  and  C_38
REMARK   11  A    between atoms: C_37  and  C_39
REMARK   12  A    between atoms: C_39  and  C_40
REMARK   13  A    between atoms: C_40  and  C_41
REMARK   14  A    between atoms: C_41  and  C_42
REMARK   15  A    between atoms: C_41  and  O_57
REMARK   16  A    between atoms: C_42  and  C_43
REMARK   17  A    between atoms: C_42  and  C_44
REMARK   18  A    between atoms: C_44  and  C_45
REMARK   19  A    between atoms: C_44  and  O_53
REMARK   20  A    between atoms: C_45  and  C_46
REMARK   21  A    between atoms: C_45  and  C_47
REMARK   22  A    between atoms: C_48  and  N_49
REMARK   23  A    between atoms: N_49  and  C_50
REMARK   24  A    between atoms: O_53  and  C_54
REMARK   25  A    between atoms: C_54  and  C_56
REMARK   26  A    between atoms: O_57  and  C_58
REMARK   27  A    between atoms: C_58  and  C_60
REMARK   28  A    between atoms: C_60  and  C_61
REMARK   29  A    between atoms: C_60  and  O_64
REMARK   30  A    between atoms: C_61  and  O_62
REMARK   31  A    between atoms: O_62  and  C_63
REMARK   32  A    between atoms: O_64  and  C_65
REMARK   33  A    between atoms: O_66  and  C_67
REMARK   34  A    between atoms: O_70  and  C_71
REMARK   35  A    between atoms: O_72  and  C_73
REMARK                            x       y       z     vdW  Elec       q    Type
REMARK                         _______ _______ _______ _____ _____    ______ ____
ROOT
ATOM      1  C   UNL     1     153.176 164.850 187.799  0.00  0.00    +0.011 C 
ATOM      2  H   UNL     1     152.655 163.914 188.033  0.00  0.00    +0.033 HD
ATOM      3  H   UNL     1     152.506 165.465 187.188  0.00  0.00    +0.033 HD
ENDROOT
BRANCH   1  36
ATOM      4  C   UNL     1     154.805 163.026 186.928  0.00  0.00    +0.020 C 
ATOM      5  C   UNL     1     155.280 162.425 188.282  0.00  0.00    +0.068 C 
ATOM      6  C   UNL     1     156.429 163.198 188.981  0.00  0.00    -0.008 C 
ATOM      7  C   UNL     1     157.529 163.718 188.097  0.00  0.00    -0.077 C 
ATOM      8  C   UNL     1     158.348 162.972 187.340  0.00  0.00    -0.003 C 
ATOM      9  C   UNL     1     159.337 163.607 186.537  0.00  0.00    +0.220 A 
ATOM     10  N   UNL     1     159.289 164.856 186.083  0.00  0.00    -0.205 NA
ATOM     11  C   UNL     1     160.508 165.076 185.494  0.00  0.00    +0.164 A 
ATOM     12  C   UNL     1     161.261 163.937 185.547  0.00  0.00    +0.125 A 
ATOM     13  O   UNL     1     160.520 162.977 186.167  0.00  0.00    -0.443 OA
ATOM     14  C   UNL     1     160.950 166.444 184.903  0.00  0.00    +0.250 A 
ATOM     15  N   UNL     1     160.129 167.476 184.793  0.00  0.00    -0.203 NA
ATOM     16  C   UNL     1     160.927 168.495 184.335  0.00  0.00    +0.164 A 
ATOM     17  C   UNL     1     162.200 168.034 184.136  0.00  0.00    +0.125 A 
ATOM     18  O   UNL     1     162.229 166.713 184.473  0.00  0.00    -0.442 OA
ATOM     19  C   UNL     1     160.442 169.950 184.066  0.00  0.00    +0.249 A 
ATOM     20  N   UNL     1     159.175 170.320 184.148  0.00  0.00    -0.210 NA
ATOM     21  C   UNL     1     159.168 171.642 183.757  0.00  0.00    +0.109 A 
ATOM     22  C   UNL     1     160.460 172.045 183.531  0.00  0.00    +0.118 A 
ATOM     23  O   UNL     1     161.282 170.968 183.676  0.00  0.00    -0.442 OA
ATOM     24  C   UNL     1     157.887 172.416 183.634  0.00  0.00    +0.113 C 
ATOM     25  C   UNL     1     157.243 172.351 182.233  0.00  0.00    +0.051 C 
ATOM     26  C   UNL     1     156.315 171.155 182.104  0.00  0.00    +0.161 C 
ATOM     27  O   UNL     1     155.093 171.318 182.082  0.00  0.00    -0.292 OA
ATOM     28  C   UNL     1     156.895 169.783 182.040  0.00  0.00    -0.023 C 
ATOM     29  C   UNL     1     156.100 168.703 182.102  0.00  0.00    -0.078 C 
ATOM     30  C   UNL     1     156.621 167.295 182.185  0.00  0.00    -0.008 C 
ATOM     31  C   UNL     1     156.367 166.659 183.561  0.00  0.00    +0.069 C 
ATOM     32  C   UNL     1     154.891 166.349 183.801  0.00  0.00    +0.071 C 
ATOM     33  C   UNL     1     154.682 166.205 185.281  0.00  0.00    +0.310 C 
ATOM     34  O   UNL     1     154.891 167.115 186.071  0.00  0.00    -0.251 OA
ATOM     35  O   UNL     1     154.281 164.951 185.605  0.00  0.00    -0.461 OA
ATOM     36  C   UNL     1     154.450 164.537 186.987  0.00  0.00    +0.110 C 
ATOM     37  H   UNL     1     155.622 162.902 186.199  0.00  0.00    +0.036 HD
ATOM     38  H   UNL     1     154.425 162.393 188.969  0.00  0.00    +0.060 HD
ATOM     39  H   UNL     1     155.993 164.057 189.500  0.00  0.00    +0.033 HD
ATOM     40  H   UNL     1     156.887 162.582 189.763  0.00  0.00    +0.033 HD
ATOM     41  H   UNL     1     157.638 164.805 188.082  0.00  0.00    +0.057 HD
ATOM     42  H   UNL     1     158.296 161.891 187.338  0.00  0.00    +0.067 HD
ATOM     43  H   UNL     1     162.246 163.647 185.217  0.00  0.00    +0.105 HD
ATOM     44  H   UNL     1     163.131 168.471 183.796  0.00  0.00    +0.105 HD
ATOM     45  H   UNL     1     160.919 172.976 183.225  0.00  0.00    +0.105 HD
ATOM     46  H   UNL     1     157.195 171.990 184.373  0.00  0.00    +0.067 HD
ATOM     47  H   UNL     1     156.581 173.225 182.139  0.00  0.00    +0.041 HD
ATOM     48  H   UNL     1     157.972 169.684 182.015  0.00  0.00    +0.065 HD
ATOM     49  H   UNL     1     155.020 168.835 182.129  0.00  0.00    +0.057 HD
ATOM     50  H   UNL     1     156.163 166.687 181.396  0.00  0.00    +0.033 HD
ATOM     51  H   UNL     1     157.700 167.274 181.980  0.00  0.00    +0.033 HD
ATOM     52  H   UNL     1     156.767 167.319 184.342  0.00  0.00    +0.060 HD
ATOM     53  H   UNL     1     154.221 167.156 183.477  0.00  0.00    +0.040 HD
ATOM     54  H   UNL     1     154.581 165.431 183.285  0.00  0.00    +0.040 HD
ATOM     55  H   UNL     1     155.318 165.064 187.386  0.00  0.00    +0.074 HD
BRANCH   4  56
ATOM     56  C   UNL     1     153.645 162.199 186.341  0.00  0.00    -0.057 C 
ATOM     57  H   UNL     1     153.017 161.784 187.134  0.00  0.00    +0.023 HD
ATOM     58  H   UNL     1     154.016 161.370 185.736  0.00  0.00    +0.023 HD
ATOM     59  H   UNL     1     152.997 162.815 185.710  0.00  0.00    +0.023 HD
ENDBRANCH   4  56
BRANCH  25  60
ATOM     60  C   UNL     1     158.206 172.469 181.052  0.00  0.00    -0.053 C 
ATOM     61  H   UNL     1     157.774 173.011 180.205  0.00  0.00    +0.024 HD
ATOM     62  H   UNL     1     158.521 171.478 180.708  0.00  0.00    +0.024 HD
ATOM     63  H   UNL     1     159.105 173.020 181.357  0.00  0.00    +0.024 HD
ENDBRANCH  25  60
BRANCH  31  64
ATOM     64  O   UNL     1     157.092 165.428 183.630  0.00  0.00    -0.391 OA
ATOM     65  H   UNL     1     156.572 164.765 183.127  0.00  0.00    +0.210 HD
ENDBRANCH  31  64
BRANCH  24  66
ATOM     66  O   UNL     1     158.126 173.799 183.967  0.00  0.00    -0.373 OA
BRANCH  66  67
ATOM     67  C   UNL     1     156.979 174.610 183.741  0.00  0.00    +0.037 C 
ATOM     68  H   UNL     1     157.216 175.670 183.875  0.00  0.00    +0.052 HD
ATOM     69  H   UNL     1     156.584 174.440 182.733  0.00  0.00    +0.052 HD
ATOM     70  H   UNL     1     156.212 174.330 184.467  0.00  0.00    +0.052 HD
ENDBRANCH  66  67
ENDBRANCH  24  66
BRANCH   5  71
ATOM     71  O   UNL     1     155.709 161.067 188.039  0.00  0.00    -0.379 OA
BRANCH  71  72
ATOM     72  C   UNL     1     156.263 160.450 189.194  0.00  0.00    +0.037 C 
ATOM     73  H   UNL     1     156.367 161.161 190.019  0.00  0.00    +0.052 HD
ATOM     74  H   UNL     1     157.257 160.072 188.932  0.00  0.00    +0.052 HD
ATOM     75  H   UNL     1     155.642 159.603 189.506  0.00  0.00    +0.052 HD
ENDBRANCH  71  72
ENDBRANCH   5  71
ENDBRANCH   1  36
BRANCH   1  76
ATOM     76  C   UNL     1     153.447 165.553 189.139  0.00  0.00    +0.064 C 
ATOM     77  H   UNL     1     154.521 165.733 189.253  0.00  0.00    +0.060 HD
BRANCH  76  78
ATOM     78  C   UNL     1     152.688 166.901 189.287  0.00  0.00    -0.017 C 
ATOM     79  H   UNL     1     153.424 167.661 189.553  0.00  0.00    +0.032 HD
BRANCH  78  80
ATOM     80  C   UNL     1     152.109 167.298 187.908  0.00  0.00    -0.060 C 
ATOM     81  H   UNL     1     151.015 167.359 187.946  0.00  0.00    +0.023 HD
ATOM     82  H   UNL     1     152.468 168.281 187.590  0.00  0.00    +0.023 HD
ATOM     83  H   UNL     1     152.381 166.563 187.144  0.00  0.00    +0.023 HD
ENDBRANCH  78  80
BRANCH  78  84
ATOM     84  C   UNL     1     151.519 166.935 190.286  0.00  0.00    -0.045 C 
ATOM     85  H   UNL     1     150.660 167.421 189.796  0.00  0.00    +0.027 HD
ATOM     86  H   UNL     1     151.182 165.903 190.480  0.00  0.00    +0.027 HD
BRANCH  84  87
ATOM     87  C   UNL     1     151.671 167.655 191.636  0.00  0.00    -0.015 C 
ATOM     88  H   UNL     1     152.178 166.919 192.270  0.00  0.00    +0.030 HD
ATOM     89  H   UNL     1     152.382 168.484 191.541  0.00  0.00    +0.030 HD
BRANCH  87  90
ATOM     90  C   UNL     1     150.418 168.157 192.394  0.00  0.00    +0.109 C 
ATOM     91  H   UNL     1     150.735 168.396 193.417  0.00  0.00    +0.074 HD
BRANCH  90  92
ATOM     92  C   UNL     1     149.294 167.059 192.422  0.00  0.00    +0.031 C 
ATOM     93  H   UNL     1     149.334 166.526 191.465  0.00  0.00    +0.037 HD
BRANCH  92  94
ATOM     94  C   UNL     1     147.882 167.675 192.439  0.00  0.00    -0.056 C 
ATOM     95  H   UNL     1     147.305 167.375 191.564  0.00  0.00    +0.023 HD
ATOM     96  H   UNL     1     147.921 168.766 192.485  0.00  0.00    +0.023 HD
ATOM     97  H   UNL     1     147.314 167.322 193.310  0.00  0.00    +0.023 HD
ENDBRANCH  92  94
BRANCH  92  98
ATOM     98  C   UNL     1     149.368 166.027 193.595  0.00  0.00    +0.115 C 
ATOM     99  H   UNL     1     148.358 165.905 194.012  0.00  0.00    +0.074 HD
BRANCH  98 100
ATOM    100  C   UNL     1     149.805 164.584 193.202  0.00  0.00    +0.013 C 
ATOM    101  H   UNL     1     149.338 163.858 193.871  0.00  0.00    +0.038 HD
BRANCH 100 102
ATOM    102  C   UNL     1     151.328 164.404 193.281  0.00  0.00    -0.056 C 
ATOM    103  H   UNL     1     151.858 165.201 192.741  0.00  0.00    +0.024 HD
ATOM    104  H   UNL     1     151.680 164.419 194.323  0.00  0.00    +0.024 HD
ATOM    105  H   UNL     1     151.641 163.455 192.835  0.00  0.00    +0.024 HD
ENDBRANCH 100 102
BRANCH 100 106
ATOM    106  C   UNL     1     149.370 164.250 191.784  0.00  0.00    -0.064 C 
ATOM    107  C   UNL     1     148.746 163.110 191.453  0.00  0.00    -0.005 C 
ATOM    108  H   UNL     1     149.612 164.994 191.028  0.00  0.00    +0.059 HD
ATOM    109  H   UNL     1     148.557 162.381 192.239  0.00  0.00    +0.078 HD
BRANCH 107 110
ATOM    110  N   UNL     1     148.321 162.717 190.194  0.00  0.00    -0.284 N 
ATOM    111  C   UNL     1     147.216 163.234 189.516  0.00  0.00    +0.206 C 
ATOM    112  O   UNL     1     146.431 164.106 189.874  0.00  0.00    -0.279 OA
ATOM    113  H   UNL     1     147.073 162.753 188.534  0.00  0.00    +0.126 HD
BRANCH 110 114
ATOM    114  C   UNL     1     149.101 161.673 189.534  0.00  0.00    +0.007 C 
ATOM    115  H   UNL     1     149.321 161.988 188.507  0.00  0.00    +0.043 HD
ATOM    116  H   UNL     1     148.559 160.722 189.494  0.00  0.00    +0.043 HD
ATOM    117  H   UNL     1     150.037 161.521 190.080  0.00  0.00    +0.043 HD
ENDBRANCH 110 114
ENDBRANCH 107 110
ENDBRANCH 100 106
ENDBRANCH  98 100
BRANCH  98 118
ATOM    118  O   UNL     1     150.262 166.514 194.623  0.00  0.00    -0.461 OA
BRANCH 118 119
ATOM    119  C   UNL     1     149.885 166.278 195.913  0.00  0.00    +0.304 C 
ATOM    120  O   UNL     1     150.638 166.073 196.854  0.00  0.00    -0.251 OA
BRANCH 119 121
ATOM    121  C   UNL     1     148.391 166.267 196.027  0.00  0.00    +0.033 C 
ATOM    122  H   UNL     1     147.982 167.137 195.508  0.00  0.00    +0.034 HD
ATOM    123  H   UNL     1     148.098 166.269 197.080  0.00  0.00    +0.034 HD
ATOM    124  H   UNL     1     148.000 165.353 195.573  0.00  0.00    +0.034 HD
ENDBRANCH 119 121
ENDBRANCH 118 119
ENDBRANCH  98 118
ENDBRANCH  92  98
ENDBRANCH  90  92
BRANCH  90 125
ATOM    125  O   UNL     1     149.930 169.365 191.756  0.00  0.00    -0.459 OA
BRANCH 125 126
ATOM    126  C   UNL     1     150.564 170.535 192.103  0.00  0.00    +0.339 C 
ATOM    127  O   UNL     1     151.756 170.613 192.374  0.00  0.00    -0.248 OA
BRANCH 126 128
ATOM    128  C   UNL     1     149.601 171.731 192.194  0.00  0.00    +0.178 C 
ATOM    129  H   UNL     1     149.878 172.416 191.377  0.00  0.00    +0.074 HD
BRANCH 128 130
ATOM    130  C   UNL     1     148.170 171.247 191.953  0.00  0.00    +0.084 C 
ATOM    131  H   UNL     1     148.111 170.165 192.094  0.00  0.00    +0.059 HD
ATOM    132  H   UNL     1     147.503 171.695 192.700  0.00  0.00    +0.059 HD
BRANCH 130 133
ATOM    133  O   UNL     1     147.716 171.599 190.649  0.00  0.00    -0.380 OA
BRANCH 133 134
ATOM    134  C   UNL     1     147.081 170.506 190.002  0.00  0.00    +0.037 C 
ATOM    135  H   UNL     1     147.678 170.180 189.144  0.00  0.00    +0.052 HD
ATOM    136  H   UNL     1     147.009 169.678 190.712  0.00  0.00    +0.052 HD
ATOM    137  H   UNL     1     146.072 170.775 189.671  0.00  0.00    +0.052 HD
ENDBRANCH 133 134
ENDBRANCH 130 133
ENDBRANCH 128 130
BRANCH 128 138
ATOM    138  O   UNL     1     149.615 172.444 193.434  0.00  0.00    -0.366 OA
BRANCH 138 139
ATOM    139  C   UNL     1     148.458 173.249 193.606  0.00  0.00    +0.038 C 
ATOM    140  H   UNL     1     148.757 174.299 193.529  0.00  0.00    +0.052 HD
ATOM    141  H   UNL     1     148.024 173.088 194.598  0.00  0.00    +0.052 HD
ATOM    142  H   UNL     1     147.714 173.042 192.832  0.00  0.00    +0.052 HD
ENDBRANCH 138 139
ENDBRANCH 128 138
ENDBRANCH 126 128
ENDBRANCH 125 126
ENDBRANCH  90 125
ENDBRANCH  87  90
ENDBRANCH  84  87
ENDBRANCH  78  84
ENDBRANCH  76  78
BRANCH  76 143
ATOM    143  O   UNL     1     152.944 164.696 190.181  0.00  0.00    -0.379 OA
BRANCH 143 144
ATOM    144  C   UNL     1     152.277 163.535 189.701  0.00  0.00    +0.037 C 
ATOM    145  H   UNL     1     152.449 163.464 188.621  0.00  0.00    +0.052 HD
ATOM    146  H   UNL     1     151.197 163.578 189.878  0.00  0.00    +0.052 HD
ATOM    147  H   UNL     1     152.697 162.639 190.161  0.00  0.00    +0.052 HD
ENDBRANCH 143 144
ENDBRANCH  76 143
ENDBRANCH   1  76
TORSDOF 35
ENDMDL
MODEL 3
REMARK VINA RESULT:      -6.1      1.536      3.670
REMARK  Name = Mycalolide B_conf3
REMARK  35 active torsions:
REMARK  status: ('A' for Active; 'I' for Inactive)
REMARK    1  A    between atoms: C_1  and  C_2
REMARK    2  A    between atoms: C_3  and  O_72
REMARK    3  A    between atoms: C_22  and  O_70
REMARK    4  A    between atoms: C_23  and  C_69
REMARK    5  A    between atoms: C_29  and  O_68
REMARK    6  A    between atoms: C_34  and  C_35
REMARK    7  A    between atoms: C_35  and  C_36
REMARK    8  A    between atoms: C_36  and  C_37
REMARK    9  A    between atoms: C_36  and  O_66
REMARK   10  A    between atoms: C_37  and  C_38
REMARK   11  A    between atoms: C_37  and  C_39
REMARK   12  A    between atoms: C_39  and  C_40
REMARK   13  A    between atoms: C_40  and  C_41
REMARK   14  A    between atoms: C_41  and  C_42
REMARK   15  A    between atoms: C_41  and  O_57
REMARK   16  A    between atoms: C_42  and  C_43
REMARK   17  A    between atoms: C_42  and  C_44
REMARK   18  A    between atoms: C_44  and  C_45
REMARK   19  A    between atoms: C_44  and  O_53
REMARK   20  A    between atoms: C_45  and  C_46
REMARK   21  A    between atoms: C_45  and  C_47
REMARK   22  A    between atoms: C_48  and  N_49
REMARK   23  A    between atoms: N_49  and  C_50
REMARK   24  A    between atoms: O_53  and  C_54
REMARK   25  A    between atoms: C_54  and  C_56
REMARK   26  A    between atoms: O_57  and  C_58
REMARK   27  A    between atoms: C_58  and  C_60
REMARK   28  A    between atoms: C_60  and  C_61
REMARK   29  A    between atoms: C_60  and  O_64
REMARK   30  A    between atoms: C_61  and  O_62
REMARK   31  A    between atoms: O_62  and  C_63
REMARK   32  A    between atoms: O_64  and  C_65
REMARK   33  A    between atoms: O_66  and  C_67
REMARK   34  A    between atoms: O_70  and  C_71
REMARK   35  A    between atoms: O_72  and  C_73
REMARK                            x       y       z     vdW  Elec       q    Type
REMARK                         _______ _______ _______ _____ _____    ______ ____
ROOT
ATOM      1  C   UNL     1     151.276 164.521 187.918  0.00  0.00    +0.011 C 
ATOM      2  H   UNL     1     150.625 163.653 188.070  0.00  0.00    +0.033 HD
ATOM      3  H   UNL     1     150.789 165.187 187.198  0.00  0.00    +0.033 HD
ENDROOT
BRANCH   1  36
ATOM      4  C   UNL     1     152.855 162.518 187.432  0.00  0.00    +0.020 C 
ATOM      5  C   UNL     1     153.072 161.992 188.880  0.00  0.00    +0.068 C 
ATOM      6  C   UNL     1     154.166 162.731 189.694  0.00  0.00    -0.008 C 
ATOM      7  C   UNL     1     155.425 163.097 188.957  0.00  0.00    -0.077 C 
ATOM      8  C   UNL     1     156.281 162.235 188.386  0.00  0.00    -0.003 C 
ATOM      9  C   UNL     1     157.429 162.730 187.705  0.00  0.00    +0.220 A 
ATOM     10  N   UNL     1     157.555 163.939 187.167  0.00  0.00    -0.205 NA
ATOM     11  C   UNL     1     158.861 164.022 186.759  0.00  0.00    +0.164 A 
ATOM     12  C   UNL     1     159.498 162.838 187.003  0.00  0.00    +0.125 A 
ATOM     13  O   UNL     1     158.595 161.987 187.564  0.00  0.00    -0.443 OA
ATOM     14  C   UNL     1     159.501 165.302 186.153  0.00  0.00    +0.250 A 
ATOM     15  N   UNL     1     158.796 166.381 185.850  0.00  0.00    -0.203 NA
ATOM     16  C   UNL     1     159.736 167.298 185.453  0.00  0.00    +0.164 A 
ATOM     17  C   UNL     1     160.981 166.731 185.484  0.00  0.00    +0.125 A 
ATOM     18  O   UNL     1     160.847 165.441 185.908  0.00  0.00    -0.442 OA
ATOM     19  C   UNL     1     159.423 168.760 185.016  0.00  0.00    +0.249 A 
ATOM     20  N   UNL     1     158.194 169.228 184.877  0.00  0.00    -0.210 NA
ATOM     21  C   UNL     1     158.357 170.512 184.403  0.00  0.00    +0.109 A 
ATOM     22  C   UNL     1     159.697 170.799 184.352  0.00  0.00    +0.118 A 
ATOM     23  O   UNL     1     160.394 169.679 184.694  0.00  0.00    -0.442 OA
ATOM     24  C   UNL     1     157.179 171.367 184.033  0.00  0.00    +0.113 C 
ATOM     25  C   UNL     1     156.746 171.239 182.558  0.00  0.00    +0.051 C 
ATOM     26  C   UNL     1     155.749 170.109 182.367  0.00  0.00    +0.161 C 
ATOM     27  O   UNL     1     154.562 170.360 182.146  0.00  0.00    -0.292 OA
ATOM     28  C   UNL     1     156.213 168.697 182.484  0.00  0.00    -0.023 C 
ATOM     29  C   UNL     1     155.329 167.687 182.495  0.00  0.00    -0.078 C 
ATOM     30  C   UNL     1     155.710 166.255 182.751  0.00  0.00    -0.008 C 
ATOM     31  C   UNL     1     155.202 165.750 184.110  0.00  0.00    +0.069 C 
ATOM     32  C   UNL     1     153.685 165.570 184.141  0.00  0.00    +0.071 C 
ATOM     33  C   UNL     1     153.249 165.559 185.577  0.00  0.00    +0.310 C 
ATOM     34  O   UNL     1     153.415 166.510 186.328  0.00  0.00    -0.251 OA
ATOM     35  O   UNL     1     152.699 164.367 185.918  0.00  0.00    -0.461 OA
ATOM     36  C   UNL     1     152.625 164.052 187.334  0.00  0.00    +0.110 C 
ATOM     37  H   UNL     1     153.757 162.277 186.847  0.00  0.00    +0.036 HD
ATOM     38  H   UNL     1     152.125 162.079 189.427  0.00  0.00    +0.060 HD
ATOM     39  H   UNL     1     153.733 163.658 190.081  0.00  0.00    +0.033 HD
ATOM     40  H   UNL     1     154.449 162.146 190.577  0.00  0.00    +0.033 HD
ATOM     41  H   UNL     1     155.627 164.169 188.887  0.00  0.00    +0.057 HD
ATOM     42  H   UNL     1     156.138 161.164 188.448  0.00  0.00    +0.067 HD
ATOM     43  H   UNL     1     160.493 162.450 186.848  0.00  0.00    +0.105 HD
ATOM     44  H   UNL     1     161.986 167.069 185.262  0.00  0.00    +0.105 HD
ATOM     45  H   UNL     1     160.274 171.666 184.060  0.00  0.00    +0.105 HD
ATOM     46  H   UNL     1     156.351 171.052 184.684  0.00  0.00    +0.067 HD
ATOM     47  H   UNL     1     156.183 172.150 182.305  0.00  0.00    +0.041 HD
ATOM     48  H   UNL     1     157.270 168.516 182.632  0.00  0.00    +0.065 HD
ATOM     49  H   UNL     1     154.272 167.900 182.347  0.00  0.00    +0.057 HD
ATOM     50  H   UNL     1     155.323 165.622 181.943  0.00  0.00    +0.033 HD
ATOM     51  H   UNL     1     156.802 166.139 182.716  0.00  0.00    +0.033 HD
ATOM     52  H   UNL     1     155.537 166.438 184.898  0.00  0.00    +0.060 HD
ATOM     53  H   UNL     1     153.142 166.396 183.665  0.00  0.00    +0.040 HD
ATOM     54  H   UNL     1     153.379 164.640 183.645  0.00  0.00    +0.040 HD
ATOM     55  H   UNL     1     153.466 164.542 187.826  0.00  0.00    +0.074 HD
BRANCH   4  56
ATOM     56  C   UNL     1     151.729 161.737 186.729  0.00  0.00    -0.057 C 
ATOM     57  H   UNL     1     150.860 162.376 186.549  0.00  0.00    +0.023 HD
ATOM     58  H   UNL     1     151.403 160.886 187.330  0.00  0.00    +0.023 HD
ATOM     59  H   UNL     1     152.055 161.358 185.756  0.00  0.00    +0.023 HD
ENDBRANCH   4  56
BRANCH  25  60
ATOM     60  C   UNL     1     157.880 171.192 181.534  0.00  0.00    -0.053 C 
ATOM     61  H   UNL     1     157.597 171.623 180.567  0.00  0.00    +0.024 HD
ATOM     62  H   UNL     1     158.214 170.161 181.372  0.00  0.00    +0.024 HD
ATOM     63  H   UNL     1     158.738 171.770 181.900  0.00  0.00    +0.024 HD
ENDBRANCH  25  60
BRANCH  31  64
ATOM     64  O   UNL     1     155.801 164.477 184.372  0.00  0.00    -0.391 OA
ATOM     65  H   UNL     1     156.592 164.646 184.927  0.00  0.00    +0.210 HD
ENDBRANCH  31  64
BRANCH  24  66
ATOM     66  O   UNL     1     157.483 172.749 184.307  0.00  0.00    -0.373 OA
BRANCH  66  67
ATOM     67  C   UNL     1     156.383 173.606 184.019  0.00  0.00    +0.037 C 
ATOM     68  H   UNL     1     156.230 173.699 182.940  0.00  0.00    +0.052 HD
ATOM     69  H   UNL     1     155.471 173.231 184.496  0.00  0.00    +0.052 HD
ATOM     70  H   UNL     1     156.605 174.597 184.425  0.00  0.00    +0.052 HD
ENDBRANCH  66  67
ENDBRANCH  24  66
BRANCH   5  71
ATOM     71  O   UNL     1     153.415 160.592 188.796  0.00  0.00    -0.379 OA
BRANCH  71  72
ATOM     72  C   UNL     1     152.744 159.802 189.770  0.00  0.00    +0.037 C 
ATOM     73  H   UNL     1     153.235 158.835 189.912  0.00  0.00    +0.052 HD
ATOM     74  H   UNL     1     151.722 159.626 189.418  0.00  0.00    +0.052 HD
ATOM     75  H   UNL     1     152.693 160.339 190.723  0.00  0.00    +0.052 HD
ENDBRANCH  71  72
ENDBRANCH   5  71
ENDBRANCH   1  36
BRANCH   1  76
ATOM     76  C   UNL     1     151.398 165.228 189.278  0.00  0.00    +0.064 C 
ATOM     77  H   UNL     1     150.775 166.129 189.286  0.00  0.00    +0.060 HD
BRANCH  76  78
ATOM     78  C   UNL     1     150.998 164.324 190.477  0.00  0.00    -0.017 C 
ATOM     79  H   UNL     1     151.651 163.450 190.456  0.00  0.00    +0.032 HD
BRANCH  78  80
ATOM     80  C   UNL     1     151.302 165.081 191.792  0.00  0.00    -0.060 C 
ATOM     81  H   UNL     1     152.351 165.398 191.827  0.00  0.00    +0.023 HD
ATOM     82  H   UNL     1     150.696 165.987 191.882  0.00  0.00    +0.023 HD
ATOM     83  H   UNL     1     151.110 164.446 192.662  0.00  0.00    +0.023 HD
ENDBRANCH  78  80
BRANCH  78  84
ATOM     84  C   UNL     1     149.528 163.876 190.552  0.00  0.00    -0.045 C 
ATOM     85  H   UNL     1     149.138 163.798 189.525  0.00  0.00    +0.027 HD
ATOM     86  H   UNL     1     149.486 162.847 190.946  0.00  0.00    +0.027 HD
BRANCH  84  87
ATOM     87  C   UNL     1     148.496 164.728 191.310  0.00  0.00    -0.015 C 
ATOM     88  H   UNL     1     147.938 163.995 191.903  0.00  0.00    +0.030 HD
ATOM     89  H   UNL     1     149.001 165.363 192.046  0.00  0.00    +0.030 HD
BRANCH  87  90
ATOM     90  C   UNL     1     147.473 165.586 190.527  0.00  0.00    +0.109 C 
ATOM     91  H   UNL     1     147.459 165.209 189.497  0.00  0.00    +0.074 HD
BRANCH  90  92
ATOM     92  C   UNL     1     147.878 167.105 190.538  0.00  0.00    +0.031 C 
ATOM     93  H   UNL     1     146.951 167.689 190.580  0.00  0.00    +0.037 HD
BRANCH  92  94
ATOM     94  C   UNL     1     148.528 167.542 189.212  0.00  0.00    -0.056 C 
ATOM     95  H   UNL     1     148.820 168.593 189.239  0.00  0.00    +0.023 HD
ATOM     96  H   UNL     1     147.859 167.378 188.364  0.00  0.00    +0.023 HD
ATOM     97  H   UNL     1     149.451 166.977 189.026  0.00  0.00    +0.023 HD
ENDBRANCH  92  94
BRANCH  92  98
ATOM     98  C   UNL     1     148.828 167.555 191.696  0.00  0.00    +0.115 C 
ATOM     99  H   UNL     1     149.583 166.769 191.848  0.00  0.00    +0.074 HD
BRANCH  98 100
ATOM    100  C   UNL     1     149.657 168.847 191.430  0.00  0.00    +0.013 C 
ATOM    101  H   UNL     1     149.846 168.953 190.359  0.00  0.00    +0.038 HD
BRANCH 100 102
ATOM    102  C   UNL     1     151.007 168.824 192.160  0.00  0.00    -0.056 C 
ATOM    103  H   UNL     1     150.961 168.218 193.076  0.00  0.00    +0.024 HD
ATOM    104  H   UNL     1     151.800 168.403 191.524  0.00  0.00    +0.024 HD
ATOM    105  H   UNL     1     151.316 169.830 192.459  0.00  0.00    +0.024 HD
ENDBRANCH 100 102
BRANCH 100 106
ATOM    106  C   UNL     1     148.901 170.084 191.889  0.00  0.00    -0.064 C 
ATOM    107  C   UNL     1     149.213 171.327 191.496  0.00  0.00    -0.005 C 
ATOM    108  H   UNL     1     148.082 169.907 192.584  0.00  0.00    +0.059 HD
ATOM    109  H   UNL     1     150.062 171.457 190.827  0.00  0.00    +0.078 HD
BRANCH 107 110
ATOM    110  N   UNL     1     148.590 172.509 191.866  0.00  0.00    -0.284 N 
ATOM    111  C   UNL     1     148.847 173.226 193.036  0.00  0.00    +0.206 C 
ATOM    112  O   UNL     1     149.642 172.975 193.935  0.00  0.00    -0.279 OA
ATOM    113  H   UNL     1     148.216 174.127 193.113  0.00  0.00    +0.126 HD
BRANCH 110 114
ATOM    114  C   UNL     1     147.581 173.034 190.949  0.00  0.00    +0.007 C 
ATOM    115  H   UNL     1     146.984 173.790 191.472  0.00  0.00    +0.043 HD
ATOM    116  H   UNL     1     146.907 172.250 190.591  0.00  0.00    +0.043 HD
ATOM    117  H   UNL     1     148.079 173.490 190.088  0.00  0.00    +0.043 HD
ENDBRANCH 110 114
ENDBRANCH 107 110
ENDBRANCH 100 106
ENDBRANCH  98 100
BRANCH  98 118
ATOM    118  O   UNL     1     148.067 167.740 192.913  0.00  0.00    -0.461 OA
BRANCH 118 119
ATOM    119  C   UNL     1     148.349 166.883 193.937  0.00  0.00    +0.304 C 
ATOM    120  O   UNL     1     149.458 166.653 194.397  0.00  0.00    -0.251 OA
BRANCH 119 121
ATOM    121  C   UNL     1     147.097 166.213 194.417  0.00  0.00    +0.033 C 
ATOM    122  H   UNL     1     146.935 166.460 195.468  0.00  0.00    +0.034 HD
ATOM    123  H   UNL     1     147.177 165.131 194.279  0.00  0.00    +0.034 HD
ATOM    124  H   UNL     1     146.248 166.563 193.824  0.00  0.00    +0.034 HD
ENDBRANCH 119 121
ENDBRANCH 118 119
ENDBRANCH  98 118
ENDBRANCH  92  98
ENDBRANCH  90  92
BRANCH  90 125
ATOM    125  O   UNL     1     146.158 165.408 191.113  0.00  0.00    -0.459 OA
BRANCH 125 126
ATOM    126  C   UNL     1     145.086 165.719 190.310  0.00  0.00    +0.339 C 
ATOM    127  O   UNL     1     144.936 165.290 189.173  0.00  0.00    -0.248 OA
BRANCH 126 128
ATOM    128  C   UNL     1     144.127 166.732 190.960  0.00  0.00    +0.178 C 
ATOM    129  H   UNL     1     144.107 167.611 190.296  0.00  0.00    +0.074 HD
BRANCH 128 130
ATOM    130  C   UNL     1     142.720 166.134 191.012  0.00  0.00    +0.084 C 
ATOM    131  H   UNL     1     142.772 165.045 190.945  0.00  0.00    +0.059 HD
ATOM    132  H   UNL     1     142.261 166.366 191.980  0.00  0.00    +0.059 HD
BRANCH 130 133
ATOM    133  O   UNL     1     141.897 166.653 189.969  0.00  0.00    -0.380 OA
BRANCH 133 134
ATOM    134  C   UNL     1     142.230 167.999 189.660  0.00  0.00    +0.037 C 
ATOM    135  H   UNL     1     143.272 168.061 189.331  0.00  0.00    +0.052 HD
ATOM    136  H   UNL     1     141.585 168.336 188.844  0.00  0.00    +0.052 HD
ATOM    137  H   UNL     1     142.074 168.651 190.525  0.00  0.00    +0.052 HD
ENDBRANCH 133 134
ENDBRANCH 130 133
ENDBRANCH 128 130
BRANCH 128 138
ATOM    138  O   UNL     1     144.471 167.147 192.284  0.00  0.00    -0.366 OA
BRANCH 138 139
ATOM    139  C   UNL     1     143.558 166.659 193.257  0.00  0.00    +0.038 C 
ATOM    140  H   UNL     1     143.847 165.636 193.514  0.00  0.00    +0.052 HD
ATOM    141  H   UNL     1     142.542 166.636 192.850  0.00  0.00    +0.052 HD
ATOM    142  H   UNL     1     143.586 167.267 194.165  0.00  0.00    +0.052 HD
ENDBRANCH 138 139
ENDBRANCH 128 138
ENDBRANCH 126 128
ENDBRANCH 125 126
ENDBRANCH  90 125
ENDBRANCH  87  90
ENDBRANCH  84  87
ENDBRANCH  78  84
ENDBRANCH  76  78
BRANCH  76 143
ATOM    143  O   UNL     1     152.789 165.549 189.468  0.00  0.00    -0.379 OA
BRANCH 143 144
ATOM    144  C   UNL     1     153.048 166.942 189.592  0.00  0.00    +0.037 C 
ATOM    145  H   UNL     1     154.118 167.107 189.427  0.00  0.00    +0.052 HD
ATOM    146  H   UNL     1     152.788 167.322 190.586  0.00  0.00    +0.052 HD
ATOM    147  H   UNL     1     152.506 167.498 188.825  0.00  0.00    +0.052 HD
ENDBRANCH 143 144
ENDBRANCH  76 143
ENDBRANCH   1  76
TORSDOF 35
ENDMDL
MODEL 4
REMARK VINA RESULT:      -6.1      1.651      2.376
REMARK  Name = Mycalolide B_conf3
REMARK  35 active torsions:
REMARK  status: ('A' for Active; 'I' for Inactive)
REMARK    1  A    between atoms: C_1  and  C_2
REMARK    2  A    between atoms: C_3  and  O_72
REMARK    3  A    between atoms: C_22  and  O_70
REMARK    4  A    between atoms: C_23  and  C_69
REMARK    5  A    between atoms: C_29  and  O_68
REMARK    6  A    between atoms: C_34  and  C_35
REMARK    7  A    between atoms: C_35  and  C_36
REMARK    8  A    between atoms: C_36  and  C_37
REMARK    9  A    between atoms: C_36  and  O_66
REMARK   10  A    between atoms: C_37  and  C_38
REMARK   11  A    between atoms: C_37  and  C_39
REMARK   12  A    between atoms: C_39  and  C_40
REMARK   13  A    between atoms: C_40  and  C_41
REMARK   14  A    between atoms: C_41  and  C_42
REMARK   15  A    between atoms: C_41  and  O_57
REMARK   16  A    between atoms: C_42  and  C_43
REMARK   17  A    between atoms: C_42  and  C_44
REMARK   18  A    between atoms: C_44  and  C_45
REMARK   19  A    between atoms: C_44  and  O_53
REMARK   20  A    between atoms: C_45  and  C_46
REMARK   21  A    between atoms: C_45  and  C_47
REMARK   22  A    between atoms: C_48  and  N_49
REMARK   23  A    between atoms: N_49  and  C_50
REMARK   24  A    between atoms: O_53  and  C_54
REMARK   25  A    between atoms: C_54  and  C_56
REMARK   26  A    between atoms: O_57  and  C_58
REMARK   27  A    between atoms: C_58  and  C_60
REMARK   28  A    between atoms: C_60  and  C_61
REMARK   29  A    between atoms: C_60  and  O_64
REMARK   30  A    between atoms: C_61  and  O_62
REMARK   31  A    between atoms: O_62  and  C_63
REMARK   32  A    between atoms: O_64  and  C_65
REMARK   33  A    between atoms: O_66  and  C_67
REMARK   34  A    between atoms: O_70  and  C_71
REMARK   35  A    between atoms: O_72  and  C_73
REMARK                            x       y       z     vdW  Elec       q    Type
REMARK                         _______ _______ _______ _____ _____    ______ ____
ROOT
ATOM      1  C   UNL     1     152.915 164.893 188.123  0.00  0.00    +0.011 C 
ATOM      2  H   UNL     1     152.266 164.014 188.192  0.00  0.00    +0.033 HD
ATOM      3  H   UNL     1     152.363 165.680 187.597  0.00  0.00    +0.033 HD
ENDROOT
BRANCH   1  36
ATOM      4  C   UNL     1     154.498 163.017 187.280  0.00  0.00    +0.020 C 
ATOM      5  C   UNL     1     154.969 162.433 188.643  0.00  0.00    +0.068 C 
ATOM      6  C   UNL     1     156.139 163.195 189.318  0.00  0.00    -0.008 C 
ATOM      7  C   UNL     1     157.244 163.672 188.416  0.00  0.00    -0.077 C 
ATOM      8  C   UNL     1     158.042 162.893 187.670  0.00  0.00    -0.003 C 
ATOM      9  C   UNL     1     159.039 163.490 186.847  0.00  0.00    +0.220 A 
ATOM     10  N   UNL     1     159.015 164.730 186.369  0.00  0.00    -0.205 NA
ATOM     11  C   UNL     1     160.234 164.911 185.767  0.00  0.00    +0.164 A 
ATOM     12  C   UNL     1     160.962 163.757 185.839  0.00  0.00    +0.125 A 
ATOM     13  O   UNL     1     160.205 162.827 186.483  0.00  0.00    -0.443 OA
ATOM     14  C   UNL     1     160.702 166.256 185.145  0.00  0.00    +0.250 A 
ATOM     15  N   UNL     1     159.903 167.304 185.019  0.00  0.00    -0.203 NA
ATOM     16  C   UNL     1     160.720 168.295 184.535  0.00  0.00    +0.164 A 
ATOM     17  C   UNL     1     161.981 167.803 184.337  0.00  0.00    +0.125 A 
ATOM     18  O   UNL     1     161.983 166.489 184.701  0.00  0.00    -0.442 OA
ATOM     19  C   UNL     1     160.266 169.755 184.239  0.00  0.00    +0.249 A 
ATOM     20  N   UNL     1     159.008 170.155 184.321  0.00  0.00    -0.210 NA
ATOM     21  C   UNL     1     159.026 171.468 183.903  0.00  0.00    +0.109 A 
ATOM     22  C   UNL     1     160.325 171.838 183.661  0.00  0.00    +0.118 A 
ATOM     23  O   UNL     1     161.125 170.746 183.823  0.00  0.00    -0.442 OA
ATOM     24  C   UNL     1     157.762 172.268 183.772  0.00  0.00    +0.113 C 
ATOM     25  C   UNL     1     157.107 172.187 182.377  0.00  0.00    +0.051 C 
ATOM     26  C   UNL     1     156.152 171.010 182.279  0.00  0.00    +0.161 C 
ATOM     27  O   UNL     1     154.934 171.200 182.261  0.00  0.00    -0.292 OA
ATOM     28  C   UNL     1     156.702 169.625 182.239  0.00  0.00    -0.023 C 
ATOM     29  C   UNL     1     155.884 168.564 182.328  0.00  0.00    -0.078 C 
ATOM     30  C   UNL     1     156.374 167.147 182.437  0.00  0.00    -0.008 C 
ATOM     31  C   UNL     1     156.116 166.545 183.828  0.00  0.00    +0.069 C 
ATOM     32  C   UNL     1     154.635 166.273 184.084  0.00  0.00    +0.071 C 
ATOM     33  C   UNL     1     154.433 166.164 185.567  0.00  0.00    +0.310 C 
ATOM     34  O   UNL     1     154.667 167.085 186.337  0.00  0.00    -0.251 OA
ATOM     35  O   UNL     1     154.008 164.925 185.920  0.00  0.00    -0.461 OA
ATOM     36  C   UNL     1     154.176 164.536 187.309  0.00  0.00    +0.110 C 
ATOM     37  H   UNL     1     155.307 162.860 186.548  0.00  0.00    +0.036 HD
ATOM     38  H   UNL     1     154.118 162.435 189.335  0.00  0.00    +0.060 HD
ATOM     39  H   UNL     1     155.726 164.074 189.822  0.00  0.00    +0.033 HD
ATOM     40  H   UNL     1     156.589 162.586 190.110  0.00  0.00    +0.033 HD
ATOM     41  H   UNL     1     157.376 164.757 188.378  0.00  0.00    +0.057 HD
ATOM     42  H   UNL     1     157.966 161.814 187.690  0.00  0.00    +0.067 HD
ATOM     43  H   UNL     1     161.939 163.439 185.508  0.00  0.00    +0.105 HD
ATOM     44  H   UNL     1     162.919 168.212 183.982  0.00  0.00    +0.105 HD
ATOM     45  H   UNL     1     160.802 172.752 183.333  0.00  0.00    +0.105 HD
ATOM     46  H   UNL     1     157.066 171.872 184.525  0.00  0.00    +0.067 HD
ATOM     47  H   UNL     1     156.464 173.074 182.269  0.00  0.00    +0.041 HD
ATOM     48  H   UNL     1     157.776 169.501 182.209  0.00  0.00    +0.065 HD
ATOM     49  H   UNL     1     154.807 168.720 182.360  0.00  0.00    +0.057 HD
ATOM     50  H   UNL     1     155.897 166.532 181.664  0.00  0.00    +0.033 HD
ATOM     51  H   UNL     1     157.451 167.098 182.226  0.00  0.00    +0.033 HD
ATOM     52  H   UNL     1     156.535 167.211 184.592  0.00  0.00    +0.060 HD
ATOM     53  H   UNL     1     153.981 167.087 183.748  0.00  0.00    +0.040 HD
ATOM     54  H   UNL     1     154.302 165.351 183.588  0.00  0.00    +0.040 HD
ATOM     55  H   UNL     1     155.058 165.052 187.692  0.00  0.00    +0.074 HD
BRANCH   4  56
ATOM     56  C   UNL     1     153.316 162.204 186.717  0.00  0.00    -0.057 C 
ATOM     57  H   UNL     1     153.554 161.795 185.731  0.00  0.00    +0.023 HD
ATOM     58  H   UNL     1     152.422 162.821 186.620  0.00  0.00    +0.023 HD
ATOM     59  H   UNL     1     153.073 161.356 187.364  0.00  0.00    +0.023 HD
ENDBRANCH   4  56
BRANCH  25  60
ATOM     60  C   UNL     1     158.064 172.260 181.188  0.00  0.00    -0.053 C 
ATOM     61  H   UNL     1     157.752 172.993 180.436  0.00  0.00    +0.024 HD
ATOM     62  H   UNL     1     158.156 171.282 180.704  0.00  0.00    +0.024 HD
ATOM     63  H   UNL     1     159.063 172.561 181.530  0.00  0.00    +0.024 HD
ENDBRANCH  25  60
BRANCH  31  64
ATOM     64  O   UNL     1     156.814 165.299 183.918  0.00  0.00    -0.391 OA
ATOM     65  H   UNL     1     156.190 164.653 184.311  0.00  0.00    +0.210 HD
ENDBRANCH  31  64
BRANCH  24  66
ATOM     66  O   UNL     1     158.034 173.651 184.075  0.00  0.00    -0.373 OA
BRANCH  66  67
ATOM     67  C   UNL     1     156.902 174.482 183.842  0.00  0.00    +0.037 C 
ATOM     68  H   UNL     1     156.422 174.764 184.784  0.00  0.00    +0.052 HD
ATOM     69  H   UNL     1     157.195 175.381 183.288  0.00  0.00    +0.052 HD
ATOM     70  H   UNL     1     156.183 173.922 183.239  0.00  0.00    +0.052 HD
ENDBRANCH  66  67
ENDBRANCH  24  66
BRANCH   5  71
ATOM     71  O   UNL     1     155.366 161.062 188.425  0.00  0.00    -0.379 OA
BRANCH  71  72
ATOM     72  C   UNL     1     154.561 160.135 189.143  0.00  0.00    +0.037 C 
ATOM     73  H   UNL     1     155.144 159.591 189.891  0.00  0.00    +0.052 HD
ATOM     74  H   UNL     1     154.154 159.415 188.426  0.00  0.00    +0.052 HD
ATOM     75  H   UNL     1     153.725 160.654 189.624  0.00  0.00    +0.052 HD
ENDBRANCH  71  72
ENDBRANCH   5  71
ENDBRANCH   1  36
BRANCH   1  76
ATOM     76  C   UNL     1     153.209 165.343 189.564  0.00  0.00    +0.064 C 
ATOM     77  H   UNL     1     154.286 165.300 189.754  0.00  0.00    +0.060 HD
BRANCH  76  78
ATOM     78  C   UNL     1     152.695 166.776 189.875  0.00  0.00    -0.017 C 
ATOM     79  H   UNL     1     153.569 167.410 190.025  0.00  0.00    +0.032 HD
BRANCH  78  80
ATOM     80  C   UNL     1     151.956 167.319 188.627  0.00  0.00    -0.060 C 
ATOM     81  H   UNL     1     150.875 167.366 188.803  0.00  0.00    +0.023 HD
ATOM     82  H   UNL     1     152.279 168.334 188.380  0.00  0.00    +0.023 HD
ATOM     83  H   UNL     1     152.130 166.676 187.759  0.00  0.00    +0.023 HD
ENDBRANCH  78  80
BRANCH  78  84
ATOM     84  C   UNL     1     151.730 166.927 191.062  0.00  0.00    -0.045 C 
ATOM     85  H   UNL     1     150.783 166.426 190.805  0.00  0.00    +0.027 HD
ATOM     86  H   UNL     1     152.124 166.357 191.920  0.00  0.00    +0.027 HD
BRANCH  84  87
ATOM     87  C   UNL     1     151.321 168.325 191.558  0.00  0.00    -0.015 C 
ATOM     88  H   UNL     1     151.646 168.336 192.605  0.00  0.00    +0.030 HD
ATOM     89  H   UNL     1     151.929 169.091 191.064  0.00  0.00    +0.030 HD
BRANCH  87  90
ATOM     90  C   UNL     1     149.836 168.760 191.514  0.00  0.00    +0.109 C 
ATOM     91  H   UNL     1     149.377 168.249 190.659  0.00  0.00    +0.074 HD
BRANCH  90  92
ATOM     92  C   UNL     1     149.705 170.317 191.344  0.00  0.00    +0.031 C 
ATOM     93  H   UNL     1     150.125 170.575 190.364  0.00  0.00    +0.037 HD
BRANCH  92  94
ATOM     94  C   UNL     1     150.597 171.086 192.338  0.00  0.00    -0.056 C 
ATOM     95  H   UNL     1     151.523 170.548 192.542  0.00  0.00    +0.023 HD
ATOM     96  H   UNL     1     150.077 171.273 193.282  0.00  0.00    +0.023 HD
ATOM     97  H   UNL     1     150.896 172.057 191.922  0.00  0.00    +0.023 HD
ENDBRANCH  92  94
BRANCH  92  98
ATOM     98  C   UNL     1     148.260 170.903 191.462  0.00  0.00    +0.115 C 
ATOM     99  H   UNL     1     147.728 170.355 192.254  0.00  0.00    +0.074 HD
BRANCH  98 100
ATOM    100  C   UNL     1     148.167 172.398 191.892  0.00  0.00    +0.013 C 
ATOM    101  H   UNL     1     149.061 172.935 191.568  0.00  0.00    +0.038 HD
BRANCH 100 102
ATOM    102  C   UNL     1     148.037 172.551 193.415  0.00  0.00    -0.056 C 
ATOM    103  H   UNL     1     148.506 173.479 193.769  0.00  0.00    +0.024 HD
ATOM    104  H   UNL     1     146.981 172.573 193.726  0.00  0.00    +0.024 HD
ATOM    105  H   UNL     1     148.524 171.725 193.941  0.00  0.00    +0.024 HD
ENDBRANCH 100 102
BRANCH 100 106
ATOM    106  C   UNL     1     146.966 173.075 191.252  0.00  0.00    -0.064 C 
ATOM    107  C   UNL     1     145.719 172.980 191.738  0.00  0.00    -0.005 C 
ATOM    108  H   UNL     1     147.170 173.642 190.346  0.00  0.00    +0.059 HD
ATOM    109  H   UNL     1     145.560 172.373 192.628  0.00  0.00    +0.078 HD
BRANCH 107 110
ATOM    110  N   UNL     1     144.568 173.552 191.221  0.00  0.00    -0.284 N 
ATOM    111  C   UNL     1     143.700 174.394 191.920  0.00  0.00    +0.206 C 
ATOM    112  O   UNL     1     143.776 174.788 193.078  0.00  0.00    -0.279 OA
ATOM    113  H   UNL     1     142.847 174.712 191.299  0.00  0.00    +0.126 HD
BRANCH 110 114
ATOM    114  C   UNL     1     144.245 173.238 189.832  0.00  0.00    +0.007 C 
ATOM    115  H   UNL     1     144.997 172.543 189.441  0.00  0.00    +0.043 HD
ATOM    116  H   UNL     1     144.241 174.132 189.201  0.00  0.00    +0.043 HD
ATOM    117  H   UNL     1     143.255 172.773 189.787  0.00  0.00    +0.043 HD
ENDBRANCH 110 114
ENDBRANCH 107 110
ENDBRANCH 100 106
ENDBRANCH  98 100
BRANCH  98 118
ATOM    118  O   UNL     1     147.560 170.742 190.206  0.00  0.00    -0.461 OA
BRANCH 118 119
ATOM    119  C   UNL     1     146.677 169.705 190.135  0.00  0.00    +0.304 C 
ATOM    120  O   UNL     1     145.745 169.502 190.901  0.00  0.00    -0.251 OA
BRANCH 119 121
ATOM    121  C   UNL     1     147.023 168.801 188.991  0.00  0.00    +0.033 C 
ATOM    122  H   UNL     1     147.588 169.362 188.245  0.00  0.00    +0.034 HD
ATOM    123  H   UNL     1     146.110 168.384 188.556  0.00  0.00    +0.034 HD
ATOM    124  H   UNL     1     147.628 167.968 189.357  0.00  0.00    +0.034 HD
ENDBRANCH 119 121
ENDBRANCH 118 119
ENDBRANCH  98 118
ENDBRANCH  92  98
ENDBRANCH  90  92
BRANCH  90 125
ATOM    125  O   UNL     1     149.179 168.326 192.733  0.00  0.00    -0.459 OA
BRANCH 125 126
ATOM    126  C   UNL     1     148.503 167.131 192.667  0.00  0.00    +0.339 C 
ATOM    127  O   UNL     1     147.633 166.881 191.842  0.00  0.00    -0.248 OA
BRANCH 126 128
ATOM    128  C   UNL     1     148.898 166.160 193.793  0.00  0.00    +0.178 C 
ATOM    129  H   UNL     1     149.918 166.440 194.102  0.00  0.00    +0.074 HD
BRANCH 128 130
ATOM    130  C   UNL     1     147.960 166.361 194.986  0.00  0.00    +0.084 C 
ATOM    131  H   UNL     1     147.813 167.427 195.171  0.00  0.00    +0.059 HD
ATOM    132  H   UNL     1     146.973 165.947 194.747  0.00  0.00    +0.059 HD
BRANCH 130 133
ATOM    133  O   UNL     1     148.464 165.722 196.156  0.00  0.00    -0.380 OA
BRANCH 133 134
ATOM    134  C   UNL     1     149.784 166.150 196.459  0.00  0.00    +0.037 C 
ATOM    135  H   UNL     1     150.017 167.067 195.908  0.00  0.00    +0.052 HD
ATOM    136  H   UNL     1     149.842 166.362 197.530  0.00  0.00    +0.052 HD
ATOM    137  H   UNL     1     150.516 165.373 196.213  0.00  0.00    +0.052 HD
ENDBRANCH 133 134
ENDBRANCH 130 133
ENDBRANCH 128 130
BRANCH 128 138
ATOM    138  O   UNL     1     148.872 164.771 193.451  0.00  0.00    -0.366 OA
BRANCH 138 139
ATOM    139  C   UNL     1     150.153 164.284 193.080  0.00  0.00    +0.038 C 
ATOM    140  H   UNL     1     150.401 163.442 193.733  0.00  0.00    +0.052 HD
ATOM    141  H   UNL     1     150.913 165.060 193.217  0.00  0.00    +0.052 HD
ATOM    142  H   UNL     1     150.156 163.934 192.044  0.00  0.00    +0.052 HD
ENDBRANCH 138 139
ENDBRANCH 128 138
ENDBRANCH 126 128
ENDBRANCH 125 126
ENDBRANCH  90 125
ENDBRANCH  87  90
ENDBRANCH  84  87
ENDBRANCH  78  84
ENDBRANCH  76  78
BRANCH  76 143
ATOM    143  O   UNL     1     152.484 164.461 190.442  0.00  0.00    -0.379 OA
BRANCH 143 144
ATOM    144  C   UNL     1     151.622 163.554 189.766  0.00  0.00    +0.037 C 
ATOM    145  H   UNL     1     151.440 163.943 188.757  0.00  0.00    +0.052 HD
ATOM    146  H   UNL     1     150.658 163.446 190.275  0.00  0.00    +0.052 HD
ATOM    147  H   UNL     1     152.102 162.580 189.662  0.00  0.00    +0.052 HD
ENDBRANCH 143 144
ENDBRANCH  76 143
ENDBRANCH   1  76
TORSDOF 35
ENDMDL
MODEL 5
REMARK VINA RESULT:      -6.0      4.497     10.327
REMARK  Name = Mycalolide B_conf3
REMARK  35 active torsions:
REMARK  status: ('A' for Active; 'I' for Inactive)
REMARK    1  A    between atoms: C_1  and  C_2
REMARK    2  A    between atoms: C_3  and  O_72
REMARK    3  A    between atoms: C_22  and  O_70
REMARK    4  A    between atoms: C_23  and  C_69
REMARK    5  A    between atoms: C_29  and  O_68
REMARK    6  A    between atoms: C_34  and  C_35
REMARK    7  A    between atoms: C_35  and  C_36
REMARK    8  A    between atoms: C_36  and  C_37
REMARK    9  A    between atoms: C_36  and  O_66
REMARK   10  A    between atoms: C_37  and  C_38
REMARK   11  A    between atoms: C_37  and  C_39
REMARK   12  A    between atoms: C_39  and  C_40
REMARK   13  A    between atoms: C_40  and  C_41
REMARK   14  A    between atoms: C_41  and  C_42
REMARK   15  A    between atoms: C_41  and  O_57
REMARK   16  A    between atoms: C_42  and  C_43
REMARK   17  A    between atoms: C_42  and  C_44
REMARK   18  A    between atoms: C_44  and  C_45
REMARK   19  A    between atoms: C_44  and  O_53
REMARK   20  A    between atoms: C_45  and  C_46
REMARK   21  A    between atoms: C_45  and  C_47
REMARK   22  A    between atoms: C_48  and  N_49
REMARK   23  A    between atoms: N_49  and  C_50
REMARK   24  A    between atoms: O_53  and  C_54
REMARK   25  A    between atoms: C_54  and  C_56
REMARK   26  A    between atoms: O_57  and  C_58
REMARK   27  A    between atoms: C_58  and  C_60
REMARK   28  A    between atoms: C_60  and  C_61
REMARK   29  A    between atoms: C_60  and  O_64
REMARK   30  A    between atoms: C_61  and  O_62
REMARK   31  A    between atoms: O_62  and  C_63
REMARK   32  A    between atoms: O_64  and  C_65
REMARK   33  A    between atoms: O_66  and  C_67
REMARK   34  A    between atoms: O_70  and  C_71
REMARK   35  A    between atoms: O_72  and  C_73
REMARK                            x       y       z     vdW  Elec       q    Type
REMARK                         _______ _______ _______ _____ _____    ______ ____
ROOT
ATOM      1  C   UNL     1     143.113 170.509 186.674  0.00  0.00    +0.011 C 
ATOM      2  H   UNL     1     142.073 170.583 186.338  0.00  0.00    +0.033 HD
ATOM      3  H   UNL     1     143.737 170.297 185.799  0.00  0.00    +0.033 HD
ENDROOT
BRANCH   1  36
ATOM      4  C   UNL     1     141.894 168.896 188.302  0.00  0.00    +0.020 C 
ATOM      5  C   UNL     1     141.263 169.929 189.279  0.00  0.00    +0.068 C 
ATOM      6  C   UNL     1     142.206 170.440 190.400  0.00  0.00    -0.008 C 
ATOM      7  C   UNL     1     143.100 169.418 191.048  0.00  0.00    -0.077 C 
ATOM      8  C   UNL     1     142.693 168.339 191.735  0.00  0.00    -0.003 C 
ATOM      9  C   UNL     1     143.658 167.447 192.280  0.00  0.00    +0.220 A 
ATOM     10  N   UNL     1     144.902 167.279 191.840  0.00  0.00    -0.205 NA
ATOM     11  C   UNL     1     145.500 166.445 192.750  0.00  0.00    +0.164 A 
ATOM     12  C   UNL     1     144.594 166.071 193.701  0.00  0.00    +0.125 A 
ATOM     13  O   UNL     1     143.404 166.661 193.398  0.00  0.00    -0.443 OA
ATOM     14  C   UNL     1     147.000 166.043 192.700  0.00  0.00    +0.250 A 
ATOM     15  N   UNL     1     147.794 166.360 191.689  0.00  0.00    -0.203 NA
ATOM     16  C   UNL     1     149.033 165.920 192.083  0.00  0.00    +0.164 A 
ATOM     17  C   UNL     1     148.943 165.305 193.302  0.00  0.00    +0.125 A 
ATOM     18  O   UNL     1     147.640 165.353 193.703  0.00  0.00    -0.442 OA
ATOM     19  C   UNL     1     150.339 166.082 191.250  0.00  0.00    +0.249 A 
ATOM     20  N   UNL     1     150.360 166.567 190.020  0.00  0.00    -0.210 NA
ATOM     21  C   UNL     1     151.676 166.462 189.621  0.00  0.00    +0.109 A 
ATOM     22  C   UNL     1     152.421 165.989 190.672  0.00  0.00    +0.118 A 
ATOM     23  O   UNL     1     151.580 165.695 191.703  0.00  0.00    -0.442 OA
ATOM     24  C   UNL     1     152.107 166.838 188.233  0.00  0.00    +0.113 C 
ATOM     25  C   UNL     1     152.062 165.673 187.223  0.00  0.00    +0.051 C 
ATOM     26  C   UNL     1     150.697 165.558 186.567  0.00  0.00    +0.161 C 
ATOM     27  O   UNL     1     150.545 165.891 185.390  0.00  0.00    -0.292 OA
ATOM     28  C   UNL     1     149.539 165.072 187.370  0.00  0.00    -0.023 C 
ATOM     29  C   UNL     1     148.293 165.125 186.872  0.00  0.00    -0.078 C 
ATOM     30  C   UNL     1     147.066 164.787 187.672  0.00  0.00    -0.008 C 
ATOM     31  C   UNL     1     146.213 166.027 187.984  0.00  0.00    +0.069 C 
ATOM     32  C   UNL     1     145.508 166.581 186.748  0.00  0.00    +0.071 C 
ATOM     33  C   UNL     1     145.124 168.004 187.033  0.00  0.00    +0.310 C 
ATOM     34  O   UNL     1     145.946 168.876 187.279  0.00  0.00    -0.251 OA
ATOM     35  O   UNL     1     143.778 168.167 187.017  0.00  0.00    -0.461 OA
ATOM     36  C   UNL     1     143.244 169.344 187.678  0.00  0.00    +0.110 C 
ATOM     37  H   UNL     1     142.079 167.967 188.866  0.00  0.00    +0.036 HD
ATOM     38  H   UNL     1     140.926 170.796 188.698  0.00  0.00    +0.060 HD
ATOM     39  H   UNL     1     142.850 171.215 189.975  0.00  0.00    +0.033 HD
ATOM     40  H   UNL     1     141.631 170.935 191.190  0.00  0.00    +0.033 HD
ATOM     41  H   UNL     1     144.171 169.591 190.920  0.00  0.00    +0.057 HD
ATOM     42  H   UNL     1     141.644 168.136 191.908  0.00  0.00    +0.067 HD
ATOM     43  H   UNL     1     144.610 165.442 194.578  0.00  0.00    +0.105 HD
ATOM     44  H   UNL     1     149.643 164.825 193.974  0.00  0.00    +0.105 HD
ATOM     45  H   UNL     1     153.469 165.764 190.814  0.00  0.00    +0.105 HD
ATOM     46  H   UNL     1     151.426 167.634 187.902  0.00  0.00    +0.067 HD
ATOM     47  H   UNL     1     152.744 165.931 186.398  0.00  0.00    +0.041 HD
ATOM     48  H   UNL     1     149.722 164.744 188.385  0.00  0.00    +0.065 HD
ATOM     49  H   UNL     1     148.141 165.462 185.849  0.00  0.00    +0.057 HD
ATOM     50  H   UNL     1     146.469 164.042 187.133  0.00  0.00    +0.033 HD
ATOM     51  H   UNL     1     147.348 164.305 188.618  0.00  0.00    +0.033 HD
ATOM     52  H   UNL     1     146.845 166.789 188.457  0.00  0.00    +0.060 HD
ATOM     53  H   UNL     1     146.152 166.612 185.861  0.00  0.00    +0.040 HD
ATOM     54  H   UNL     1     144.617 165.993 186.493  0.00  0.00    +0.040 HD
ATOM     55  H   UNL     1     143.918 169.597 188.498  0.00  0.00    +0.074 HD
BRANCH   4  56
ATOM     56  C   UNL     1     140.883 168.483 187.216  0.00  0.00    -0.057 C 
ATOM     57  H   UNL     1     141.370 167.905 186.425  0.00  0.00    +0.023 HD
ATOM     58  H   UNL     1     140.416 169.356 186.757  0.00  0.00    +0.023 HD
ATOM     59  H   UNL     1     140.089 167.853 187.630  0.00  0.00    +0.023 HD
ENDBRANCH   4  56
BRANCH  25  60
ATOM     60  C   UNL     1     152.575 164.327 187.736  0.00  0.00    -0.053 C 
ATOM     61  H   UNL     1     151.837 163.797 188.347  0.00  0.00    +0.024 HD
ATOM     62  H   UNL     1     153.487 164.460 188.329  0.00  0.00    +0.024 HD
ATOM     63  H   UNL     1     152.817 163.672 186.889  0.00  0.00    +0.024 HD
ENDBRANCH  25  60
BRANCH  31  64
ATOM     64  O   UNL     1     145.209 165.656 188.934  0.00  0.00    -0.391 OA
ATOM     65  H   UNL     1     145.377 164.720 189.173  0.00  0.00    +0.210 HD
ENDBRANCH  31  64
BRANCH  24  66
ATOM     66  O   UNL     1     153.449 167.364 188.272  0.00  0.00    -0.373 OA
BRANCH  66  67
ATOM     67  C   UNL     1     154.064 167.356 186.988  0.00  0.00    +0.037 C 
ATOM     68  H   UNL     1     154.791 166.542 186.906  0.00  0.00    +0.052 HD
ATOM     69  H   UNL     1     153.307 167.262 186.202  0.00  0.00    +0.052 HD
ATOM     70  H   UNL     1     154.588 168.306 186.853  0.00  0.00    +0.052 HD
ENDBRANCH  66  67
ENDBRANCH  24  66
BRANCH   5  71
ATOM     71  O   UNL     1     140.104 169.317 189.884  0.00  0.00    -0.379 OA
BRANCH  71  72
ATOM     72  C   UNL     1     139.076 170.256 190.178  0.00  0.00    +0.037 C 
ATOM     73  H   UNL     1     139.408 171.283 190.003  0.00  0.00    +0.052 HD
ATOM     74  H   UNL     1     138.813 170.149 191.235  0.00  0.00    +0.052 HD
ATOM     75  H   UNL     1     138.186 170.043 189.576  0.00  0.00    +0.052 HD
ENDBRANCH  71  72
ENDBRANCH   5  71
ENDBRANCH   1  36
BRANCH   1  76
ATOM     76  C   UNL     1     143.490 171.881 187.258  0.00  0.00    +0.064 C 
ATOM     77  H   UNL     1     142.927 172.060 188.180  0.00  0.00    +0.060 HD
BRANCH  76  78
ATOM     78  C   UNL     1     145.009 172.024 187.554  0.00  0.00    -0.017 C 
ATOM     79  H   UNL     1     145.460 171.040 187.419  0.00  0.00    +0.032 HD
BRANCH  78  80
ATOM     80  C   UNL     1     145.635 172.956 186.488  0.00  0.00    -0.060 C 
ATOM     81  H   UNL     1     146.730 172.928 186.539  0.00  0.00    +0.023 HD
ATOM     82  H   UNL     1     145.358 172.650 185.476  0.00  0.00    +0.023 HD
ATOM     83  H   UNL     1     145.315 173.992 186.639  0.00  0.00    +0.023 HD
ENDBRANCH  78  80
BRANCH  78  84
ATOM     84  C   UNL     1     145.400 172.594 188.927  0.00  0.00    -0.045 C 
ATOM     85  H   UNL     1     146.198 171.963 189.349  0.00  0.00    +0.027 HD
ATOM     86  H   UNL     1     145.870 173.582 188.785  0.00  0.00    +0.027 HD
BRANCH  84  87
ATOM     87  C   UNL     1     144.351 172.715 190.045  0.00  0.00    -0.015 C 
ATOM     88  H   UNL     1     143.602 173.398 189.628  0.00  0.00    +0.030 HD
ATOM     89  H   UNL     1     143.826 171.761 190.172  0.00  0.00    +0.030 HD
BRANCH  87  90
ATOM     90  C   UNL     1     144.760 173.249 191.439  0.00  0.00    +0.109 C 
ATOM     91  H   UNL     1     144.611 172.430 192.154  0.00  0.00    +0.074 HD
BRANCH  90  92
ATOM     92  C   UNL     1     143.887 174.489 191.852  0.00  0.00    +0.031 C 
ATOM     93  H   UNL     1     144.291 175.362 191.327  0.00  0.00    +0.037 HD
BRANCH  92  94
ATOM     94  C   UNL     1     144.055 174.847 193.341  0.00  0.00    -0.056 C 
ATOM     95  H   UNL     1     143.340 174.307 193.964  0.00  0.00    +0.023 HD
ATOM     96  H   UNL     1     143.938 175.920 193.511  0.00  0.00    +0.023 HD
ATOM     97  H   UNL     1     145.050 174.556 193.701  0.00  0.00    +0.023 HD
ENDBRANCH  92  94
BRANCH  92  98
ATOM     98  C   UNL     1     142.353 174.376 191.568  0.00  0.00    +0.115 C 
ATOM     99  H   UNL     1     142.182 173.484 190.947  0.00  0.00    +0.074 HD
BRANCH  98 100
ATOM    100  C   UNL     1     141.446 174.160 192.817  0.00  0.00    +0.013 C 
ATOM    101  H   UNL     1     142.063 173.942 193.692  0.00  0.00    +0.038 HD
BRANCH 100 102
ATOM    102  C   UNL     1     140.461 172.999 192.618  0.00  0.00    -0.056 C 
ATOM    103  H   UNL     1     140.966 172.103 192.233  0.00  0.00    +0.024 HD
ATOM    104  H   UNL     1     139.970 172.724 193.564  0.00  0.00    +0.024 HD
ATOM    105  H   UNL     1     139.679 173.259 191.898  0.00  0.00    +0.024 HD
ENDBRANCH 100 102
BRANCH 100 106
ATOM    106  C   UNL     1     140.637 175.410 193.125  0.00  0.00    -0.064 C 
ATOM    107  C   UNL     1     140.775 176.119 194.255  0.00  0.00    -0.005 C 
ATOM    108  H   UNL     1     139.908 175.698 192.371  0.00  0.00    +0.059 HD
ATOM    109  H   UNL     1     141.494 175.771 194.995  0.00  0.00    +0.078 HD
BRANCH 107 110
ATOM    110  N   UNL     1     140.081 177.260 194.624  0.00  0.00    -0.284 N 
ATOM    111  C   UNL     1     139.362 177.419 195.810  0.00  0.00    +0.206 C 
ATOM    112  O   UNL     1     139.207 176.624 196.730  0.00  0.00    -0.279 OA
ATOM    113  H   UNL     1     138.885 178.412 195.871  0.00  0.00    +0.126 HD
BRANCH 110 114
ATOM    114  C   UNL     1     140.108 178.378 193.685  0.00  0.00    +0.007 C 
ATOM    115  H   UNL     1     140.877 179.091 194.003  0.00  0.00    +0.043 HD
ATOM    116  H   UNL     1     139.147 178.902 193.646  0.00  0.00    +0.043 HD
ATOM    117  H   UNL     1     140.344 178.004 192.684  0.00  0.00    +0.043 HD
ENDBRANCH 110 114
ENDBRANCH 107 110
ENDBRANCH 100 106
ENDBRANCH  98 100
BRANCH  98 118
ATOM    118  O   UNL     1     141.894 175.554 190.866  0.00  0.00    -0.461 OA
BRANCH 118 119
ATOM    119  C   UNL     1     141.502 175.371 189.572  0.00  0.00    +0.304 C 
ATOM    120  O   UNL     1     141.379 174.295 189.004  0.00  0.00    -0.251 OA
BRANCH 119 121
ATOM    121  C   UNL     1     141.267 176.692 188.905  0.00  0.00    +0.033 C 
ATOM    122  H   UNL     1     140.785 177.373 189.609  0.00  0.00    +0.034 HD
ATOM    123  H   UNL     1     140.651 176.555 188.012  0.00  0.00    +0.034 HD
ATOM    124  H   UNL     1     142.225 177.113 188.587  0.00  0.00    +0.034 HD
ENDBRANCH 119 121
ENDBRANCH 118 119
ENDBRANCH  98 118
ENDBRANCH  92  98
ENDBRANCH  90  92
BRANCH  90 125
ATOM    125  O   UNL     1     146.167 173.605 191.416  0.00  0.00    -0.459 OA
BRANCH 125 126
ATOM    126  C   UNL     1     146.973 172.958 192.322  0.00  0.00    +0.339 C 
ATOM    127  O   UNL     1     147.125 173.319 193.483  0.00  0.00    -0.248 OA
BRANCH 126 128
ATOM    128  C   UNL     1     147.735 171.773 191.704  0.00  0.00    +0.178 C 
ATOM    129  H   UNL     1     147.889 172.023 190.642  0.00  0.00    +0.074 HD
BRANCH 128 130
ATOM    130  C   UNL     1     149.105 171.648 192.374  0.00  0.00    +0.084 C 
ATOM    131  H   UNL     1     149.406 172.609 192.795  0.00  0.00    +0.059 HD
ATOM    132  H   UNL     1     149.037 170.947 193.214  0.00  0.00    +0.059 HD
BRANCH 130 133
ATOM    133  O   UNL     1     150.091 171.182 191.455  0.00  0.00    -0.380 OA
BRANCH 133 134
ATOM    134  C   UNL     1     150.598 169.910 191.831  0.00  0.00    +0.037 C 
ATOM    135  H   UNL     1     149.985 169.117 191.391  0.00  0.00    +0.052 HD
ATOM    136  H   UNL     1     151.617 169.816 191.447  0.00  0.00    +0.052 HD
ATOM    137  H   UNL     1     150.620 169.801 192.920  0.00  0.00    +0.052 HD
ENDBRANCH 133 134
ENDBRANCH 130 133
ENDBRANCH 128 130
BRANCH 128 138
ATOM    138  O   UNL     1     147.086 170.502 191.802  0.00  0.00    -0.366 OA
BRANCH 138 139
ATOM    139  C   UNL     1     147.020 169.832 190.551  0.00  0.00    +0.038 C 
ATOM    140  H   UNL     1     145.969 169.753 190.261  0.00  0.00    +0.052 HD
ATOM    141  H   UNL     1     147.430 168.820 190.637  0.00  0.00    +0.052 HD
ATOM    142  H   UNL     1     147.555 170.390 189.777  0.00  0.00    +0.052 HD
ENDBRANCH 138 139
ENDBRANCH 128 138
ENDBRANCH 126 128
ENDBRANCH 125 126
ENDBRANCH  90 125
ENDBRANCH  87  90
ENDBRANCH  84  87
ENDBRANCH  78  84
ENDBRANCH  76  78
BRANCH  76 143
ATOM    143  O   UNL     1     143.185 172.869 186.256  0.00  0.00    -0.379 OA
BRANCH 143 144
ATOM    144  C   UNL     1     141.850 172.805 185.770  0.00  0.00    +0.037 C 
ATOM    145  H   UNL     1     141.800 172.018 185.010  0.00  0.00    +0.052 HD
ATOM    146  H   UNL     1     141.533 173.749 185.313  0.00  0.00    +0.052 HD
ATOM    147  H   UNL     1     141.166 172.531 186.575  0.00  0.00    +0.052 HD
ENDBRANCH 143 144
ENDBRANCH  76 143
ENDBRANCH   1  76
TORSDOF 35
ENDMDL
MODEL 6
REMARK VINA RESULT:      -6.0      4.620      8.547
REMARK  Name = Mycalolide B_conf3
REMARK  35 active torsions:
REMARK  status: ('A' for Active; 'I' for Inactive)
REMARK    1  A    between atoms: C_1  and  C_2
REMARK    2  A    between atoms: C_3  and  O_72
REMARK    3  A    between atoms: C_22  and  O_70
REMARK    4  A    between atoms: C_23  and  C_69
REMARK    5  A    between atoms: C_29  and  O_68
REMARK    6  A    between atoms: C_34  and  C_35
REMARK    7  A    between atoms: C_35  and  C_36
REMARK    8  A    between atoms: C_36  and  C_37
REMARK    9  A    between atoms: C_36  and  O_66
REMARK   10  A    between atoms: C_37  and  C_38
REMARK   11  A    between atoms: C_37  and  C_39
REMARK   12  A    between atoms: C_39  and  C_40
REMARK   13  A    between atoms: C_40  and  C_41
REMARK   14  A    between atoms: C_41  and  C_42
REMARK   15  A    between atoms: C_41  and  O_57
REMARK   16  A    between atoms: C_42  and  C_43
REMARK   17  A    between atoms: C_42  and  C_44
REMARK   18  A    between atoms: C_44  and  C_45
REMARK   19  A    between atoms: C_44  and  O_53
REMARK   20  A    between atoms: C_45  and  C_46
REMARK   21  A    between atoms: C_45  and  C_47
REMARK   22  A    between atoms: C_48  and  N_49
REMARK   23  A    between atoms: N_49  and  C_50
REMARK   24  A    between atoms: O_53  and  C_54
REMARK   25  A    between atoms: C_54  and  C_56
REMARK   26  A    between atoms: O_57  and  C_58
REMARK   27  A    between atoms: C_58  and  C_60
REMARK   28  A    between atoms: C_60  and  C_61
REMARK   29  A    between atoms: C_60  and  O_64
REMARK   30  A    between atoms: C_61  and  O_62
REMARK   31  A    between atoms: O_62  and  C_63
REMARK   32  A    between atoms: O_64  and  C_65
REMARK   33  A    between atoms: O_66  and  C_67
REMARK   34  A    between atoms: O_70  and  C_71
REMARK   35  A    between atoms: O_72  and  C_73
REMARK                            x       y       z     vdW  Elec       q    Type
REMARK                         _______ _______ _______ _____ _____    ______ ____
ROOT
ATOM      1  C   UNL     1     155.129 164.218 187.411  0.00  0.00    +0.011 C 
ATOM      2  H   UNL     1     154.700 164.267 186.404  0.00  0.00    +0.033 HD
ATOM      3  H   UNL     1     155.873 165.018 187.501  0.00  0.00    +0.033 HD
ENDROOT
BRANCH   1  36
ATOM      4  C   UNL     1     155.684 161.896 186.390  0.00  0.00    +0.020 C 
ATOM      5  C   UNL     1     154.244 161.349 186.176  0.00  0.00    +0.068 C 
ATOM      6  C   UNL     1     153.588 160.706 187.426  0.00  0.00    -0.008 C 
ATOM      7  C   UNL     1     154.474 159.844 188.284  0.00  0.00    -0.077 C 
ATOM      8  C   UNL     1     155.090 158.717 187.896  0.00  0.00    -0.003 C 
ATOM      9  C   UNL     1     155.914 158.012 188.819  0.00  0.00    +0.220 A 
ATOM     10  N   UNL     1     156.521 158.535 189.880  0.00  0.00    -0.205 NA
ATOM     11  C   UNL     1     157.071 157.470 190.546  0.00  0.00    +0.164 A 
ATOM     12  C   UNL     1     156.839 156.318 189.849  0.00  0.00    +0.125 A 
ATOM     13  O   UNL     1     156.143 156.645 188.725  0.00  0.00    -0.443 OA
ATOM     14  C   UNL     1     157.803 157.587 191.912  0.00  0.00    +0.250 A 
ATOM     15  N   UNL     1     158.081 158.751 192.479  0.00  0.00    -0.203 NA
ATOM     16  C   UNL     1     158.621 158.413 193.695  0.00  0.00    +0.164 A 
ATOM     17  C   UNL     1     158.696 157.052 193.808  0.00  0.00    +0.125 A 
ATOM     18  O   UNL     1     158.198 156.505 192.662  0.00  0.00    -0.442 OA
ATOM     19  C   UNL     1     159.092 159.435 194.771  0.00  0.00    +0.249 A 
ATOM     20  N   UNL     1     159.121 160.742 194.569  0.00  0.00    -0.210 NA
ATOM     21  C   UNL     1     159.672 161.265 195.719  0.00  0.00    +0.109 A 
ATOM     22  C   UNL     1     159.880 160.246 196.614  0.00  0.00    +0.118 A 
ATOM     23  O   UNL     1     159.562 159.066 196.011  0.00  0.00    -0.442 OA
ATOM     24  C   UNL     1     159.954 162.733 195.856  0.00  0.00    +0.113 C 
ATOM     25  C   UNL     1     161.367 163.149 195.394  0.00  0.00    +0.051 C 
ATOM     26  C   UNL     1     161.394 163.472 193.910  0.00  0.00    +0.161 C 
ATOM     27  O   UNL     1     161.498 164.640 193.532  0.00  0.00    -0.292 OA
ATOM     28  C   UNL     1     161.259 162.366 192.919  0.00  0.00    -0.023 C 
ATOM     29  C   UNL     1     161.104 162.636 191.613  0.00  0.00    -0.078 C 
ATOM     30  C   UNL     1     160.821 161.583 190.578  0.00  0.00    -0.008 C 
ATOM     31  C   UNL     1     159.392 161.681 190.022  0.00  0.00    +0.069 C 
ATOM     32  C   UNL     1     159.190 162.907 189.133  0.00  0.00    +0.071 C 
ATOM     33  C   UNL     1     157.716 163.180 189.048  0.00  0.00    +0.310 C 
ATOM     34  O   UNL     1     157.035 163.451 190.027  0.00  0.00    -0.251 OA
ATOM     35  O   UNL     1     157.260 163.047 187.777  0.00  0.00    -0.461 OA
ATOM     36  C   UNL     1     155.831 162.857 187.602  0.00  0.00    +0.110 C 
ATOM     37  H   UNL     1     156.350 161.036 186.562  0.00  0.00    +0.036 HD
ATOM     38  H   UNL     1     153.603 162.175 185.843  0.00  0.00    +0.060 HD
ATOM     39  H   UNL     1     153.203 161.510 188.058  0.00  0.00    +0.033 HD
ATOM     40  H   UNL     1     152.714 160.111 187.139  0.00  0.00    +0.033 HD
ATOM     41  H   UNL     1     154.617 160.201 189.307  0.00  0.00    +0.057 HD
ATOM     42  H   UNL     1     154.961 158.311 186.902  0.00  0.00    +0.067 HD
ATOM     43  H   UNL     1     157.080 155.275 189.980  0.00  0.00    +0.105 HD
ATOM     44  H   UNL     1     159.041 156.362 194.568  0.00  0.00    +0.105 HD
ATOM     45  H   UNL     1     160.275 160.192 197.620  0.00  0.00    +0.105 HD
ATOM     46  H   UNL     1     159.204 163.251 195.243  0.00  0.00    +0.067 HD
ATOM     47  H   UNL     1     161.602 164.104 195.889  0.00  0.00    +0.041 HD
ATOM     48  H   UNL     1     161.217 161.350 193.289  0.00  0.00    +0.065 HD
ATOM     49  H   UNL     1     161.147 163.669 191.272  0.00  0.00    +0.057 HD
ATOM     50  H   UNL     1     161.551 161.664 189.763  0.00  0.00    +0.033 HD
ATOM     51  H   UNL     1     160.967 160.581 191.003  0.00  0.00    +0.033 HD
ATOM     52  H   UNL     1     158.679 161.674 190.857  0.00  0.00    +0.060 HD
ATOM     53  H   UNL     1     159.644 163.817 189.542  0.00  0.00    +0.040 HD
ATOM     54  H   UNL     1     159.604 162.750 188.128  0.00  0.00    +0.040 HD
ATOM     55  H   UNL     1     155.456 162.334 188.483  0.00  0.00    +0.074 HD
BRANCH   4  56
ATOM     56  C   UNL     1     156.222 162.538 185.097  0.00  0.00    -0.057 C 
ATOM     57  H   UNL     1     155.900 163.580 185.011  0.00  0.00    +0.023 HD
ATOM     58  H   UNL     1     155.872 162.002 184.213  0.00  0.00    +0.023 HD
ATOM     59  H   UNL     1     157.317 162.540 185.080  0.00  0.00    +0.023 HD
ENDBRANCH   4  56
BRANCH  25  60
ATOM     60  C   UNL     1     162.503 162.213 195.806  0.00  0.00    -0.053 C 
ATOM     61  H   UNL     1     163.283 162.721 196.384  0.00  0.00    +0.024 HD
ATOM     62  H   UNL     1     162.966 161.754 194.926  0.00  0.00    +0.024 HD
ATOM     63  H   UNL     1     162.112 161.407 196.440  0.00  0.00    +0.024 HD
ENDBRANCH  25  60
BRANCH  31  64
ATOM     64  O   UNL     1     159.134 160.516 189.231  0.00  0.00    -0.391 OA
ATOM     65  H   UNL     1     160.002 160.091 189.064  0.00  0.00    +0.210 HD
ENDBRANCH  31  64
BRANCH  24  66
ATOM     66  O   UNL     1     159.783 163.130 197.231  0.00  0.00    -0.373 OA
BRANCH  66  67
ATOM     67  C   UNL     1     158.455 163.566 197.501  0.00  0.00    +0.037 C 
ATOM     68  H   UNL     1     158.060 163.084 198.401  0.00  0.00    +0.052 HD
ATOM     69  H   UNL     1     158.425 164.655 197.616  0.00  0.00    +0.052 HD
ATOM     70  H   UNL     1     157.824 163.289 196.652  0.00  0.00    +0.052 HD
ENDBRANCH  66  67
ENDBRANCH  24  66
BRANCH   5  71
ATOM     71  O   UNL     1     154.295 160.368 185.117  0.00  0.00    -0.379 OA
BRANCH  71  72
ATOM     72  C   UNL     1     153.013 159.850 184.784  0.00  0.00    +0.037 C 
ATOM     73  H   UNL     1     152.973 159.514 183.744  0.00  0.00    +0.052 HD
ATOM     74  H   UNL     1     152.279 160.651 184.920  0.00  0.00    +0.052 HD
ATOM     75  H   UNL     1     152.752 159.025 185.455  0.00  0.00    +0.052 HD
ENDBRANCH  71  72
ENDBRANCH   5  71
ENDBRANCH   1  36
BRANCH   1  76
ATOM     76  C   UNL     1     153.977 164.469 188.398  0.00  0.00    +0.064 C 
ATOM     77  H   UNL     1     153.712 163.536 188.905  0.00  0.00    +0.060 HD
BRANCH  76  78
ATOM     78  C   UNL     1     154.309 165.551 189.463  0.00  0.00    -0.017 C 
ATOM     79  H   UNL     1     154.577 165.030 190.383  0.00  0.00    +0.032 HD
BRANCH  78  80
ATOM     80  C   UNL     1     155.565 166.329 189.004  0.00  0.00    -0.060 C 
ATOM     81  H   UNL     1     155.290 167.165 188.351  0.00  0.00    +0.023 HD
ATOM     82  H   UNL     1     156.104 166.757 189.854  0.00  0.00    +0.023 HD
ATOM     83  H   UNL     1     156.248 165.677 188.451  0.00  0.00    +0.023 HD
ENDBRANCH  78  80
BRANCH  78  84
ATOM     84  C   UNL     1     153.220 166.598 189.755  0.00  0.00    -0.045 C 
ATOM     85  H   UNL     1     153.706 167.580 189.864  0.00  0.00    +0.027 HD
ATOM     86  H   UNL     1     152.575 166.703 188.866  0.00  0.00    +0.027 HD
BRANCH  84  87
ATOM     87  C   UNL     1     152.319 166.457 190.992  0.00  0.00    -0.015 C 
ATOM     88  H   UNL     1     152.955 165.943 191.722  0.00  0.00    +0.030 HD
ATOM     89  H   UNL     1     152.125 167.442 191.430  0.00  0.00    +0.030 HD
BRANCH  87  90
ATOM     90  C   UNL     1     150.982 165.682 190.895  0.00  0.00    +0.109 C 
ATOM     91  H   UNL     1     150.959 165.205 189.907  0.00  0.00    +0.074 HD
BRANCH  90  92
ATOM     92  C   UNL     1     149.752 166.647 191.055  0.00  0.00    +0.031 C 
ATOM     93  H   UNL     1     148.880 166.027 191.294  0.00  0.00    +0.037 HD
BRANCH  92  94
ATOM     94  C   UNL     1     149.368 167.323 189.725  0.00  0.00    -0.056 C 
ATOM     95  H   UNL     1     149.226 166.590 188.931  0.00  0.00    +0.023 HD
ATOM     96  H   UNL     1     150.124 168.048 189.411  0.00  0.00    +0.023 HD
ATOM     97  H   UNL     1     148.412 167.854 189.821  0.00  0.00    +0.023 HD
ENDBRANCH  92  94
BRANCH  92  98
ATOM     98  C   UNL     1     149.898 167.775 192.128  0.00  0.00    +0.115 C 
ATOM     99  H   UNL     1     150.854 167.631 192.654  0.00  0.00    +0.074 HD
BRANCH  98 100
ATOM    100  C   UNL     1     149.972 169.231 191.577  0.00  0.00    +0.013 C 
ATOM    101  H   UNL     1     149.799 169.229 190.499  0.00  0.00    +0.038 HD
BRANCH 100 102
ATOM    102  C   UNL     1     151.337 169.879 191.849  0.00  0.00    -0.056 C 
ATOM    103  H   UNL     1     151.958 169.253 192.504  0.00  0.00    +0.024 HD
ATOM    104  H   UNL     1     151.896 170.041 190.915  0.00  0.00    +0.024 HD
ATOM    105  H   UNL     1     151.226 170.848 192.345  0.00  0.00    +0.024 HD
ENDBRANCH 100 102
BRANCH 100 106
ATOM    106  C   UNL     1     148.905 170.108 192.213  0.00  0.00    -0.064 C 
ATOM    107  C   UNL     1     148.852 171.439 192.052  0.00  0.00    -0.005 C 
ATOM    108  H   UNL     1     148.177 169.592 192.835  0.00  0.00    +0.059 HD
ATOM    109  H   UNL     1     149.623 171.914 191.448  0.00  0.00    +0.078 HD
BRANCH 107 110
ATOM    110  N   UNL     1     147.927 172.317 192.595  0.00  0.00    -0.284 N 
ATOM    111  C   UNL     1     146.657 172.575 192.077  0.00  0.00    +0.206 C 
ATOM    112  O   UNL     1     146.118 172.097 191.085  0.00  0.00    -0.279 OA
ATOM    113  H   UNL     1     146.111 173.321 192.678  0.00  0.00    +0.126 HD
BRANCH 110 114
ATOM    114  C   UNL     1     148.330 173.027 193.806  0.00  0.00    +0.007 C 
ATOM    115  H   UNL     1     148.340 172.321 194.645  0.00  0.00    +0.043 HD
ATOM    116  H   UNL     1     147.640 173.841 194.050  0.00  0.00    +0.043 HD
ATOM    117  H   UNL     1     149.330 173.445 193.664  0.00  0.00    +0.043 HD
ENDBRANCH 110 114
ENDBRANCH 107 110
ENDBRANCH 100 106
ENDBRANCH  98 100
BRANCH  98 118
ATOM    118  O   UNL     1     148.806 167.697 193.075  0.00  0.00    -0.461 OA
BRANCH 118 119
ATOM    119  C   UNL     1     148.949 166.794 194.088  0.00  0.00    +0.304 C 
ATOM    120  O   UNL     1     150.006 166.432 194.583  0.00  0.00    -0.251 OA
BRANCH 119 121
ATOM    121  C   UNL     1     147.612 166.261 194.505  0.00  0.00    +0.033 C 
ATOM    122  H   UNL     1     147.674 165.889 195.529  0.00  0.00    +0.034 HD
ATOM    123  H   UNL     1     147.298 165.467 193.822  0.00  0.00    +0.034 HD
ATOM    124  H   UNL     1     146.869 167.061 194.450  0.00  0.00    +0.034 HD
ENDBRANCH 119 121
ENDBRANCH 118 119
ENDBRANCH  98 118
ENDBRANCH  92  98
ENDBRANCH  90  92
BRANCH  90 125
ATOM    125  O   UNL     1     150.955 164.653 191.917  0.00  0.00    -0.459 OA
BRANCH 125 126
ATOM    126  C   UNL     1     149.938 163.732 191.828  0.00  0.00    +0.339 C 
ATOM    127  O   UNL     1     149.086 163.568 192.692  0.00  0.00    -0.248 OA
BRANCH 126 128
ATOM    128  C   UNL     1     150.024 162.868 190.558  0.00  0.00    +0.178 C 
ATOM    129  H   UNL     1     150.160 163.566 189.716  0.00  0.00    +0.074 HD
BRANCH 128 130
ATOM    130  C   UNL     1     151.259 161.968 190.643  0.00  0.00    +0.084 C 
ATOM    131  H   UNL     1     152.097 162.431 190.117  0.00  0.00    +0.059 HD
ATOM    132  H   UNL     1     151.566 161.869 191.691  0.00  0.00    +0.059 HD
BRANCH 130 133
ATOM    133  O   UNL     1     150.995 160.674 190.108  0.00  0.00    -0.380 OA
BRANCH 133 134
ATOM    134  C   UNL     1     151.704 159.662 190.811  0.00  0.00    +0.037 C 
ATOM    135  H   UNL     1     151.274 158.680 190.587  0.00  0.00    +0.052 HD
ATOM    136  H   UNL     1     152.744 159.672 190.475  0.00  0.00    +0.052 HD
ATOM    137  H   UNL     1     151.679 159.842 191.890  0.00  0.00    +0.052 HD
ENDBRANCH 133 134
ENDBRANCH 130 133
ENDBRANCH 128 130
BRANCH 128 138
ATOM    138  O   UNL     1     148.894 162.031 190.301  0.00  0.00    -0.366 OA
BRANCH 138 139
ATOM    139  C   UNL     1     148.036 162.573 189.308  0.00  0.00    +0.038 C 
ATOM    140  H   UNL     1     147.873 163.630 189.536  0.00  0.00    +0.052 HD
ATOM    141  H   UNL     1     147.066 162.065 189.322  0.00  0.00    +0.052 HD
ATOM    142  H   UNL     1     148.485 162.497 188.314  0.00  0.00    +0.052 HD
ENDBRANCH 138 139
ENDBRANCH 128 138
ENDBRANCH 126 128
ENDBRANCH 125 126
ENDBRANCH  90 125
ENDBRANCH  87  90
ENDBRANCH  84  87
ENDBRANCH  78  84
ENDBRANCH  76  78
BRANCH  76 143
ATOM    143  O   UNL     1     152.869 164.987 187.637  0.00  0.00    -0.379 OA
BRANCH 143 144
ATOM    144  C   UNL     1     151.812 164.055 187.450  0.00  0.00    +0.037 C 
ATOM    145  H   UNL     1     152.079 163.127 187.968  0.00  0.00    +0.052 HD
ATOM    146  H   UNL     1     151.648 163.826 186.391  0.00  0.00    +0.052 HD
ATOM    147  H   UNL     1     150.890 164.430 187.898  0.00  0.00    +0.052 HD
ENDBRANCH 143 144
ENDBRANCH  76 143
ENDBRANCH   1  76
TORSDOF 35
ENDMDL
MODEL 7
REMARK VINA RESULT:      -6.0      2.176      4.495
REMARK  Name = Mycalolide B_conf3
REMARK  35 active torsions:
REMARK  status: ('A' for Active; 'I' for Inactive)
REMARK    1  A    between atoms: C_1  and  C_2
REMARK    2  A    between atoms: C_3  and  O_72
REMARK    3  A    between atoms: C_22  and  O_70
REMARK    4  A    between atoms: C_23  and  C_69
REMARK    5  A    between atoms: C_29  and  O_68
REMARK    6  A    between atoms: C_34  and  C_35
REMARK    7  A    between atoms: C_35  and  C_36
REMARK    8  A    between atoms: C_36  and  C_37
REMARK    9  A    between atoms: C_36  and  O_66
REMARK   10  A    between atoms: C_37  and  C_38
REMARK   11  A    between atoms: C_37  and  C_39
REMARK   12  A    between atoms: C_39  and  C_40
REMARK   13  A    between atoms: C_40  and  C_41
REMARK   14  A    between atoms: C_41  and  C_42
REMARK   15  A    between atoms: C_41  and  O_57
REMARK   16  A    between atoms: C_42  and  C_43
REMARK   17  A    between atoms: C_42  and  C_44
REMARK   18  A    between atoms: C_44  and  C_45
REMARK   19  A    between atoms: C_44  and  O_53
REMARK   20  A    between atoms: C_45  and  C_46
REMARK   21  A    between atoms: C_45  and  C_47
REMARK   22  A    between atoms: C_48  and  N_49
REMARK   23  A    between atoms: N_49  and  C_50
REMARK   24  A    between atoms: O_53  and  C_54
REMARK   25  A    between atoms: C_54  and  C_56
REMARK   26  A    between atoms: O_57  and  C_58
REMARK   27  A    between atoms: C_58  and  C_60
REMARK   28  A    between atoms: C_60  and  C_61
REMARK   29  A    between atoms: C_60  and  O_64
REMARK   30  A    between atoms: C_61  and  O_62
REMARK   31  A    between atoms: O_62  and  C_63
REMARK   32  A    between atoms: O_64  and  C_65
REMARK   33  A    between atoms: O_66  and  C_67
REMARK   34  A    between atoms: O_70  and  C_71
REMARK   35  A    between atoms: O_72  and  C_73
REMARK                            x       y       z     vdW  Elec       q    Type
REMARK                         _______ _______ _______ _____ _____    ______ ____
ROOT
ATOM      1  C   UNL     1     154.034 164.602 188.920  0.00  0.00    +0.011 C 
ATOM      2  H   UNL     1     154.203 165.580 189.383  0.00  0.00    +0.033 HD
ATOM      3  H   UNL     1     154.000 163.852 189.718  0.00  0.00    +0.033 HD
ENDROOT
BRANCH   1  36
ATOM      4  C   UNL     1     155.602 162.772 187.954  0.00  0.00    +0.020 C 
ATOM      5  C   UNL     1     156.258 162.262 189.269  0.00  0.00    +0.068 C 
ATOM      6  C   UNL     1     157.458 163.102 189.779  0.00  0.00    -0.008 C 
ATOM      7  C   UNL     1     158.425 163.597 188.739  0.00  0.00    -0.077 C 
ATOM      8  C   UNL     1     159.170 162.830 187.928  0.00  0.00    -0.003 C 
ATOM      9  C   UNL     1     160.033 163.443 186.976  0.00  0.00    +0.220 A 
ATOM     10  N   UNL     1     159.891 164.662 186.466  0.00  0.00    -0.205 NA
ATOM     11  C   UNL     1     161.021 164.878 185.720  0.00  0.00    +0.164 A 
ATOM     12  C   UNL     1     161.810 163.763 185.741  0.00  0.00    +0.125 A 
ATOM     13  O   UNL     1     161.181 162.822 186.498  0.00  0.00    -0.443 OA
ATOM     14  C   UNL     1     161.344 166.220 185.007  0.00  0.00    +0.250 A 
ATOM     15  N   UNL     1     160.484 167.224 184.944  0.00  0.00    -0.203 NA
ATOM     16  C   UNL     1     161.188 168.235 184.337  0.00  0.00    +0.164 A 
ATOM     17  C   UNL     1     162.441 167.795 184.008  0.00  0.00    +0.125 A 
ATOM     18  O   UNL     1     162.552 166.496 184.408  0.00  0.00    -0.442 OA
ATOM     19  C   UNL     1     160.628 169.660 184.052  0.00  0.00    +0.249 A 
ATOM     20  N   UNL     1     159.370 170.002 184.269  0.00  0.00    -0.210 NA
ATOM     21  C   UNL     1     159.273 171.300 183.812  0.00  0.00    +0.109 A 
ATOM     22  C   UNL     1     160.514 171.721 183.408  0.00  0.00    +0.118 A 
ATOM     23  O   UNL     1     161.382 170.675 183.508  0.00  0.00    -0.442 OA
ATOM     24  C   UNL     1     157.963 172.033 183.807  0.00  0.00    +0.113 C 
ATOM     25  C   UNL     1     157.156 171.872 182.502  0.00  0.00    +0.051 C 
ATOM     26  C   UNL     1     156.257 170.648 182.552  0.00  0.00    +0.161 C 
ATOM     27  O   UNL     1     155.037 170.780 182.672  0.00  0.00    -0.292 OA
ATOM     28  C   UNL     1     156.868 169.290 182.490  0.00  0.00    -0.023 C 
ATOM     29  C   UNL     1     156.121 168.195 182.707  0.00  0.00    -0.078 C 
ATOM     30  C   UNL     1     156.692 166.808 182.801  0.00  0.00    -0.008 C 
ATOM     31  C   UNL     1     156.627 166.246 184.230  0.00  0.00    +0.069 C 
ATOM     32  C   UNL     1     155.202 165.913 184.666  0.00  0.00    +0.071 C 
ATOM     33  C   UNL     1     155.180 165.849 186.166  0.00  0.00    +0.310 C 
ATOM     34  O   UNL     1     155.454 166.807 186.875  0.00  0.00    -0.251 OA
ATOM     35  O   UNL     1     154.861 164.605 186.604  0.00  0.00    -0.461 OA
ATOM     36  C   UNL     1     155.210 164.275 187.975  0.00  0.00    +0.110 C 
ATOM     37  H   UNL     1     156.328 162.627 187.137  0.00  0.00    +0.036 HD
ATOM     38  H   UNL     1     155.494 162.248 190.057  0.00  0.00    +0.060 HD
ATOM     39  H   UNL     1     157.062 163.978 190.301  0.00  0.00    +0.033 HD
ATOM     40  H   UNL     1     158.027 162.543 190.531  0.00  0.00    +0.033 HD
ATOM     41  H   UNL     1     158.497 164.685 188.653  0.00  0.00    +0.057 HD
ATOM     42  H   UNL     1     159.151 161.750 187.990  0.00  0.00    +0.067 HD
ATOM     43  H   UNL     1     162.757 163.479 185.308  0.00  0.00    +0.105 HD
ATOM     44  H   UNL     1     163.309 168.235 183.532  0.00  0.00    +0.105 HD
ATOM     45  H   UNL     1     160.903 172.644 182.998  0.00  0.00    +0.105 HD
ATOM     46  H   UNL     1     157.380 171.633 184.647  0.00  0.00    +0.067 HD
ATOM     47  H   UNL     1     156.460 172.723 182.443  0.00  0.00    +0.041 HD
ATOM     48  H   UNL     1     157.937 169.216 182.338  0.00  0.00    +0.065 HD
ATOM     49  H   UNL     1     155.049 168.302 182.861  0.00  0.00    +0.057 HD
ATOM     50  H   UNL     1     156.161 166.144 182.108  0.00  0.00    +0.033 HD
ATOM     51  H   UNL     1     157.738 166.802 182.466  0.00  0.00    +0.033 HD
ATOM     52  H   UNL     1     157.099 166.958 184.919  0.00  0.00    +0.060 HD
ATOM     53  H   UNL     1     154.473 166.683 184.385  0.00  0.00    +0.040 HD
ATOM     54  H   UNL     1     154.861 164.960 184.242  0.00  0.00    +0.040 HD
ATOM     55  H   UNL     1     156.103 164.845 188.235  0.00  0.00    +0.074 HD
BRANCH   4  56
ATOM     56  C   UNL     1     154.407 161.885 187.559  0.00  0.00    -0.057 C 
ATOM     57  H   UNL     1     154.737 161.007 186.997  0.00  0.00    +0.023 HD
ATOM     58  H   UNL     1     153.694 162.434 186.941  0.00  0.00    +0.023 HD
ATOM     59  H   UNL     1     153.875 161.518 188.442  0.00  0.00    +0.023 HD
ENDBRANCH   4  56
BRANCH  25  60
ATOM     60  C   UNL     1     157.964 171.946 181.206  0.00  0.00    -0.053 C 
ATOM     61  H   UNL     1     159.036 171.790 181.365  0.00  0.00    +0.024 HD
ATOM     62  H   UNL     1     157.822 172.916 180.716  0.00  0.00    +0.024 HD
ATOM     63  H   UNL     1     157.628 171.165 180.511  0.00  0.00    +0.024 HD
ENDBRANCH  25  60
BRANCH  31  64
ATOM     64  O   UNL     1     157.394 165.038 184.275  0.00  0.00    -0.391 OA
ATOM     65  H   UNL     1     158.227 165.250 184.749  0.00  0.00    +0.210 HD
ENDBRANCH  31  64
BRANCH  24  66
ATOM     66  O   UNL     1     158.197 173.438 184.033  0.00  0.00    -0.373 OA
BRANCH  66  67
ATOM     67  C   UNL     1     156.993 174.196 183.989  0.00  0.00    +0.037 C 
ATOM     68  H   UNL     1     156.128 173.548 183.816  0.00  0.00    +0.052 HD
ATOM     69  H   UNL     1     156.860 174.756 184.921  0.00  0.00    +0.052 HD
ATOM     70  H   UNL     1     157.066 174.908 183.163  0.00  0.00    +0.052 HD
ENDBRANCH  66  67
ENDBRANCH  24  66
BRANCH   5  71
ATOM     71  O   UNL     1     156.696 160.904 189.048  0.00  0.00    -0.379 OA
BRANCH  71  72
ATOM     72  C   UNL     1     157.490 160.401 190.116  0.00  0.00    +0.037 C 
ATOM     73  H   UNL     1     158.528 160.247 189.808  0.00  0.00    +0.052 HD
ATOM     74  H   UNL     1     157.071 159.437 190.424  0.00  0.00    +0.052 HD
ATOM     75  H   UNL     1     157.450 161.084 190.971  0.00  0.00    +0.052 HD
ENDBRANCH  71  72
ENDBRANCH   5  71
ENDBRANCH   1  36
BRANCH   1  76
ATOM     76  C   UNL     1     152.669 164.672 188.217  0.00  0.00    +0.064 C 
ATOM     77  H   UNL     1     152.747 164.246 187.211  0.00  0.00    +0.060 HD
BRANCH  76  78
ATOM     78  C   UNL     1     151.542 163.938 188.994  0.00  0.00    -0.017 C 
ATOM     79  H   UNL     1     150.761 164.670 189.202  0.00  0.00    +0.032 HD
BRANCH  78  80
ATOM     80  C   UNL     1     150.918 162.866 188.068  0.00  0.00    -0.060 C 
ATOM     81  H   UNL     1     150.960 163.183 187.019  0.00  0.00    +0.023 HD
ATOM     82  H   UNL     1     151.457 161.917 188.133  0.00  0.00    +0.023 HD
ATOM     83  H   UNL     1     149.869 162.689 188.326  0.00  0.00    +0.023 HD
ENDBRANCH  78  80
BRANCH  78  84
ATOM     84  C   UNL     1     151.945 163.221 190.294  0.00  0.00    -0.045 C 
ATOM     85  H   UNL     1     151.948 162.136 190.103  0.00  0.00    +0.027 HD
ATOM     86  H   UNL     1     152.994 163.467 190.529  0.00  0.00    +0.027 HD
BRANCH  84  87
ATOM     87  C   UNL     1     151.108 163.401 191.571  0.00  0.00    -0.015 C 
ATOM     88  H   UNL     1     151.272 162.469 192.125  0.00  0.00    +0.030 HD
ATOM     89  H   UNL     1     151.547 164.185 192.200  0.00  0.00    +0.030 HD
BRANCH  87  90
ATOM     90  C   UNL     1     149.581 163.636 191.473  0.00  0.00    +0.109 C 
ATOM     91  H   UNL     1     149.375 163.984 190.453  0.00  0.00    +0.074 HD
BRANCH  90  92
ATOM     92  C   UNL     1     149.103 164.711 192.515  0.00  0.00    +0.031 C 
ATOM     93  H   UNL     1     148.739 164.171 193.397  0.00  0.00    +0.037 HD
BRANCH  92  94
ATOM     94  C   UNL     1     147.865 165.486 192.023  0.00  0.00    -0.056 C 
ATOM     95  H   UNL     1     147.149 165.647 192.830  0.00  0.00    +0.023 HD
ATOM     96  H   UNL     1     147.367 164.966 191.201  0.00  0.00    +0.023 HD
ATOM     97  H   UNL     1     148.148 166.485 191.666  0.00  0.00    +0.023 HD
ENDBRANCH  92  94
BRANCH  92  98
ATOM     98  C   UNL     1     150.170 165.766 192.955  0.00  0.00    +0.115 C 
ATOM     99  H   UNL     1     151.106 165.235 193.186  0.00  0.00    +0.074 HD
BRANCH  98 100
ATOM    100  C   UNL     1     150.573 166.815 191.876  0.00  0.00    +0.013 C 
ATOM    101  H   UNL     1     150.087 166.578 190.927  0.00  0.00    +0.038 HD
BRANCH 100 102
ATOM    102  C   UNL     1     152.091 166.851 191.648  0.00  0.00    -0.056 C 
ATOM    103  H   UNL     1     152.557 165.883 191.876  0.00  0.00    +0.024 HD
ATOM    104  H   UNL     1     152.333 167.098 190.603  0.00  0.00    +0.024 HD
ATOM    105  H   UNL     1     152.573 167.596 192.288  0.00  0.00    +0.024 HD
ENDBRANCH 100 102
BRANCH 100 106
ATOM    106  C   UNL     1     150.130 168.212 192.283  0.00  0.00    -0.064 C 
ATOM    107  C   UNL     1     149.481 169.049 191.460  0.00  0.00    -0.005 C 
ATOM    108  H   UNL     1     150.388 168.513 193.296  0.00  0.00    +0.059 HD
ATOM    109  H   UNL     1     149.277 168.715 190.444  0.00  0.00    +0.078 HD
BRANCH 107 110
ATOM    110  N   UNL     1     149.048 170.336 191.738  0.00  0.00    -0.284 N 
ATOM    111  C   UNL     1     147.729 170.782 191.644  0.00  0.00    +0.206 C 
ATOM    112  O   UNL     1     146.725 170.157 191.317  0.00  0.00    -0.279 OA
ATOM    113  H   UNL     1     147.636 171.849 191.904  0.00  0.00    +0.126 HD
BRANCH 110 114
ATOM    114  C   UNL     1     150.066 171.295 192.158  0.00  0.00    +0.007 C 
ATOM    115  H   UNL     1     150.956 170.747 192.490  0.00  0.00    +0.043 HD
ATOM    116  H   UNL     1     149.719 171.922 192.986  0.00  0.00    +0.043 HD
ATOM    117  H   UNL     1     150.325 171.941 191.314  0.00  0.00    +0.043 HD
ENDBRANCH 110 114
ENDBRANCH 107 110
ENDBRANCH 100 106
ENDBRANCH  98 100
BRANCH  98 118
ATOM    118  O   UNL     1     149.710 166.471 194.132  0.00  0.00    -0.461 OA
BRANCH 118 119
ATOM    119  C   UNL     1     149.931 165.856 195.330  0.00  0.00    +0.304 C 
ATOM    120  O   UNL     1     149.073 165.409 196.077  0.00  0.00    -0.251 OA
BRANCH 119 121
ATOM    121  C   UNL     1     151.397 165.827 195.639  0.00  0.00    +0.033 C 
ATOM    122  H   UNL     1     151.565 166.238 196.637  0.00  0.00    +0.034 HD
ATOM    123  H   UNL     1     151.948 166.398 194.886  0.00  0.00    +0.034 HD
ATOM    124  H   UNL     1     151.756 164.795 195.603  0.00  0.00    +0.034 HD
ENDBRANCH 119 121
ENDBRANCH 118 119
ENDBRANCH  98 118
ENDBRANCH  92  98
ENDBRANCH  90  92
BRANCH  90 125
ATOM    125  O   UNL     1     148.893 162.378 191.691  0.00  0.00    -0.459 OA
BRANCH 125 126
ATOM    126  C   UNL     1     148.454 161.721 190.565  0.00  0.00    +0.339 C 
ATOM    127  O   UNL     1     147.688 162.210 189.744  0.00  0.00    -0.248 OA
BRANCH 126 128
ATOM    128  C   UNL     1     148.962 160.271 190.484  0.00  0.00    +0.178 C 
ATOM    129  H   UNL     1     148.300 159.673 191.131  0.00  0.00    +0.074 HD
BRANCH 128 130
ATOM    130  C   UNL     1     148.816 159.765 189.047  0.00  0.00    +0.084 C 
ATOM    131  H   UNL     1     148.756 160.609 188.356  0.00  0.00    +0.059 HD
ATOM    132  H   UNL     1     149.713 159.198 188.769  0.00  0.00    +0.059 HD
BRANCH 130 133
ATOM    133  O   UNL     1     147.671 158.929 188.905  0.00  0.00    -0.380 OA
BRANCH 133 134
ATOM    134  C   UNL     1     147.484 158.099 190.043  0.00  0.00    +0.037 C 
ATOM    135  H   UNL     1     148.313 158.234 190.745  0.00  0.00    +0.052 HD
ATOM    136  H   UNL     1     146.555 158.394 190.538  0.00  0.00    +0.052 HD
ATOM    137  H   UNL     1     147.410 157.045 189.754  0.00  0.00    +0.052 HD
ENDBRANCH 133 134
ENDBRANCH 130 133
ENDBRANCH 128 130
BRANCH 128 138
ATOM    138  O   UNL     1     150.321 160.068 190.880  0.00  0.00    -0.366 OA
BRANCH 138 139
ATOM    139  C   UNL     1     151.118 159.551 189.825  0.00  0.00    +0.038 C 
ATOM    140  H   UNL     1     151.189 158.466 189.950  0.00  0.00    +0.052 HD
ATOM    141  H   UNL     1     152.130 159.968 189.870  0.00  0.00    +0.052 HD
ATOM    142  H   UNL     1     150.668 159.760 188.851  0.00  0.00    +0.052 HD
ENDBRANCH 138 139
ENDBRANCH 128 138
ENDBRANCH 126 128
ENDBRANCH 125 126
ENDBRANCH  90 125
ENDBRANCH  87  90
ENDBRANCH  84  87
ENDBRANCH  78  84
ENDBRANCH  76  78
BRANCH  76 143
ATOM    143  O   UNL     1     152.283 166.059 188.172  0.00  0.00    -0.379 OA
BRANCH 143 144
ATOM    144  C   UNL     1     151.560 166.419 187.001  0.00  0.00    +0.037 C 
ATOM    145  H   UNL     1     150.643 165.819 186.968  0.00  0.00    +0.052 HD
ATOM    146  H   UNL     1     152.133 166.226 186.088  0.00  0.00    +0.052 HD
ATOM    147  H   UNL     1     151.266 167.469 187.045  0.00  0.00    +0.052 HD
ENDBRANCH 143 144
ENDBRANCH  76 143
ENDBRANCH   1  76
TORSDOF 35
ENDMDL
MODEL 8
REMARK VINA RESULT:      -6.0      3.677     10.970
REMARK  Name = Mycalolide B_conf3
REMARK  35 active torsions:
REMARK  status: ('A' for Active; 'I' for Inactive)
REMARK    1  A    between atoms: C_1  and  C_2
REMARK    2  A    between atoms: C_3  and  O_72
REMARK    3  A    between atoms: C_22  and  O_70
REMARK    4  A    between atoms: C_23  and  C_69
REMARK    5  A    between atoms: C_29  and  O_68
REMARK    6  A    between atoms: C_34  and  C_35
REMARK    7  A    between atoms: C_35  and  C_36
REMARK    8  A    between atoms: C_36  and  C_37
REMARK    9  A    between atoms: C_36  and  O_66
REMARK   10  A    between atoms: C_37  and  C_38
REMARK   11  A    between atoms: C_37  and  C_39
REMARK   12  A    between atoms: C_39  and  C_40
REMARK   13  A    between atoms: C_40  and  C_41
REMARK   14  A    between atoms: C_41  and  C_42
REMARK   15  A    between atoms: C_41  and  O_57
REMARK   16  A    between atoms: C_42  and  C_43
REMARK   17  A    between atoms: C_42  and  C_44
REMARK   18  A    between atoms: C_44  and  C_45
REMARK   19  A    between atoms: C_44  and  O_53
REMARK   20  A    between atoms: C_45  and  C_46
REMARK   21  A    between atoms: C_45  and  C_47
REMARK   22  A    between atoms: C_48  and  N_49
REMARK   23  A    between atoms: N_49  and  C_50
REMARK   24  A    between atoms: O_53  and  C_54
REMARK   25  A    between atoms: C_54  and  C_56
REMARK   26  A    between atoms: O_57  and  C_58
REMARK   27  A    between atoms: C_58  and  C_60
REMARK   28  A    between atoms: C_60  and  C_61
REMARK   29  A    between atoms: C_60  and  O_64
REMARK   30  A    between atoms: C_61  and  O_62
REMARK   31  A    between atoms: O_62  and  C_63
REMARK   32  A    between atoms: O_64  and  C_65
REMARK   33  A    between atoms: O_66  and  C_67
REMARK   34  A    between atoms: O_70  and  C_71
REMARK   35  A    between atoms: O_72  and  C_73
REMARK                            x       y       z     vdW  Elec       q    Type
REMARK                         _______ _______ _______ _____ _____    ______ ____
ROOT
ATOM      1  C   UNL     1     146.802 171.409 189.744  0.00  0.00    +0.011 C 
ATOM      2  H   UNL     1     146.327 172.394 189.806  0.00  0.00    +0.033 HD
ATOM      3  H   UNL     1     147.707 171.507 189.135  0.00  0.00    +0.033 HD
ENDROOT
BRANCH   1  36
ATOM      4  C   UNL     1     144.391 170.961 188.890  0.00  0.00    +0.020 C 
ATOM      5  C   UNL     1     143.605 171.103 190.225  0.00  0.00    +0.068 C 
ATOM      6  C   UNL     1     143.585 169.836 191.119  0.00  0.00    -0.008 C 
ATOM      7  C   UNL     1     143.409 168.517 190.416  0.00  0.00    -0.077 C 
ATOM      8  C   UNL     1     142.344 168.150 189.688  0.00  0.00    -0.003 C 
ATOM      9  C   UNL     1     142.324 166.870 189.065  0.00  0.00    +0.220 A 
ATOM     10  N   UNL     1     143.390 166.149 188.730  0.00  0.00    -0.205 NA
ATOM     11  C   UNL     1     142.895 164.944 188.304  0.00  0.00    +0.164 A 
ATOM     12  C   UNL     1     141.529 164.968 188.332  0.00  0.00    +0.125 A 
ATOM     13  O   UNL     1     141.143 166.198 188.771  0.00  0.00    -0.443 OA
ATOM     14  C   UNL     1     143.785 163.736 187.900  0.00  0.00    +0.250 A 
ATOM     15  N   UNL     1     145.103 163.819 187.798  0.00  0.00    -0.203 NA
ATOM     16  C   UNL     1     145.502 162.533 187.531  0.00  0.00    +0.164 A 
ATOM     17  C   UNL     1     144.408 161.717 187.432  0.00  0.00    +0.125 A 
ATOM     18  O   UNL     1     143.294 162.477 187.643  0.00  0.00    -0.442 OA
ATOM     19  C   UNL     1     146.981 162.081 187.350  0.00  0.00    +0.249 A 
ATOM     20  N   UNL     1     147.999 162.925 187.324  0.00  0.00    -0.210 NA
ATOM     21  C   UNL     1     149.102 162.140 187.063  0.00  0.00    +0.109 A 
ATOM     22  C   UNL     1     148.711 160.826 187.023  0.00  0.00    +0.118 A 
ATOM     23  O   UNL     1     147.356 160.772 187.155  0.00  0.00    -0.442 OA
ATOM     24  C   UNL     1     150.465 162.740 186.872  0.00  0.00    +0.113 C 
ATOM     25  C   UNL     1     150.796 163.100 185.409  0.00  0.00    +0.051 C 
ATOM     26  C   UNL     1     150.333 164.504 185.063  0.00  0.00    +0.161 C 
ATOM     27  O   UNL     1     151.157 165.411 184.920  0.00  0.00    -0.292 OA
ATOM     28  C   UNL     1     148.874 164.782 184.933  0.00  0.00    -0.023 C 
ATOM     29  C   UNL     1     148.429 166.042 184.802  0.00  0.00    -0.078 C 
ATOM     30  C   UNL     1     146.971 166.410 184.809  0.00  0.00    -0.008 C 
ATOM     31  C   UNL     1     146.567 167.172 186.081  0.00  0.00    +0.069 C 
ATOM     32  C   UNL     1     147.139 168.588 186.124  0.00  0.00    +0.071 C 
ATOM     33  C   UNL     1     147.113 169.054 187.550  0.00  0.00    +0.310 C 
ATOM     34  O   UNL     1     147.734 168.493 188.442  0.00  0.00    -0.251 OA
ATOM     35  O   UNL     1     146.298 170.127 187.706  0.00  0.00    -0.461 OA
ATOM     36  C   UNL     1     145.838 170.420 189.053  0.00  0.00    +0.110 C 
ATOM     37  H   UNL     1     143.840 170.254 188.248  0.00  0.00    +0.036 HD
ATOM     38  H   UNL     1     144.050 171.921 190.806  0.00  0.00    +0.060 HD
ATOM     39  H   UNL     1     144.532 169.791 191.665  0.00  0.00    +0.033 HD
ATOM     40  H   UNL     1     142.806 169.917 191.885  0.00  0.00    +0.033 HD
ATOM     41  H   UNL     1     144.247 167.822 190.518  0.00  0.00    +0.057 HD
ATOM     42  H   UNL     1     141.481 168.793 189.577  0.00  0.00    +0.067 HD
ATOM     43  H   UNL     1     140.740 164.274 188.088  0.00  0.00    +0.105 HD
ATOM     44  H   UNL     1     144.249 160.663 187.241  0.00  0.00    +0.105 HD
ATOM     45  H   UNL     1     149.226 159.888 186.860  0.00  0.00    +0.105 HD
ATOM     46  H   UNL     1     150.491 163.651 187.486  0.00  0.00    +0.067 HD
ATOM     47  H   UNL     1     151.893 163.142 185.325  0.00  0.00    +0.041 HD
ATOM     48  H   UNL     1     148.186 163.952 185.019  0.00  0.00    +0.065 HD
ATOM     49  H   UNL     1     149.146 166.857 184.722  0.00  0.00    +0.057 HD
ATOM     50  H   UNL     1     146.739 167.008 183.919  0.00  0.00    +0.033 HD
ATOM     51  H   UNL     1     146.350 165.508 184.724  0.00  0.00    +0.033 HD
ATOM     52  H   UNL     1     146.874 166.592 186.961  0.00  0.00    +0.060 HD
ATOM     53  H   UNL     1     148.187 168.641 185.806  0.00  0.00    +0.040 HD
ATOM     54  H   UNL     1     146.563 169.276 185.490  0.00  0.00    +0.040 HD
ATOM     55  H   UNL     1     145.778 169.476 189.595  0.00  0.00    +0.074 HD
BRANCH   4  56
ATOM     56  C   UNL     1     144.371 172.283 188.101  0.00  0.00    -0.057 C 
ATOM     57  H   UNL     1     143.368 172.720 188.090  0.00  0.00    +0.023 HD
ATOM     58  H   UNL     1     144.684 172.132 187.066  0.00  0.00    +0.023 HD
ATOM     59  H   UNL     1     145.039 173.025 188.550  0.00  0.00    +0.023 HD
ENDBRANCH   4  56
BRANCH  25  60
ATOM     60  C   UNL     1     150.370 162.073 184.359  0.00  0.00    -0.053 C 
ATOM     61  H   UNL     1     150.549 161.041 184.679  0.00  0.00    +0.024 HD
ATOM     62  H   UNL     1     150.899 162.242 183.415  0.00  0.00    +0.024 HD
ATOM     63  H   UNL     1     149.294 162.164 184.163  0.00  0.00    +0.024 HD
ENDBRANCH  25  60
BRANCH  31  64
ATOM     64  O   UNL     1     145.140 167.272 186.112  0.00  0.00    -0.391 OA
ATOM     65  H   UNL     1     144.837 167.287 185.180  0.00  0.00    +0.210 HD
ENDBRANCH  31  64
BRANCH  24  66
ATOM     66  O   UNL     1     151.467 161.825 187.361  0.00  0.00    -0.373 OA
BRANCH  66  67
ATOM     67  C   UNL     1     152.751 162.433 187.445  0.00  0.00    +0.037 C 
ATOM     68  H   UNL     1     153.535 161.737 187.130  0.00  0.00    +0.052 HD
ATOM     69  H   UNL     1     152.786 163.339 186.830  0.00  0.00    +0.052 HD
ATOM     70  H   UNL     1     152.931 162.712 188.486  0.00  0.00    +0.052 HD
ENDBRANCH  66  67
ENDBRANCH  24  66
BRANCH   5  71
ATOM     71  O   UNL     1     142.246 171.470 189.903  0.00  0.00    -0.379 OA
BRANCH  71  72
ATOM     72  C   UNL     1     141.604 172.181 190.955  0.00  0.00    +0.037 C 
ATOM     73  H   UNL     1     142.167 172.110 191.889  0.00  0.00    +0.052 HD
ATOM     74  H   UNL     1     140.615 171.736 191.109  0.00  0.00    +0.052 HD
ATOM     75  H   UNL     1     141.471 173.231 190.676  0.00  0.00    +0.052 HD
ENDBRANCH  71  72
ENDBRANCH   5  71
ENDBRANCH   1  36
BRANCH   1  76
ATOM     76  C   UNL     1     147.183 171.007 191.178  0.00  0.00    +0.064 C 
ATOM     77  H   UNL     1     146.500 170.233 191.542  0.00  0.00    +0.060 HD
BRANCH  76  78
ATOM     78  C   UNL     1     148.645 170.494 191.302  0.00  0.00    -0.017 C 
ATOM     79  H   UNL     1     149.116 170.616 190.326  0.00  0.00    +0.032 HD
BRANCH  78  80
ATOM     80  C   UNL     1     149.409 171.410 192.288  0.00  0.00    -0.060 C 
ATOM     81  H   UNL     1     149.091 172.454 192.179  0.00  0.00    +0.023 HD
ATOM     82  H   UNL     1     149.217 171.129 193.327  0.00  0.00    +0.023 HD
ATOM     83  H   UNL     1     150.488 171.364 192.108  0.00  0.00    +0.023 HD
ENDBRANCH  78  80
BRANCH  78  84
ATOM     84  C   UNL     1     148.836 169.051 191.798  0.00  0.00    -0.045 C 
ATOM     85  H   UNL     1     148.308 168.942 192.758  0.00  0.00    +0.027 HD
ATOM     86  H   UNL     1     148.314 168.363 191.112  0.00  0.00    +0.027 HD
BRANCH  84  87
ATOM     87  C   UNL     1     150.249 168.499 192.053  0.00  0.00    -0.015 C 
ATOM     88  H   UNL     1     150.714 168.501 191.060  0.00  0.00    +0.030 HD
ATOM     89  H   UNL     1     150.832 169.217 192.641  0.00  0.00    +0.030 HD
BRANCH  87  90
ATOM     90  C   UNL     1     150.432 167.088 192.663  0.00  0.00    +0.109 C 
ATOM     91  H   UNL     1     150.381 167.200 193.753  0.00  0.00    +0.074 HD
BRANCH  90  92
ATOM     92  C   UNL     1     151.815 166.466 192.250  0.00  0.00    +0.031 C 
ATOM     93  H   UNL     1     152.018 165.636 192.938  0.00  0.00    +0.037 HD
BRANCH  92  94
ATOM     94  C   UNL     1     152.985 167.438 192.495  0.00  0.00    -0.056 C 
ATOM     95  H   UNL     1     153.541 167.633 191.577  0.00  0.00    +0.023 HD
ATOM     96  H   UNL     1     153.672 167.055 193.255  0.00  0.00    +0.023 HD
ATOM     97  H   UNL     1     152.616 168.413 192.837  0.00  0.00    +0.023 HD
ENDBRANCH  92  94
BRANCH  92  98
ATOM     98  C   UNL     1     151.929 165.958 190.775  0.00  0.00    +0.115 C 
ATOM     99  H   UNL     1     150.930 165.998 190.318  0.00  0.00    +0.074 HD
BRANCH  98 100
ATOM    100  C   UNL     1     152.824 166.816 189.831  0.00  0.00    +0.013 C 
ATOM    101  H   UNL     1     153.346 167.583 190.407  0.00  0.00    +0.038 HD
BRANCH 100 102
ATOM    102  C   UNL     1     152.003 167.509 188.734  0.00  0.00    -0.056 C 
ATOM    103  H   UNL     1     151.666 168.505 189.052  0.00  0.00    +0.024 HD
ATOM    104  H   UNL     1     152.591 167.636 187.813  0.00  0.00    +0.024 HD
ATOM    105  H   UNL     1     151.107 166.934 188.484  0.00  0.00    +0.024 HD
ENDBRANCH 100 102
BRANCH 100 106
ATOM    106  C   UNL     1     153.877 165.956 189.149  0.00  0.00    -0.064 C 
ATOM    107  C   UNL     1     155.190 166.227 189.188  0.00  0.00    -0.005 C 
ATOM    108  H   UNL     1     153.502 165.096 188.599  0.00  0.00    +0.059 HD
ATOM    109  H   UNL     1     155.514 167.119 189.723  0.00  0.00    +0.078 HD
BRANCH 107 110
ATOM    110  N   UNL     1     156.217 165.511 188.595  0.00  0.00    -0.284 N 
ATOM    111  C   UNL     1     156.689 165.702 187.296  0.00  0.00    +0.206 C 
ATOM    112  O   UNL     1     156.317 166.509 186.451  0.00  0.00    -0.279 OA
ATOM    113  H   UNL     1     157.504 165.002 187.047  0.00  0.00    +0.126 HD
BRANCH 110 114
ATOM    114  C   UNL     1     156.845 164.470 189.405  0.00  0.00    +0.007 C 
ATOM    115  H   UNL     1     157.067 163.607 188.766  0.00  0.00    +0.043 HD
ATOM    116  H   UNL     1     156.193 164.138 190.219  0.00  0.00    +0.043 HD
ATOM    117  H   UNL     1     157.773 164.858 189.835  0.00  0.00    +0.043 HD
ENDBRANCH 110 114
ENDBRANCH 107 110
ENDBRANCH 100 106
ENDBRANCH  98 100
BRANCH  98 118
ATOM    118  O   UNL     1     152.418 164.596 190.760  0.00  0.00    -0.461 OA
BRANCH 118 119
ATOM    119  C   UNL     1     151.471 163.616 190.695  0.00  0.00    +0.304 C 
ATOM    120  O   UNL     1     151.589 162.475 191.118  0.00  0.00    -0.251 OA
BRANCH 119 121
ATOM    121  C   UNL     1     150.247 164.117 189.989  0.00  0.00    +0.033 C 
ATOM    122  H   UNL     1     149.619 164.661 190.697  0.00  0.00    +0.034 HD
ATOM    123  H   UNL     1     149.702 163.279 189.549  0.00  0.00    +0.034 HD
ATOM    124  H   UNL     1     150.545 164.785 189.177  0.00  0.00    +0.034 HD
ENDBRANCH 119 121
ENDBRANCH 118 119
ENDBRANCH  98 118
ENDBRANCH  92  98
ENDBRANCH  90  92
BRANCH  90 125
ATOM    125  O   UNL     1     149.342 166.237 192.223  0.00  0.00    -0.459 OA
BRANCH 125 126
ATOM    126  C   UNL     1     148.754 165.454 193.188  0.00  0.00    +0.339 C 
ATOM    127  O   UNL     1     148.953 164.252 193.310  0.00  0.00    -0.248 OA
BRANCH 126 128
ATOM    128  C   UNL     1     147.751 166.233 194.058  0.00  0.00    +0.178 C 
ATOM    129  H   UNL     1     148.209 167.215 194.256  0.00  0.00    +0.074 HD
BRANCH 128 130
ATOM    130  C   UNL     1     146.460 166.453 193.266  0.00  0.00    +0.084 C 
ATOM    131  H   UNL     1     146.296 167.521 193.106  0.00  0.00    +0.059 HD
ATOM    132  H   UNL     1     146.561 166.001 192.272  0.00  0.00    +0.059 HD
BRANCH 130 133
ATOM    133  O   UNL     1     145.339 165.875 193.930  0.00  0.00    -0.380 OA
BRANCH 133 134
ATOM    134  C   UNL     1     144.111 166.348 193.394  0.00  0.00    +0.037 C 
ATOM    135  H   UNL     1     144.141 166.310 192.300  0.00  0.00    +0.052 HD
ATOM    136  H   UNL     1     143.307 165.696 193.744  0.00  0.00    +0.052 HD
ATOM    137  H   UNL     1     143.905 167.371 193.726  0.00  0.00    +0.052 HD
ENDBRANCH 133 134
ENDBRANCH 130 133
ENDBRANCH 128 130
BRANCH 128 138
ATOM    138  O   UNL     1     147.399 165.616 195.299  0.00  0.00    -0.366 OA
BRANCH 138 139
ATOM    139  C   UNL     1     148.250 166.019 196.362  0.00  0.00    +0.038 C 
ATOM    140  H   UNL     1     148.371 165.171 197.043  0.00  0.00    +0.052 HD
ATOM    141  H   UNL     1     147.801 166.847 196.920  0.00  0.00    +0.052 HD
ATOM    142  H   UNL     1     149.236 166.308 195.989  0.00  0.00    +0.052 HD
ENDBRANCH 138 139
ENDBRANCH 128 138
ENDBRANCH 126 128
ENDBRANCH 125 126
ENDBRANCH  90 125
ENDBRANCH  87  90
ENDBRANCH  84  87
ENDBRANCH  78  84
ENDBRANCH  76  78
BRANCH  76 143
ATOM    143  O   UNL     1     147.109 172.196 191.987  0.00  0.00    -0.379 OA
BRANCH 143 144
ATOM    144  C   UNL     1     146.394 173.265 191.379  0.00  0.00    +0.037 C 
ATOM    145  H   UNL     1     147.078 173.794 190.706  0.00  0.00    +0.052 HD
ATOM    146  H   UNL     1     146.013 173.978 192.118  0.00  0.00    +0.052 HD
ATOM    147  H   UNL     1     145.571 172.876 190.776  0.00  0.00    +0.052 HD
ENDBRANCH 143 144
ENDBRANCH  76 143
ENDBRANCH   1  76
TORSDOF 35
ENDMDL
MODEL 9
REMARK VINA RESULT:      -5.9      2.312      4.579
REMARK  Name = Mycalolide B_conf3
REMARK  35 active torsions:
REMARK  status: ('A' for Active; 'I' for Inactive)
REMARK    1  A    between atoms: C_1  and  C_2
REMARK    2  A    between atoms: C_3  and  O_72
REMARK    3  A    between atoms: C_22  and  O_70
REMARK    4  A    between atoms: C_23  and  C_69
REMARK    5  A    between atoms: C_29  and  O_68
REMARK    6  A    between atoms: C_34  and  C_35
REMARK    7  A    between atoms: C_35  and  C_36
REMARK    8  A    between atoms: C_36  and  C_37
REMARK    9  A    between atoms: C_36  and  O_66
REMARK   10  A    between atoms: C_37  and  C_38
REMARK   11  A    between atoms: C_37  and  C_39
REMARK   12  A    between atoms: C_39  and  C_40
REMARK   13  A    between atoms: C_40  and  C_41
REMARK   14  A    between atoms: C_41  and  C_42
REMARK   15  A    between atoms: C_41  and  O_57
REMARK   16  A    between atoms: C_42  and  C_43
REMARK   17  A    between atoms: C_42  and  C_44
REMARK   18  A    between atoms: C_44  and  C_45
REMARK   19  A    between atoms: C_44  and  O_53
REMARK   20  A    between atoms: C_45  and  C_46
REMARK   21  A    between atoms: C_45  and  C_47
REMARK   22  A    between atoms: C_48  and  N_49
REMARK   23  A    between atoms: N_49  and  C_50
REMARK   24  A    between atoms: O_53  and  C_54
REMARK   25  A    between atoms: C_54  and  C_56
REMARK   26  A    between atoms: O_57  and  C_58
REMARK   27  A    between atoms: C_58  and  C_60
REMARK   28  A    between atoms: C_60  and  C_61
REMARK   29  A    between atoms: C_60  and  O_64
REMARK   30  A    between atoms: C_61  and  O_62
REMARK   31  A    between atoms: O_62  and  C_63
REMARK   32  A    between atoms: O_64  and  C_65
REMARK   33  A    between atoms: O_66  and  C_67
REMARK   34  A    between atoms: O_70  and  C_71
REMARK   35  A    between atoms: O_72  and  C_73
REMARK                            x       y       z     vdW  Elec       q    Type
REMARK                         _______ _______ _______ _____ _____    ______ ____
ROOT
ATOM      1  C   UNL     1     152.938 164.813 188.048  0.00  0.00    +0.011 C 
ATOM      2  H   UNL     1     152.237 163.973 188.003  0.00  0.00    +0.033 HD
ATOM      3  H   UNL     1     152.454 165.683 187.589  0.00  0.00    +0.033 HD
ENDROOT
BRANCH   1  36
ATOM      4  C   UNL     1     154.535 162.945 187.212  0.00  0.00    +0.020 C 
ATOM      5  C   UNL     1     154.998 162.360 188.577  0.00  0.00    +0.068 C 
ATOM      6  C   UNL     1     156.160 163.124 189.264  0.00  0.00    -0.008 C 
ATOM      7  C   UNL     1     157.270 163.609 188.372  0.00  0.00    -0.077 C 
ATOM      8  C   UNL     1     158.077 162.835 187.630  0.00  0.00    -0.003 C 
ATOM      9  C   UNL     1     159.078 163.438 186.817  0.00  0.00    +0.220 A 
ATOM     10  N   UNL     1     159.053 164.679 186.342  0.00  0.00    -0.205 NA
ATOM     11  C   UNL     1     160.276 164.867 185.750  0.00  0.00    +0.164 A 
ATOM     12  C   UNL     1     161.008 163.715 185.825  0.00  0.00    +0.125 A 
ATOM     13  O   UNL     1     160.250 162.780 186.461  0.00  0.00    -0.443 OA
ATOM     14  C   UNL     1     160.744 166.215 185.136  0.00  0.00    +0.250 A 
ATOM     15  N   UNL     1     159.941 167.260 185.006  0.00  0.00    -0.203 NA
ATOM     16  C   UNL     1     160.758 168.256 184.532  0.00  0.00    +0.164 A 
ATOM     17  C   UNL     1     162.023 167.769 184.343  0.00  0.00    +0.125 A 
ATOM     18  O   UNL     1     162.027 166.454 184.703  0.00  0.00    -0.442 OA
ATOM     19  C   UNL     1     160.300 169.715 184.236  0.00  0.00    +0.249 A 
ATOM     20  N   UNL     1     159.040 170.109 184.309  0.00  0.00    -0.210 NA
ATOM     21  C   UNL     1     159.057 171.424 183.895  0.00  0.00    +0.109 A 
ATOM     22  C   UNL     1     160.356 171.799 183.664  0.00  0.00    +0.118 A 
ATOM     23  O   UNL     1     161.159 170.711 183.829  0.00  0.00    -0.442 OA
ATOM     24  C   UNL     1     157.790 172.219 183.756  0.00  0.00    +0.113 C 
ATOM     25  C   UNL     1     157.147 172.140 182.356  0.00  0.00    +0.051 C 
ATOM     26  C   UNL     1     156.198 170.959 182.247  0.00  0.00    +0.161 C 
ATOM     27  O   UNL     1     154.979 171.144 182.219  0.00  0.00    -0.292 OA
ATOM     28  C   UNL     1     156.753 169.576 182.208  0.00  0.00    -0.023 C 
ATOM     29  C   UNL     1     155.938 168.511 182.287  0.00  0.00    -0.078 C 
ATOM     30  C   UNL     1     156.434 167.096 182.396  0.00  0.00    -0.008 C 
ATOM     31  C   UNL     1     156.167 166.490 183.783  0.00  0.00    +0.069 C 
ATOM     32  C   UNL     1     154.685 166.211 184.026  0.00  0.00    +0.071 C 
ATOM     33  C   UNL     1     154.472 166.097 185.508  0.00  0.00    +0.310 C 
ATOM     34  O   UNL     1     154.696 167.017 186.282  0.00  0.00    -0.251 OA
ATOM     35  O   UNL     1     154.048 164.856 185.854  0.00  0.00    -0.461 OA
ATOM     36  C   UNL     1     154.208 164.463 187.243  0.00  0.00    +0.110 C 
ATOM     37  H   UNL     1     155.351 162.793 186.486  0.00  0.00    +0.036 HD
ATOM     38  H   UNL     1     154.141 162.356 189.263  0.00  0.00    +0.060 HD
ATOM     39  H   UNL     1     155.739 164.000 189.767  0.00  0.00    +0.033 HD
ATOM     40  H   UNL     1     156.606 162.515 190.058  0.00  0.00    +0.033 HD
ATOM     41  H   UNL     1     157.398 164.694 188.338  0.00  0.00    +0.057 HD
ATOM     42  H   UNL     1     158.005 161.755 187.646  0.00  0.00    +0.067 HD
ATOM     43  H   UNL     1     161.988 163.402 185.501  0.00  0.00    +0.105 HD
ATOM     44  H   UNL     1     162.962 168.183 183.996  0.00  0.00    +0.105 HD
ATOM     45  H   UNL     1     160.832 172.716 183.342  0.00  0.00    +0.105 HD
ATOM     46  H   UNL     1     157.090 171.818 184.502  0.00  0.00    +0.067 HD
ATOM     47  H   UNL     1     156.502 173.024 182.245  0.00  0.00    +0.041 HD
ATOM     48  H   UNL     1     157.828 169.457 182.186  0.00  0.00    +0.065 HD
ATOM     49  H   UNL     1     154.861 168.664 182.311  0.00  0.00    +0.057 HD
ATOM     50  H   UNL     1     155.966 166.482 181.618  0.00  0.00    +0.033 HD
ATOM     51  H   UNL     1     157.513 167.052 182.193  0.00  0.00    +0.033 HD
ATOM     52  H   UNL     1     156.578 167.155 184.552  0.00  0.00    +0.060 HD
ATOM     53  H   UNL     1     154.030 167.023 183.687  0.00  0.00    +0.040 HD
ATOM     54  H   UNL     1     154.359 165.289 183.526  0.00  0.00    +0.040 HD
ATOM     55  H   UNL     1     155.085 164.981 187.634  0.00  0.00    +0.074 HD
BRANCH   4  56
ATOM     56  C   UNL     1     153.362 162.129 186.638  0.00  0.00    -0.057 C 
ATOM     57  H   UNL     1     153.203 162.359 185.580  0.00  0.00    +0.023 HD
ATOM     58  H   UNL     1     152.434 162.341 187.171  0.00  0.00    +0.023 HD
ATOM     59  H   UNL     1     153.553 161.054 186.706  0.00  0.00    +0.023 HD
ENDBRANCH   4  56
BRANCH  25  60
ATOM     60  C   UNL     1     158.113 172.220 181.174  0.00  0.00    -0.053 C 
ATOM     61  H   UNL     1     159.051 171.683 181.356  0.00  0.00    +0.024 HD
ATOM     62  H   UNL     1     158.349 173.263 180.936  0.00  0.00    +0.024 HD
ATOM     63  H   UNL     1     157.655 171.767 180.285  0.00  0.00    +0.024 HD
ENDBRANCH  25  60
BRANCH  31  64
ATOM     64  O   UNL     1     156.870 165.246 183.875  0.00  0.00    -0.391 OA
ATOM     65  H   UNL     1     156.668 164.873 184.759  0.00  0.00    +0.210 HD
ENDBRANCH  31  64
BRANCH  24  66
ATOM     66  O   UNL     1     158.054 173.602 184.065  0.00  0.00    -0.373 OA
BRANCH  66  67
ATOM     67  C   UNL     1     156.939 174.438 183.775  0.00  0.00    +0.037 C 
ATOM     68  H   UNL     1     156.835 175.228 184.525  0.00  0.00    +0.052 HD
ATOM     69  H   UNL     1     157.041 174.879 182.778  0.00  0.00    +0.052 HD
ATOM     70  H   UNL     1     156.036 173.822 183.791  0.00  0.00    +0.052 HD
ENDBRANCH  66  67
ENDBRANCH  24  66
BRANCH   5  71
ATOM     71  O   UNL     1     155.403 160.991 188.358  0.00  0.00    -0.379 OA
BRANCH  71  72
ATOM     72  C   UNL     1     154.611 160.060 189.087  0.00  0.00    +0.037 C 
ATOM     73  H   UNL     1     153.594 160.000 188.688  0.00  0.00    +0.052 HD
ATOM     74  H   UNL     1     154.558 160.401 190.126  0.00  0.00    +0.052 HD
ATOM     75  H   UNL     1     155.079 159.071 189.071  0.00  0.00    +0.052 HD
ENDBRANCH  71  72
ENDBRANCH   5  71
ENDBRANCH   1  36
BRANCH   1  76
ATOM     76  C   UNL     1     153.202 165.094 189.536  0.00  0.00    +0.064 C 
ATOM     77  H   UNL     1     154.182 164.699 189.821  0.00  0.00    +0.060 HD
BRANCH  76  78
ATOM     78  C   UNL     1     153.137 166.604 189.895  0.00  0.00    -0.017 C 
ATOM     79  H   UNL     1     154.163 166.971 189.944  0.00  0.00    +0.032 HD
BRANCH  78  80
ATOM     80  C   UNL     1     152.444 167.360 188.736  0.00  0.00    -0.060 C 
ATOM     81  H   UNL     1     151.405 167.599 188.991  0.00  0.00    +0.023 HD
ATOM     82  H   UNL     1     152.943 168.309 188.521  0.00  0.00    +0.023 HD
ATOM     83  H   UNL     1     152.439 166.755 187.824  0.00  0.00    +0.023 HD
ENDBRANCH  78  80
BRANCH  78  84
ATOM     84  C   UNL     1     152.386 166.983 191.183  0.00  0.00    -0.045 C 
ATOM     85  H   UNL     1     151.759 166.128 191.481  0.00  0.00    +0.027 HD
ATOM     86  H   UNL     1     153.114 167.095 192.004  0.00  0.00    +0.027 HD
BRANCH  84  87
ATOM     87  C   UNL     1     151.444 168.198 191.203  0.00  0.00    -0.015 C 
ATOM     88  H   UNL     1     151.806 168.795 192.048  0.00  0.00    +0.030 HD
ATOM     89  H   UNL     1     151.618 168.823 190.320  0.00  0.00    +0.030 HD
BRANCH  87  90
ATOM     90  C   UNL     1     149.920 167.996 191.380  0.00  0.00    +0.109 C 
ATOM     91  H   UNL     1     149.749 167.742 192.434  0.00  0.00    +0.074 HD
BRANCH  90  92
ATOM     92  C   UNL     1     149.389 166.841 190.456  0.00  0.00    +0.031 C 
ATOM     93  H   UNL     1     150.261 166.270 190.113  0.00  0.00    +0.037 HD
BRANCH  92  94
ATOM     94  C   UNL     1     148.768 167.379 189.152  0.00  0.00    -0.056 C 
ATOM     95  H   UNL     1     148.004 168.130 189.355  0.00  0.00    +0.023 HD
ATOM     96  H   UNL     1     148.331 166.575 188.554  0.00  0.00    +0.023 HD
ATOM     97  H   UNL     1     149.528 167.880 188.538  0.00  0.00    +0.023 HD
ENDBRANCH  92  94
BRANCH  92  98
ATOM     98  C   UNL     1     148.350 165.866 191.100  0.00  0.00    +0.115 C 
ATOM     99  H   UNL     1     147.752 166.431 191.831  0.00  0.00    +0.074 HD
BRANCH  98 100
ATOM    100  C   UNL     1     147.298 165.255 190.126  0.00  0.00    +0.013 C 
ATOM    101  H   UNL     1     147.414 165.692 189.132  0.00  0.00    +0.038 HD
BRANCH 100 102
ATOM    102  C   UNL     1     145.860 165.508 190.602  0.00  0.00    -0.056 C 
ATOM    103  H   UNL     1     145.835 166.166 191.482  0.00  0.00    +0.024 HD
ATOM    104  H   UNL     1     145.256 165.984 189.815  0.00  0.00    +0.024 HD
ATOM    105  H   UNL     1     145.364 164.575 190.887  0.00  0.00    +0.024 HD
ENDBRANCH 100 102
BRANCH 100 106
ATOM    106  C   UNL     1     147.486 163.752 189.994  0.00  0.00    -0.064 C 
ATOM    107  C   UNL     1     146.526 162.923 189.560  0.00  0.00    -0.005 C 
ATOM    108  H   UNL     1     148.460 163.370 190.293  0.00  0.00    +0.059 HD
ATOM    109  H   UNL     1     145.556 163.349 189.305  0.00  0.00    +0.078 HD
BRANCH 107 110
ATOM    110  N   UNL     1     146.602 161.547 189.415  0.00  0.00    -0.284 N 
ATOM    111  C   UNL     1     145.529 160.706 189.117  0.00  0.00    +0.206 C 
ATOM    112  O   UNL     1     144.353 160.994 188.925  0.00  0.00    -0.279 OA
ATOM    113  H   UNL     1     145.838 159.648 189.065  0.00  0.00    +0.126 HD
BRANCH 110 114
ATOM    114  C   UNL     1     147.919 160.940 189.595  0.00  0.00    +0.007 C 
ATOM    115  H   UNL     1     148.373 160.777 188.610  0.00  0.00    +0.043 HD
ATOM    116  H   UNL     1     147.857 159.976 190.109  0.00  0.00    +0.043 HD
ATOM    117  H   UNL     1     148.549 161.613 190.183  0.00  0.00    +0.043 HD
ENDBRANCH 110 114
ENDBRANCH 107 110
ENDBRANCH 100 106
ENDBRANCH  98 100
BRANCH  98 118
ATOM    118  O   UNL     1     149.039 164.784 191.769  0.00  0.00    -0.461 OA
BRANCH 118 119
ATOM    119  C   UNL     1     149.213 164.920 193.116  0.00  0.00    +0.304 C 
ATOM    120  O   UNL     1     148.348 165.225 193.924  0.00  0.00    -0.251 OA
BRANCH 119 121
ATOM    121  C   UNL     1     150.644 164.675 193.486  0.00  0.00    +0.033 C 
ATOM    122  H   UNL     1     150.874 163.615 193.359  0.00  0.00    +0.034 HD
ATOM    123  H   UNL     1     150.822 164.990 194.517  0.00  0.00    +0.034 HD
ATOM    124  H   UNL     1     151.293 165.270 192.838  0.00  0.00    +0.034 HD
ENDBRANCH 119 121
ENDBRANCH 118 119
ENDBRANCH  98 118
ENDBRANCH  92  98
ENDBRANCH  90  92
BRANCH  90 125
ATOM    125  O   UNL     1     149.239 169.241 191.077  0.00  0.00    -0.459 OA
BRANCH 125 126
ATOM    126  C   UNL     1     148.315 169.669 192.002  0.00  0.00    +0.339 C 
ATOM    127  O   UNL     1     147.838 168.954 192.874  0.00  0.00    -0.248 OA
BRANCH 126 128
ATOM    128  C   UNL     1     147.878 171.127 191.777  0.00  0.00    +0.178 C 
ATOM    129  H   UNL     1     147.143 171.356 192.565  0.00  0.00    +0.074 HD
BRANCH 128 130
ATOM    130  C   UNL     1     149.085 172.050 191.960  0.00  0.00    +0.084 C 
ATOM    131  H   UNL     1     149.986 171.570 191.573  0.00  0.00    +0.059 HD
ATOM    132  H   UNL     1     148.939 172.962 191.369  0.00  0.00    +0.059 HD
BRANCH 130 133
ATOM    133  O   UNL     1     149.264 172.404 193.329  0.00  0.00    -0.380 OA
BRANCH 133 134
ATOM    134  C   UNL     1     148.225 173.258 193.790  0.00  0.00    +0.037 C 
ATOM    135  H   UNL     1     147.300 173.051 193.241  0.00  0.00    +0.052 HD
ATOM    136  H   UNL     1     148.055 173.054 194.850  0.00  0.00    +0.052 HD
ATOM    137  H   UNL     1     148.500 174.311 193.672  0.00  0.00    +0.052 HD
ENDBRANCH 133 134
ENDBRANCH 130 133
ENDBRANCH 128 130
BRANCH 128 138
ATOM    138  O   UNL     1     147.305 171.411 190.498  0.00  0.00    -0.366 OA
BRANCH 138 139
ATOM    139  C   UNL     1     146.818 172.743 190.409  0.00  0.00    +0.038 C 
ATOM    140  H   UNL     1     145.911 172.735 189.797  0.00  0.00    +0.052 HD
ATOM    141  H   UNL     1     147.555 173.388 189.921  0.00  0.00    +0.052 HD
ATOM    142  H   UNL     1     146.568 173.138 191.398  0.00  0.00    +0.052 HD
ENDBRANCH 138 139
ENDBRANCH 128 138
ENDBRANCH 126 128
ENDBRANCH 125 126
ENDBRANCH  90 125
ENDBRANCH  87  90
ENDBRANCH  84  87
ENDBRANCH  78  84
ENDBRANCH  76  78
BRANCH  76 143
ATOM    143  O   UNL     1     152.144 164.462 190.283  0.00  0.00    -0.379 OA
BRANCH 143 144
ATOM    144  C   UNL     1     151.315 163.611 189.501  0.00  0.00    +0.037 C 
ATOM    145  H   UNL     1     151.925 163.186 188.695  0.00  0.00    +0.052 HD
ATOM    146  H   UNL     1     150.475 164.153 189.052  0.00  0.00    +0.052 HD
ATOM    147  H   UNL     1     150.945 162.782 190.107  0.00  0.00    +0.052 HD
ENDBRANCH 143 144
ENDBRANCH  76 143
ENDBRANCH   1  76
TORSDOF 35
ENDMDL
MODEL 10
REMARK VINA RESULT:      -5.9      2.161      4.316
REMARK  Name = Mycalolide B_conf3
REMARK  35 active torsions:
REMARK  status: ('A' for Active; 'I' for Inactive)
REMARK    1  A    between atoms: C_1  and  C_2
REMARK    2  A    between atoms: C_3  and  O_72
REMARK    3  A    between atoms: C_22  and  O_70
REMARK    4  A    between atoms: C_23  and  C_69
REMARK    5  A    between atoms: C_29  and  O_68
REMARK    6  A    between atoms: C_34  and  C_35
REMARK    7  A    between atoms: C_35  and  C_36
REMARK    8  A    between atoms: C_36  and  C_37
REMARK    9  A    between atoms: C_36  and  O_66
REMARK   10  A    between atoms: C_37  and  C_38
REMARK   11  A    between atoms: C_37  and  C_39
REMARK   12  A    between atoms: C_39  and  C_40
REMARK   13  A    between atoms: C_40  and  C_41
REMARK   14  A    between atoms: C_41  and  C_42
REMARK   15  A    between atoms: C_41  and  O_57
REMARK   16  A    between atoms: C_42  and  C_43
REMARK   17  A    between atoms: C_42  and  C_44
REMARK   18  A    between atoms: C_44  and  C_45
REMARK   19  A    between atoms: C_44  and  O_53
REMARK   20  A    between atoms: C_45  and  C_46
REMARK   21  A    between atoms: C_45  and  C_47
REMARK   22  A    between atoms: C_48  and  N_49
REMARK   23  A    between atoms: N_49  and  C_50
REMARK   24  A    between atoms: O_53  and  C_54
REMARK   25  A    between atoms: C_54  and  C_56
REMARK   26  A    between atoms: O_57  and  C_58
REMARK   27  A    between atoms: C_58  and  C_60
REMARK   28  A    between atoms: C_60  and  C_61
REMARK   29  A    between atoms: C_60  and  O_64
REMARK   30  A    between atoms: C_61  and  O_62
REMARK   31  A    between atoms: O_62  and  C_63
REMARK   32  A    between atoms: O_64  and  C_65
REMARK   33  A    between atoms: O_66  and  C_67
REMARK   34  A    between atoms: O_70  and  C_71
REMARK   35  A    between atoms: O_72  and  C_73
REMARK                            x       y       z     vdW  Elec       q    Type
REMARK                         _______ _______ _______ _____ _____    ______ ____
ROOT
ATOM      1  C   UNL     1     153.455 163.333 186.038  0.00  0.00    +0.011 C 
ATOM      2  H   UNL     1     153.345 162.247 185.950  0.00  0.00    +0.033 HD
ATOM      3  H   UNL     1     152.693 163.803 185.406  0.00  0.00    +0.033 HD
ENDROOT
BRANCH   1  36
ATOM      4  C   UNL     1     155.923 162.629 185.647  0.00  0.00    +0.020 C 
ATOM      5  C   UNL     1     156.336 162.284 187.107  0.00  0.00    +0.068 C 
ATOM      6  C   UNL     1     156.760 163.495 187.978  0.00  0.00    -0.008 C 
ATOM      7  C   UNL     1     157.607 164.544 187.309  0.00  0.00    -0.077 C 
ATOM      8  C   UNL     1     158.830 164.354 186.790  0.00  0.00    -0.003 C 
ATOM      9  C   UNL     1     159.509 165.442 186.171  0.00  0.00    +0.220 A 
ATOM     10  N   UNL     1     158.936 166.516 185.637  0.00  0.00    -0.205 NA
ATOM     11  C   UNL     1     159.970 167.351 185.302  0.00  0.00    +0.164 A 
ATOM     12  C   UNL     1     161.163 166.748 185.585  0.00  0.00    +0.125 A 
ATOM     13  O   UNL     1     160.895 165.515 186.098  0.00  0.00    -0.443 OA
ATOM     14  C   UNL     1     159.777 168.782 184.728  0.00  0.00    +0.250 A 
ATOM     15  N   UNL     1     158.592 169.262 184.382  0.00  0.00    -0.203 NA
ATOM     16  C   UNL     1     158.845 170.566 184.035  0.00  0.00    +0.164 A 
ATOM     17  C   UNL     1     160.185 170.822 184.136  0.00  0.00    +0.125 A 
ATOM     18  O   UNL     1     160.803 169.682 184.557  0.00  0.00    -0.442 OA
ATOM     19  C   UNL     1     157.763 171.588 183.576  0.00  0.00    +0.249 A 
ATOM     20  N   UNL     1     156.498 171.262 183.368  0.00  0.00    -0.210 NA
ATOM     21  C   UNL     1     155.909 172.416 182.898  0.00  0.00    +0.109 A 
ATOM     22  C   UNL     1     156.836 173.428 182.921  0.00  0.00    +0.118 A 
ATOM     23  O   UNL     1     158.036 172.909 183.304  0.00  0.00    -0.442 OA
ATOM     24  C   UNL     1     154.473 172.442 182.461  0.00  0.00    +0.113 C 
ATOM     25  C   UNL     1     154.264 172.130 180.965  0.00  0.00    +0.051 C 
ATOM     26  C   UNL     1     154.117 170.638 180.723  0.00  0.00    +0.161 C 
ATOM     27  O   UNL     1     153.016 170.162 180.436  0.00  0.00    -0.292 OA
ATOM     28  C   UNL     1     155.308 169.753 180.871  0.00  0.00    -0.023 C 
ATOM     29  C   UNL     1     155.173 168.417 180.836  0.00  0.00    -0.078 C 
ATOM     30  C   UNL     1     156.301 167.463 181.118  0.00  0.00    -0.008 C 
ATOM     31  C   UNL     1     156.116 166.718 182.449  0.00  0.00    +0.069 C 
ATOM     32  C   UNL     1     154.985 165.693 182.396  0.00  0.00    +0.071 C 
ATOM     33  C   UNL     1     154.569 165.389 183.806  0.00  0.00    +0.310 C 
ATOM     34  O   UNL     1     154.117 166.239 184.561  0.00  0.00    -0.251 OA
ATOM     35  O   UNL     1     154.796 164.090 184.121  0.00  0.00    -0.461 OA
ATOM     36  C   UNL     1     154.852 163.749 185.531  0.00  0.00    +0.110 C 
ATOM     37  H   UNL     1     156.825 162.972 185.114  0.00  0.00    +0.036 HD
ATOM     38  H   UNL     1     155.490 161.790 187.600  0.00  0.00    +0.060 HD
ATOM     39  H   UNL     1     155.852 163.989 188.337  0.00  0.00    +0.033 HD
ATOM     40  H   UNL     1     157.288 163.157 188.877  0.00  0.00    +0.033 HD
ATOM     41  H   UNL     1     157.153 165.536 187.247  0.00  0.00    +0.057 HD
ATOM     42  H   UNL     1     159.331 163.397 186.848  0.00  0.00    +0.067 HD
ATOM     43  H   UNL     1     162.204 167.012 185.487  0.00  0.00    +0.105 HD
ATOM     44  H   UNL     1     160.816 171.687 183.969  0.00  0.00    +0.105 HD
ATOM     45  H   UNL     1     156.816 174.477 182.658  0.00  0.00    +0.105 HD
ATOM     46  H   UNL     1     153.951 171.688 183.066  0.00  0.00    +0.067 HD
ATOM     47  H   UNL     1     153.290 172.554 180.678  0.00  0.00    +0.041 HD
ATOM     48  H   UNL     1     156.265 170.213 181.077  0.00  0.00    +0.065 HD
ATOM     49  H   UNL     1     154.196 167.984 180.630  0.00  0.00    +0.057 HD
ATOM     50  H   UNL     1     156.391 166.748 180.292  0.00  0.00    +0.033 HD
ATOM     51  H   UNL     1     157.258 168.002 181.144  0.00  0.00    +0.033 HD
ATOM     52  H   UNL     1     155.953 167.449 183.251  0.00  0.00    +0.060 HD
ATOM     53  H   UNL     1     154.087 166.065 181.888  0.00  0.00    +0.040 HD
ATOM     54  H   UNL     1     155.298 164.772 181.887  0.00  0.00    +0.040 HD
ATOM     55  H   UNL     1     155.229 164.621 186.068  0.00  0.00    +0.074 HD
BRANCH   4  56
ATOM     56  C   UNL     1     155.494 161.361 184.886  0.00  0.00    -0.057 C 
ATOM     57  H   UNL     1     155.976 161.308 183.906  0.00  0.00    +0.023 HD
ATOM     58  H   UNL     1     154.413 161.338 184.733  0.00  0.00    +0.023 HD
ATOM     59  H   UNL     1     155.776 160.455 185.431  0.00  0.00    +0.023 HD
ENDBRANCH   4  56
BRANCH  25  60
ATOM     60  C   UNL     1     155.262 172.778 180.005  0.00  0.00    -0.053 C 
ATOM     61  H   UNL     1     154.938 172.730 178.960  0.00  0.00    +0.024 HD
ATOM     62  H   UNL     1     156.245 172.302 180.088  0.00  0.00    +0.024 HD
ATOM     63  H   UNL     1     155.381 173.842 180.252  0.00  0.00    +0.024 HD
ENDBRANCH  25  60
BRANCH  31  64
ATOM     64  O   UNL     1     157.329 166.021 182.748  0.00  0.00    -0.391 OA
ATOM     65  H   UNL     1     157.521 166.181 183.696  0.00  0.00    +0.210 HD
ENDBRANCH  31  64
BRANCH  24  66
ATOM     66  O   UNL     1     153.906 173.737 182.746  0.00  0.00    -0.373 OA
BRANCH  66  67
ATOM     67  C   UNL     1     152.669 173.940 182.072  0.00  0.00    +0.037 C 
ATOM     68  H   UNL     1     152.781 174.658 181.253  0.00  0.00    +0.052 HD
ATOM     69  H   UNL     1     152.284 172.990 181.686  0.00  0.00    +0.052 HD
ATOM     70  H   UNL     1     151.948 174.340 182.790  0.00  0.00    +0.052 HD
ENDBRANCH  66  67
ENDBRANCH  24  66
BRANCH   5  71
ATOM     71  O   UNL     1     157.431 161.344 187.047  0.00  0.00    -0.379 OA
BRANCH  71  72
ATOM     72  C   UNL     1     157.841 160.895 188.333  0.00  0.00    +0.037 C 
ATOM     73  H   UNL     1     158.924 160.751 188.381  0.00  0.00    +0.052 HD
ATOM     74  H   UNL     1     157.352 159.935 188.528  0.00  0.00    +0.052 HD
ATOM     75  H   UNL     1     157.524 161.608 189.101  0.00  0.00    +0.052 HD
ENDBRANCH  71  72
ENDBRANCH   5  71
ENDBRANCH   1  36
BRANCH   1  76
ATOM     76  C   UNL     1     153.196 163.687 187.512  0.00  0.00    +0.064 C 
ATOM     77  H   UNL     1     153.821 163.065 188.160  0.00  0.00    +0.060 HD
BRANCH  76  78
ATOM     78  C   UNL     1     153.459 165.184 187.837  0.00  0.00    -0.017 C 
ATOM     79  H   UNL     1     154.297 165.508 187.218  0.00  0.00    +0.032 HD
BRANCH  78  80
ATOM     80  C   UNL     1     152.228 166.011 187.395  0.00  0.00    -0.060 C 
ATOM     81  H   UNL     1     151.297 165.488 187.641  0.00  0.00    +0.023 HD
ATOM     82  H   UNL     1     152.190 166.978 187.905  0.00  0.00    +0.023 HD
ATOM     83  H   UNL     1     152.242 166.187 186.315  0.00  0.00    +0.023 HD
ENDBRANCH  78  80
BRANCH  78  84
ATOM     84  C   UNL     1     153.728 165.540 189.309  0.00  0.00    -0.045 C 
ATOM     85  H   UNL     1     153.460 164.671 189.929  0.00  0.00    +0.027 HD
ATOM     86  H   UNL     1     154.814 165.665 189.456  0.00  0.00    +0.027 HD
BRANCH  84  87
ATOM     87  C   UNL     1     153.012 166.735 189.961  0.00  0.00    -0.015 C 
ATOM     88  H   UNL     1     153.792 167.207 190.569  0.00  0.00    +0.030 HD
ATOM     89  H   UNL     1     152.755 167.480 189.200  0.00  0.00    +0.030 HD
BRANCH  87  90
ATOM     90  C   UNL     1     151.778 166.500 190.866  0.00  0.00    +0.109 C 
ATOM     91  H   UNL     1     150.889 166.681 190.251  0.00  0.00    +0.074 HD
BRANCH  90  92
ATOM     92  C   UNL     1     151.785 167.472 192.101  0.00  0.00    +0.031 C 
ATOM     93  H   UNL     1     152.658 168.128 191.995  0.00  0.00    +0.037 HD
BRANCH  92  94
ATOM     94  C   UNL     1     152.046 166.728 193.425  0.00  0.00    -0.056 C 
ATOM     95  H   UNL     1     153.114 166.629 193.624  0.00  0.00    +0.023 HD
ATOM     96  H   UNL     1     151.589 165.735 193.423  0.00  0.00    +0.023 HD
ATOM     97  H   UNL     1     151.631 167.287 194.273  0.00  0.00    +0.023 HD
ENDBRANCH  92  94
BRANCH  92  98
ATOM     98  C   UNL     1     150.502 168.343 192.299  0.00  0.00    +0.115 C 
ATOM     99  H   UNL     1     150.420 168.602 193.365  0.00  0.00    +0.074 HD
BRANCH  98 100
ATOM    100  C   UNL     1     150.493 169.716 191.562  0.00  0.00    +0.013 C 
ATOM    101  H   UNL     1     150.200 169.577 190.520  0.00  0.00    +0.038 HD
BRANCH 100 102
ATOM    102  C   UNL     1     151.872 170.392 191.592  0.00  0.00    -0.056 C 
ATOM    103  H   UNL     1     151.864 171.297 192.215  0.00  0.00    +0.024 HD
ATOM    104  H   UNL     1     152.640 169.717 191.997  0.00  0.00    +0.024 HD
ATOM    105  H   UNL     1     152.187 170.697 190.590  0.00  0.00    +0.024 HD
ENDBRANCH 100 102
BRANCH 100 106
ATOM    106  C   UNL     1     149.494 170.670 192.199  0.00  0.00    -0.064 C 
ATOM    107  C   UNL     1     149.129 171.834 191.644  0.00  0.00    -0.005 C 
ATOM    108  H   UNL     1     149.093 170.360 193.161  0.00  0.00    +0.059 HD
ATOM    109  H   UNL     1     149.585 172.117 190.696  0.00  0.00    +0.078 HD
BRANCH 107 110
ATOM    110  N   UNL     1     148.237 172.766 192.150  0.00  0.00    -0.284 N 
ATOM    111  C   UNL     1     147.287 173.464 191.403  0.00  0.00    +0.206 C 
ATOM    112  O   UNL     1     147.050 173.398 190.202  0.00  0.00    -0.279 OA
ATOM    113  H   UNL     1     146.702 174.160 192.028  0.00  0.00    +0.126 HD
BRANCH 110 114
ATOM    114  C   UNL     1     148.311 173.033 193.584  0.00  0.00    +0.007 C 
ATOM    115  H   UNL     1     148.566 174.089 193.737  0.00  0.00    +0.043 HD
ATOM    116  H   UNL     1     149.074 172.420 194.075  0.00  0.00    +0.043 HD
ATOM    117  H   UNL     1     147.341 172.820 194.042  0.00  0.00    +0.043 HD
ENDBRANCH 110 114
ENDBRANCH 107 110
ENDBRANCH 100 106
ENDBRANCH  98 100
BRANCH  98 118
ATOM    118  O   UNL     1     149.332 167.595 191.890  0.00  0.00    -0.461 OA
BRANCH 118 119
ATOM    119  C   UNL     1     148.432 167.297 192.872  0.00  0.00    +0.304 C 
ATOM    120  O   UNL     1     147.690 168.092 193.430  0.00  0.00    -0.251 OA
BRANCH 119 121
ATOM    121  C   UNL     1     148.496 165.840 193.214  0.00  0.00    +0.033 C 
ATOM    122  H   UNL     1     148.078 165.683 194.210  0.00  0.00    +0.034 HD
ATOM    123  H   UNL     1     149.531 165.491 193.168  0.00  0.00    +0.034 HD
ATOM    124  H   UNL     1     147.919 165.270 192.481  0.00  0.00    +0.034 HD
ENDBRANCH 119 121
ENDBRANCH 118 119
ENDBRANCH  98 118
ENDBRANCH  92  98
ENDBRANCH  90  92
BRANCH  90 125
ATOM    125  O   UNL     1     151.773 165.118 191.310  0.00  0.00    -0.459 OA
BRANCH 125 126
ATOM    126  C   UNL     1     150.777 164.319 190.799  0.00  0.00    +0.339 C 
ATOM    127  O   UNL     1     149.810 164.743 190.178  0.00  0.00    -0.248 OA
BRANCH 126 128
ATOM    128  C   UNL     1     150.961 162.834 191.157  0.00  0.00    +0.178 C 
ATOM    129  H   UNL     1     150.781 162.752 192.241  0.00  0.00    +0.074 HD
BRANCH 128 130
ATOM    130  C   UNL     1     149.901 162.004 190.429  0.00  0.00    +0.084 C 
ATOM    131  H   UNL     1     149.571 162.524 189.528  0.00  0.00    +0.059 HD
ATOM    132  H   UNL     1     150.346 161.058 190.097  0.00  0.00    +0.059 HD
BRANCH 130 133
ATOM    133  O   UNL     1     148.788 161.726 191.274  0.00  0.00    -0.380 OA
BRANCH 133 134
ATOM    134  C   UNL     1     148.184 160.481 190.954  0.00  0.00    +0.037 C 
ATOM    135  H   UNL     1     148.116 159.855 191.850  0.00  0.00    +0.052 HD
ATOM    136  H   UNL     1     147.172 160.672 190.585  0.00  0.00    +0.052 HD
ATOM    137  H   UNL     1     148.749 159.958 190.176  0.00  0.00    +0.052 HD
ENDBRANCH 133 134
ENDBRANCH 130 133
ENDBRANCH 128 130
BRANCH 128 138
ATOM    138  O   UNL     1     152.240 162.276 190.845  0.00  0.00    -0.366 OA
BRANCH 138 139
ATOM    139  C   UNL     1     152.161 160.894 190.525  0.00  0.00    +0.038 C 
ATOM    140  H   UNL     1     151.356 160.757 189.797  0.00  0.00    +0.052 HD
ATOM    141  H   UNL     1     151.920 160.307 191.417  0.00  0.00    +0.052 HD
ATOM    142  H   UNL     1     153.096 160.539 190.082  0.00  0.00    +0.052 HD
ENDBRANCH 138 139
ENDBRANCH 128 138
ENDBRANCH 126 128
ENDBRANCH 125 126
ENDBRANCH  90 125
ENDBRANCH  87  90
ENDBRANCH  84  87
ENDBRANCH  78  84
ENDBRANCH  76  78
BRANCH  76 143
ATOM    143  O   UNL     1     151.795 163.467 187.763  0.00  0.00    -0.379 OA
BRANCH 143 144
ATOM    144  C   UNL     1     151.240 162.384 187.027  0.00  0.00    +0.037 C 
ATOM    145  H   UNL     1     152.044 161.672 186.808  0.00  0.00    +0.052 HD
ATOM    146  H   UNL     1     150.801 162.713 186.078  0.00  0.00    +0.052 HD
ATOM    147  H   UNL     1     150.491 161.863 187.625  0.00  0.00    +0.052 HD
ENDBRANCH 143 144
ENDBRANCH  76 143
ENDBRANCH   1  76
TORSDOF 35
ENDMDL
