MODEL 1
REMARK VINA RESULT:      -5.4      0.000      0.000
REMARK  Name = Mycalolide B_conf2
REMARK  35 active torsions:
REMARK  status: ('A' for Active; 'I' for Inactive)
REMARK    1  A    between atoms: C_1  and  C_2
REMARK    2  A    between atoms: C_3  and  O_72
REMARK    3  A    between atoms: C_22  and  O_70
REMARK    4  A    between atoms: C_23  and  C_69
REMARK    5  A    between atoms: C_29  and  O_68
REMARK    6  A    between atoms: C_34  and  C_35
REMARK    7  A    between atoms: C_35  and  C_36
REMARK    8  A    between atoms: C_36  and  C_37
REMARK    9  A    between atoms: C_36  and  O_66
REMARK   10  A    between atoms: C_37  and  C_38
REMARK   11  A    between atoms: C_37  and  C_39
REMARK   12  A    between atoms: C_39  and  C_40
REMARK   13  A    between atoms: C_40  and  C_41
REMARK   14  A    between atoms: C_41  and  C_42
REMARK   15  A    between atoms: C_41  and  O_57
REMARK   16  A    between atoms: C_42  and  C_43
REMARK   17  A    between atoms: C_42  and  C_44
REMARK   18  A    between atoms: C_44  and  C_45
REMARK   19  A    between atoms: C_44  and  O_53
REMARK   20  A    between atoms: C_45  and  C_46
REMARK   21  A    between atoms: C_45  and  C_47
REMARK   22  A    between atoms: C_48  and  N_49
REMARK   23  A    between atoms: N_49  and  C_50
REMARK   24  A    between atoms: O_53  and  C_54
REMARK   25  A    between atoms: C_54  and  C_56
REMARK   26  A    between atoms: O_57  and  C_58
REMARK   27  A    between atoms: C_58  and  C_60
REMARK   28  A    between atoms: C_60  and  C_61
REMARK   29  A    between atoms: C_60  and  O_64
REMARK   30  A    between atoms: C_61  and  O_62
REMARK   31  A    between atoms: O_62  and  C_63
REMARK   32  A    between atoms: O_64  and  C_65
REMARK   33  A    between atoms: O_66  and  C_67
REMARK   34  A    between atoms: O_70  and  C_71
REMARK   35  A    between atoms: O_72  and  C_73
REMARK                            x       y       z     vdW  Elec       q    Type
REMARK                         _______ _______ _______ _____ _____    ______ ____
ROOT
ATOM      1  C   UNL     1     144.692 169.230 189.316  0.00  0.00    +0.011 C 
ATOM      2  H   UNL     1     145.588 168.644 189.088  0.00  0.00    +0.033 HD
ATOM      3  H   UNL     1     145.026 170.014 189.995  0.00  0.00    +0.033 HD
ENDROOT
BRANCH   1  36
ATOM      4  C   UNL     1     143.020 170.864 188.091  0.00  0.00    +0.020 C 
ATOM      5  C   UNL     1     143.172 172.097 189.034  0.00  0.00    +0.068 C 
ATOM      6  C   UNL     1     144.440 172.978 188.873  0.00  0.00    -0.008 C 
ATOM      7  C   UNL     1     145.689 172.472 189.538  0.00  0.00    -0.077 C 
ATOM      8  C   UNL     1     146.066 172.806 190.784  0.00  0.00    -0.003 C 
ATOM      9  C   UNL     1     147.200 172.199 191.389  0.00  0.00    +0.220 A 
ATOM     10  N   UNL     1     148.015 171.311 190.836  0.00  0.00    -0.205 NA
ATOM     11  C   UNL     1     148.900 170.967 191.827  0.00  0.00    +0.164 A 
ATOM     12  C   UNL     1     148.621 171.673 192.962  0.00  0.00    +0.125 A 
ATOM     13  O   UNL     1     147.559 172.481 192.698  0.00  0.00    -0.443 OA
ATOM     14  C   UNL     1     150.041 169.916 191.693  0.00  0.00    +0.250 A 
ATOM     15  N   UNL     1     150.293 169.244 190.583  0.00  0.00    -0.203 NA
ATOM     16  C   UNL     1     151.348 168.431 190.914  0.00  0.00    +0.164 A 
ATOM     17  C   UNL     1     151.701 168.634 192.223  0.00  0.00    +0.125 A 
ATOM     18  O   UNL     1     150.877 169.586 192.736  0.00  0.00    -0.442 OA
ATOM     19  C   UNL     1     152.052 167.424 189.956  0.00  0.00    +0.249 A 
ATOM     20  N   UNL     1     151.707 167.255 188.690  0.00  0.00    -0.210 NA
ATOM     21  C   UNL     1     152.583 166.304 188.218  0.00  0.00    +0.109 A 
ATOM     22  C   UNL     1     153.431 165.923 189.231  0.00  0.00    +0.118 A 
ATOM     23  O   UNL     1     153.103 166.625 190.347  0.00  0.00    -0.442 OA
ATOM     24  C   UNL     1     152.520 165.840 186.799  0.00  0.00    +0.113 C 
ATOM     25  C   UNL     1     151.529 164.675 186.558  0.00  0.00    +0.051 C 
ATOM     26  C   UNL     1     150.537 165.115 185.484  0.00  0.00    +0.161 C 
ATOM     27  O   UNL     1     150.624 164.685 184.332  0.00  0.00    -0.292 OA
ATOM     28  C   UNL     1     149.488 166.115 185.839  0.00  0.00    -0.023 C 
ATOM     29  C   UNL     1     148.841 166.787 184.870  0.00  0.00    -0.078 C 
ATOM     30  C   UNL     1     147.749 167.797 185.098  0.00  0.00    -0.008 C 
ATOM     31  C   UNL     1     148.108 168.954 186.055  0.00  0.00    +0.069 C 
ATOM     32  C   UNL     1     147.172 170.156 185.907  0.00  0.00    +0.071 C 
ATOM     33  C   UNL     1     145.736 169.787 186.187  0.00  0.00    +0.310 C 
ATOM     34  O   UNL     1     145.065 169.035 185.495  0.00  0.00    -0.251 OA
ATOM     35  O   UNL     1     145.312 170.397 187.328  0.00  0.00    -0.461 OA
ATOM     36  C   UNL     1     144.165 169.823 187.998  0.00  0.00    +0.110 C 
ATOM     37  H   UNL     1     142.149 170.300 188.441  0.00  0.00    +0.036 HD
ATOM     38  H   UNL     1     142.335 172.773 188.808  0.00  0.00    +0.060 HD
ATOM     39  H   UNL     1     144.210 173.959 189.310  0.00  0.00    +0.033 HD
ATOM     40  H   UNL     1     144.645 173.172 187.813  0.00  0.00    +0.033 HD
ATOM     41  H   UNL     1     146.298 171.763 188.980  0.00  0.00    +0.057 HD
ATOM     42  H   UNL     1     145.474 173.486 191.386  0.00  0.00    +0.067 HD
ATOM     43  H   UNL     1     149.052 171.744 193.952  0.00  0.00    +0.105 HD
ATOM     44  H   UNL     1     152.448 168.223 192.885  0.00  0.00    +0.105 HD
ATOM     45  H   UNL     1     154.255 165.230 189.313  0.00  0.00    +0.105 HD
ATOM     46  H   UNL     1     152.216 166.706 186.192  0.00  0.00    +0.067 HD
ATOM     47  H   UNL     1     152.073 163.833 186.109  0.00  0.00    +0.041 HD
ATOM     48  H   UNL     1     149.272 166.291 186.889  0.00  0.00    +0.065 HD
ATOM     49  H   UNL     1     149.098 166.590 183.825  0.00  0.00    +0.057 HD
ATOM     50  H   UNL     1     147.492 168.215 184.119  0.00  0.00    +0.033 HD
ATOM     51  H   UNL     1     146.873 167.248 185.464  0.00  0.00    +0.033 HD
ATOM     52  H   UNL     1     149.132 169.288 185.841  0.00  0.00    +0.060 HD
ATOM     53  H   UNL     1     147.220 170.577 184.898  0.00  0.00    +0.040 HD
ATOM     54  H   UNL     1     147.480 170.951 186.599  0.00  0.00    +0.040 HD
ATOM     55  H   UNL     1     143.774 168.993 187.393  0.00  0.00    +0.074 HD
BRANCH   4  56
ATOM     56  C   UNL     1     142.664 171.350 186.674  0.00  0.00    -0.057 C 
ATOM     57  H   UNL     1     141.610 171.150 186.448  0.00  0.00    +0.023 HD
ATOM     58  H   UNL     1     143.259 170.821 185.923  0.00  0.00    +0.023 HD
ATOM     59  H   UNL     1     142.836 172.422 186.548  0.00  0.00    +0.023 HD
ENDBRANCH   4  56
BRANCH  25  60
ATOM     60  C   UNL     1     150.802 164.099 187.772  0.00  0.00    -0.053 C 
ATOM     61  H   UNL     1     149.856 163.638 187.475  0.00  0.00    +0.024 HD
ATOM     62  H   UNL     1     151.391 163.348 188.306  0.00  0.00    +0.024 HD
ATOM     63  H   UNL     1     150.570 164.886 188.496  0.00  0.00    +0.024 HD
ENDBRANCH  25  60
BRANCH  31  64
ATOM     64  O   UNL     1     148.087 168.486 187.406  0.00  0.00    -0.391 OA
ATOM     65  H   UNL     1     148.996 168.220 187.652  0.00  0.00    +0.210 HD
ENDBRANCH  31  64
BRANCH  24  66
ATOM     66  O   UNL     1     153.819 165.417 186.323  0.00  0.00    -0.373 OA
BRANCH  66  67
ATOM     67  C   UNL     1     153.862 164.023 186.024  0.00  0.00    +0.037 C 
ATOM     68  H   UNL     1     152.881 163.664 185.695  0.00  0.00    +0.052 HD
ATOM     69  H   UNL     1     154.587 163.859 185.218  0.00  0.00    +0.052 HD
ATOM     70  H   UNL     1     154.193 163.458 186.907  0.00  0.00    +0.052 HD
ENDBRANCH  66  67
ENDBRANCH  24  66
BRANCH   5  71
ATOM     71  O   UNL     1     143.050 171.752 190.424  0.00  0.00    -0.379 OA
BRANCH  71  72
ATOM     72  C   UNL     1     141.720 171.510 190.858  0.00  0.00    +0.037 C 
ATOM     73  H   UNL     1     141.338 170.590 190.410  0.00  0.00    +0.052 HD
ATOM     74  H   UNL     1     141.097 172.344 190.520  0.00  0.00    +0.052 HD
ATOM     75  H   UNL     1     141.649 171.455 191.947  0.00  0.00    +0.052 HD
ENDBRANCH  71  72
ENDBRANCH   5  71
ENDBRANCH   1  36
BRANCH   1  76
ATOM     76  C   UNL     1     143.664 168.345 190.046  0.00  0.00    +0.064 C 
ATOM     77  H   UNL     1     142.651 168.601 189.709  0.00  0.00    +0.060 HD
BRANCH  76  78
ATOM     78  C   UNL     1     143.932 166.842 189.708  0.00  0.00    -0.017 C 
ATOM     79  H   UNL     1     144.139 166.315 190.653  0.00  0.00    +0.032 HD
BRANCH  78  80
ATOM     80  C   UNL     1     142.723 166.141 189.087  0.00  0.00    -0.060 C 
ATOM     81  H   UNL     1     142.289 165.417 189.782  0.00  0.00    +0.023 HD
ATOM     82  H   UNL     1     142.991 165.618 188.165  0.00  0.00    +0.023 HD
ATOM     83  H   UNL     1     141.923 166.854 188.857  0.00  0.00    +0.023 HD
ENDBRANCH  78  80
BRANCH  78  84
ATOM     84  C   UNL     1     145.194 166.752 188.805  0.00  0.00    -0.045 C 
ATOM     85  H   UNL     1     145.007 167.281 187.867  0.00  0.00    +0.027 HD
ATOM     86  H   UNL     1     146.001 167.315 189.289  0.00  0.00    +0.027 HD
BRANCH  84  87
ATOM     87  C   UNL     1     145.744 165.342 188.555  0.00  0.00    -0.015 C 
ATOM     88  H   UNL     1     144.871 164.718 188.319  0.00  0.00    +0.030 HD
ATOM     89  H   UNL     1     146.384 165.347 187.666  0.00  0.00    +0.030 HD
BRANCH  87  90
ATOM     90  C   UNL     1     146.478 164.698 189.750  0.00  0.00    +0.109 C 
ATOM     91  H   UNL     1     145.722 164.397 190.477  0.00  0.00    +0.074 HD
BRANCH  90  92
ATOM     92  C   UNL     1     147.441 165.713 190.440  0.00  0.00    +0.031 C 
ATOM     93  H   UNL     1     146.847 166.606 190.677  0.00  0.00    +0.037 HD
BRANCH  92  94
ATOM     94  C   UNL     1     148.567 166.178 189.497  0.00  0.00    -0.056 C 
ATOM     95  H   UNL     1     149.515 166.296 190.031  0.00  0.00    +0.023 HD
ATOM     96  H   UNL     1     148.332 167.131 189.016  0.00  0.00    +0.023 HD
ATOM     97  H   UNL     1     148.740 165.436 188.711  0.00  0.00    +0.023 HD
ENDBRANCH  92  94
BRANCH  92  98
ATOM     98  C   UNL     1     148.056 165.209 191.787  0.00  0.00    +0.115 C 
ATOM     99  H   UNL     1     147.544 164.268 192.030  0.00  0.00    +0.074 HD
BRANCH  98 100
ATOM    100  C   UNL     1     149.581 164.920 191.749  0.00  0.00    +0.013 C 
ATOM    101  H   UNL     1     150.022 165.459 190.904  0.00  0.00    +0.038 HD
BRANCH 100 102
ATOM    102  C   UNL     1     149.905 163.431 191.587  0.00  0.00    -0.056 C 
ATOM    103  H   UNL     1     149.226 162.800 192.164  0.00  0.00    +0.024 HD
ATOM    104  H   UNL     1     149.817 163.130 190.538  0.00  0.00    +0.024 HD
ATOM    105  H   UNL     1     150.925 163.205 191.919  0.00  0.00    +0.024 HD
ENDBRANCH 100 102
BRANCH 100 106
ATOM    106  C   UNL     1     150.260 165.422 193.015  0.00  0.00    -0.064 C 
ATOM    107  C   UNL     1     150.538 164.628 194.060  0.00  0.00    -0.005 C 
ATOM    108  H   UNL     1     150.534 166.472 193.020  0.00  0.00    +0.059 HD
ATOM    109  H   UNL     1     150.277 163.571 193.989  0.00  0.00    +0.078 HD
BRANCH 107 110
ATOM    110  N   UNL     1     151.150 164.989 195.250  0.00  0.00    -0.284 N 
ATOM    111  C   UNL     1     151.251 164.181 196.383  0.00  0.00    +0.206 C 
ATOM    112  O   UNL     1     150.850 163.038 196.555  0.00  0.00    -0.279 OA
ATOM    113  H   UNL     1     151.788 164.692 197.199  0.00  0.00    +0.126 HD
BRANCH 110 114
ATOM    114  C   UNL     1     151.772 166.309 195.289  0.00  0.00    +0.007 C 
ATOM    115  H   UNL     1     152.686 166.311 195.889  0.00  0.00    +0.043 HD
ATOM    116  H   UNL     1     152.026 166.609 194.268  0.00  0.00    +0.043 HD
ATOM    117  H   UNL     1     151.071 167.030 195.716  0.00  0.00    +0.043 HD
ENDBRANCH 110 114
ENDBRANCH 107 110
ENDBRANCH 100 106
ENDBRANCH  98 100
BRANCH  98 118
ATOM    118  O   UNL     1     147.820 166.198 192.816  0.00  0.00    -0.461 OA
BRANCH 118 119
ATOM    119  C   UNL     1     146.935 165.860 193.793  0.00  0.00    +0.304 C 
ATOM    120  O   UNL     1     147.214 165.358 194.874  0.00  0.00    -0.251 OA
BRANCH 119 121
ATOM    121  C   UNL     1     145.536 166.152 193.349  0.00  0.00    +0.033 C 
ATOM    122  H   UNL     1     145.118 166.965 193.947  0.00  0.00    +0.034 HD
ATOM    123  H   UNL     1     145.545 166.456 192.299  0.00  0.00    +0.034 HD
ATOM    124  H   UNL     1     144.921 165.251 193.435  0.00  0.00    +0.034 HD
ENDBRANCH 119 121
ENDBRANCH 118 119
ENDBRANCH  98 118
ENDBRANCH  92  98
ENDBRANCH  90  92
BRANCH  90 125
ATOM    125  O   UNL     1     147.230 163.556 189.285  0.00  0.00    -0.459 OA
BRANCH 125 126
ATOM    126  C   UNL     1     146.648 162.325 189.429  0.00  0.00    +0.339 C 
ATOM    127  O   UNL     1     145.453 162.092 189.290  0.00  0.00    -0.248 OA
BRANCH 126 128
ATOM    128  C   UNL     1     147.723 161.264 189.700  0.00  0.00    +0.178 C 
ATOM    129  H   UNL     1     148.227 161.535 190.639  0.00  0.00    +0.074 HD
BRANCH 128 130
ATOM    130  C   UNL     1     147.026 159.912 189.908  0.00  0.00    +0.084 C 
ATOM    131  H   UNL     1     147.705 159.111 189.599  0.00  0.00    +0.059 HD
ATOM    132  H   UNL     1     146.134 159.836 189.276  0.00  0.00    +0.059 HD
BRANCH 130 133
ATOM    133  O   UNL     1     146.648 159.611 191.256  0.00  0.00    -0.380 OA
BRANCH 133 134
ATOM    134  C   UNL     1     145.876 158.424 191.388  0.00  0.00    +0.037 C 
ATOM    135  H   UNL     1     144.882 158.639 191.789  0.00  0.00    +0.052 HD
ATOM    136  H   UNL     1     145.757 157.983 190.394  0.00  0.00    +0.052 HD
ATOM    137  H   UNL     1     146.397 157.692 192.012  0.00  0.00    +0.052 HD
ENDBRANCH 133 134
ENDBRANCH 130 133
ENDBRANCH 128 130
BRANCH 128 138
ATOM    138  O   UNL     1     148.743 161.104 188.710  0.00  0.00    -0.366 OA
BRANCH 138 139
ATOM    139  C   UNL     1     149.918 160.484 189.215  0.00  0.00    +0.038 C 
ATOM    140  H   UNL     1     150.181 160.975 190.154  0.00  0.00    +0.052 HD
ATOM    141  H   UNL     1     149.739 159.425 189.417  0.00  0.00    +0.052 HD
ATOM    142  H   UNL     1     150.757 160.596 188.523  0.00  0.00    +0.052 HD
ENDBRANCH 138 139
ENDBRANCH 128 138
ENDBRANCH 126 128
ENDBRANCH 125 126
ENDBRANCH  90 125
ENDBRANCH  87  90
ENDBRANCH  84  87
ENDBRANCH  78  84
ENDBRANCH  76  78
BRANCH  76 143
ATOM    143  O   UNL     1     143.796 168.609 191.450  0.00  0.00    -0.379 OA
BRANCH 143 144
ATOM    144  C   UNL     1     142.686 168.134 192.202  0.00  0.00    +0.037 C 
ATOM    145  H   UNL     1     142.292 167.244 191.705  0.00  0.00    +0.052 HD
ATOM    146  H   UNL     1     141.899 168.888 192.255  0.00  0.00    +0.052 HD
ATOM    147  H   UNL     1     143.009 167.856 193.211  0.00  0.00    +0.052 HD
ENDBRANCH 143 144
ENDBRANCH  76 143
ENDBRANCH   1  76
TORSDOF 35
ENDMDL
MODEL 2
REMARK VINA RESULT:      -5.3      2.508      8.916
REMARK  Name = Mycalolide B_conf2
REMARK  35 active torsions:
REMARK  status: ('A' for Active; 'I' for Inactive)
REMARK    1  A    between atoms: C_1  and  C_2
REMARK    2  A    between atoms: C_3  and  O_72
REMARK    3  A    between atoms: C_22  and  O_70
REMARK    4  A    between atoms: C_23  and  C_69
REMARK    5  A    between atoms: C_29  and  O_68
REMARK    6  A    between atoms: C_34  and  C_35
REMARK    7  A    between atoms: C_35  and  C_36
REMARK    8  A    between atoms: C_36  and  C_37
REMARK    9  A    between atoms: C_36  and  O_66
REMARK   10  A    between atoms: C_37  and  C_38
REMARK   11  A    between atoms: C_37  and  C_39
REMARK   12  A    between atoms: C_39  and  C_40
REMARK   13  A    between atoms: C_40  and  C_41
REMARK   14  A    between atoms: C_41  and  C_42
REMARK   15  A    between atoms: C_41  and  O_57
REMARK   16  A    between atoms: C_42  and  C_43
REMARK   17  A    between atoms: C_42  and  C_44
REMARK   18  A    between atoms: C_44  and  C_45
REMARK   19  A    between atoms: C_44  and  O_53
REMARK   20  A    between atoms: C_45  and  C_46
REMARK   21  A    between atoms: C_45  and  C_47
REMARK   22  A    between atoms: C_48  and  N_49
REMARK   23  A    between atoms: N_49  and  C_50
REMARK   24  A    between atoms: O_53  and  C_54
REMARK   25  A    between atoms: C_54  and  C_56
REMARK   26  A    between atoms: O_57  and  C_58
REMARK   27  A    between atoms: C_58  and  C_60
REMARK   28  A    between atoms: C_60  and  C_61
REMARK   29  A    between atoms: C_60  and  O_64
REMARK   30  A    between atoms: C_61  and  O_62
REMARK   31  A    between atoms: O_62  and  C_63
REMARK   32  A    between atoms: O_64  and  C_65
REMARK   33  A    between atoms: O_66  and  C_67
REMARK   34  A    between atoms: O_70  and  C_71
REMARK   35  A    between atoms: O_72  and  C_73
REMARK                            x       y       z     vdW  Elec       q    Type
REMARK                         _______ _______ _______ _____ _____    ______ ____
ROOT
ATOM      1  C   UNL     1     148.976 166.473 188.787  0.00  0.00    +0.011 C 
ATOM      2  H   UNL     1     148.284 167.215 189.199  0.00  0.00    +0.033 HD
ATOM      3  H   UNL     1     149.953 166.735 189.191  0.00  0.00    +0.033 HD
ENDROOT
BRANCH   1  36
ATOM      4  C   UNL     1     149.622 163.998 189.439  0.00  0.00    +0.020 C 
ATOM      5  C   UNL     1     150.895 164.308 190.283  0.00  0.00    +0.068 C 
ATOM      6  C   UNL     1     150.693 164.831 191.731  0.00  0.00    -0.008 C 
ATOM      7  C   UNL     1     150.394 166.297 191.871  0.00  0.00    -0.077 C 
ATOM      8  C   UNL     1     151.333 167.241 192.056  0.00  0.00    -0.003 C 
ATOM      9  C   UNL     1     150.986 168.620 192.066  0.00  0.00    +0.220 A 
ATOM     10  N   UNL     1     149.769 169.134 191.945  0.00  0.00    -0.205 NA
ATOM     11  C   UNL     1     149.953 170.494 191.934  0.00  0.00    +0.164 A 
ATOM     12  C   UNL     1     151.279 170.785 192.073  0.00  0.00    +0.125 A 
ATOM     13  O   UNL     1     151.952 169.608 192.185  0.00  0.00    -0.443 OA
ATOM     14  C   UNL     1     148.824 171.555 191.767  0.00  0.00    +0.250 A 
ATOM     15  N   UNL     1     147.545 171.250 191.633  0.00  0.00    -0.203 NA
ATOM     16  C   UNL     1     146.922 172.466 191.500  0.00  0.00    +0.164 A 
ATOM     17  C   UNL     1     147.849 173.474 191.552  0.00  0.00    +0.125 A 
ATOM     18  O   UNL     1     149.073 172.908 191.728  0.00  0.00    -0.442 OA
ATOM     19  C   UNL     1     145.390 172.685 191.316  0.00  0.00    +0.249 A 
ATOM     20  N   UNL     1     144.509 171.699 191.285  0.00  0.00    -0.210 NA
ATOM     21  C   UNL     1     143.294 172.326 191.129  0.00  0.00    +0.109 A 
ATOM     22  C   UNL     1     143.489 173.685 191.064  0.00  0.00    +0.118 A 
ATOM     23  O   UNL     1     144.821 173.930 191.177  0.00  0.00    -0.442 OA
ATOM     24  C   UNL     1     142.026 171.538 191.057  0.00  0.00    +0.113 C 
ATOM     25  C   UNL     1     141.666 171.049 189.633  0.00  0.00    +0.051 C 
ATOM     26  C   UNL     1     141.517 169.531 189.679  0.00  0.00    +0.161 C 
ATOM     27  O   UNL     1     140.402 169.006 189.656  0.00  0.00    -0.292 OA
ATOM     28  C   UNL     1     142.744 168.690 189.804  0.00  0.00    -0.023 C 
ATOM     29  C   UNL     1     142.647 167.410 190.204  0.00  0.00    -0.078 C 
ATOM     30  C   UNL     1     143.803 166.456 190.344  0.00  0.00    -0.008 C 
ATOM     31  C   UNL     1     144.959 166.947 191.241  0.00  0.00    +0.069 C 
ATOM     32  C   UNL     1     145.869 165.808 191.708  0.00  0.00    +0.071 C 
ATOM     33  C   UNL     1     146.496 165.078 190.546  0.00  0.00    +0.310 C 
ATOM     34  O   UNL     1     145.878 164.403 189.735  0.00  0.00    -0.251 OA
ATOM     35  O   UNL     1     147.839 165.299 190.527  0.00  0.00    -0.461 OA
ATOM     36  C   UNL     1     148.528 165.084 189.272  0.00  0.00    +0.110 C 
ATOM     37  H   UNL     1     149.960 163.776 188.420  0.00  0.00    +0.036 HD
ATOM     38  H   UNL     1     151.433 163.357 190.406  0.00  0.00    +0.060 HD
ATOM     39  H   UNL     1     151.623 164.632 192.280  0.00  0.00    +0.033 HD
ATOM     40  H   UNL     1     149.919 164.251 192.248  0.00  0.00    +0.033 HD
ATOM     41  H   UNL     1     149.354 166.605 191.779  0.00  0.00    +0.057 HD
ATOM     42  H   UNL     1     152.383 166.983 192.125  0.00  0.00    +0.067 HD
ATOM     43  H   UNL     1     151.868 171.690 192.140  0.00  0.00    +0.105 HD
ATOM     44  H   UNL     1     147.811 174.551 191.489  0.00  0.00    +0.105 HD
ATOM     45  H   UNL     1     142.841 174.542 190.953  0.00  0.00    +0.105 HD
ATOM     46  H   UNL     1     142.153 170.667 191.718  0.00  0.00    +0.067 HD
ATOM     47  H   UNL     1     140.665 171.421 189.372  0.00  0.00    +0.041 HD
ATOM     48  H   UNL     1     143.707 169.140 189.578  0.00  0.00    +0.065 HD
ATOM     49  H   UNL     1     141.659 167.000 190.436  0.00  0.00    +0.057 HD
ATOM     50  H   UNL     1     143.400 165.527 190.762  0.00  0.00    +0.033 HD
ATOM     51  H   UNL     1     144.163 166.236 189.332  0.00  0.00    +0.033 HD
ATOM     52  H   UNL     1     144.539 167.436 192.129  0.00  0.00    +0.060 HD
ATOM     53  H   UNL     1     145.317 165.076 192.305  0.00  0.00    +0.040 HD
ATOM     54  H   UNL     1     146.663 166.209 192.350  0.00  0.00    +0.040 HD
ATOM     55  H   UNL     1     147.815 164.687 188.535  0.00  0.00    +0.074 HD
BRANCH   4  56
ATOM     56  C   UNL     1     148.972 162.702 189.957  0.00  0.00    -0.057 C 
ATOM     57  H   UNL     1     149.440 162.380 190.894  0.00  0.00    +0.023 HD
ATOM     58  H   UNL     1     149.103 161.889 189.236  0.00  0.00    +0.023 HD
ATOM     59  H   UNL     1     147.901 162.821 190.141  0.00  0.00    +0.023 HD
ENDBRANCH   4  56
BRANCH  25  60
ATOM     60  C   UNL     1     142.579 171.476 188.484  0.00  0.00    -0.053 C 
ATOM     61  H   UNL     1     142.425 172.530 188.238  0.00  0.00    +0.024 HD
ATOM     62  H   UNL     1     143.640 171.332 188.706  0.00  0.00    +0.024 HD
ATOM     63  H   UNL     1     142.367 170.895 187.582  0.00  0.00    +0.024 HD
ENDBRANCH  25  60
BRANCH  31  64
ATOM     64  O   UNL     1     145.730 167.927 190.541  0.00  0.00    -0.391 OA
ATOM     65  H   UNL     1     145.315 168.075 189.667  0.00  0.00    +0.210 HD
ENDBRANCH  31  64
BRANCH  24  66
ATOM     66  O   UNL     1     140.902 172.298 191.558  0.00  0.00    -0.373 OA
BRANCH  66  67
ATOM     67  C   UNL     1     139.940 172.580 190.544  0.00  0.00    +0.037 C 
ATOM     68  H   UNL     1     139.121 173.189 190.942  0.00  0.00    +0.052 HD
ATOM     69  H   UNL     1     140.433 173.135 189.738  0.00  0.00    +0.052 HD
ATOM     70  H   UNL     1     139.545 171.643 190.127  0.00  0.00    +0.052 HD
ENDBRANCH  66  67
ENDBRANCH  24  66
BRANCH   5  71
ATOM     71  O   UNL     1     151.802 165.202 189.615  0.00  0.00    -0.379 OA
BRANCH  71  72
ATOM     72  C   UNL     1     153.156 164.778 189.614  0.00  0.00    +0.037 C 
ATOM     73  H   UNL     1     153.346 164.117 190.463  0.00  0.00    +0.052 HD
ATOM     74  H   UNL     1     153.788 165.666 189.720  0.00  0.00    +0.052 HD
ATOM     75  H   UNL     1     153.428 164.279 188.681  0.00  0.00    +0.052 HD
ENDBRANCH  71  72
ENDBRANCH   5  71
ENDBRANCH   1  36
BRANCH   1  76
ATOM     76  C   UNL     1     149.022 166.602 187.253  0.00  0.00    +0.064 C 
ATOM     77  H   UNL     1     148.863 165.617 186.795  0.00  0.00    +0.060 HD
BRANCH  76  78
ATOM     78  C   UNL     1     147.884 167.561 186.773  0.00  0.00    -0.017 C 
ATOM     79  H   UNL     1     147.476 168.071 187.659  0.00  0.00    +0.032 HD
BRANCH  78  80
ATOM     80  C   UNL     1     148.384 168.665 185.839  0.00  0.00    -0.060 C 
ATOM     81  H   UNL     1     149.269 168.340 185.284  0.00  0.00    +0.023 HD
ATOM     82  H   UNL     1     148.636 169.575 186.392  0.00  0.00    +0.023 HD
ATOM     83  H   UNL     1     147.632 168.920 185.084  0.00  0.00    +0.023 HD
ENDBRANCH  78  80
BRANCH  78  84
ATOM     84  C   UNL     1     146.756 166.709 186.127  0.00  0.00    -0.045 C 
ATOM     85  H   UNL     1     146.500 167.127 185.150  0.00  0.00    +0.027 HD
ATOM     86  H   UNL     1     147.160 165.713 185.911  0.00  0.00    +0.027 HD
BRANCH  84  87
ATOM     87  C   UNL     1     145.504 166.488 186.986  0.00  0.00    -0.015 C 
ATOM     88  H   UNL     1     145.733 165.630 187.634  0.00  0.00    +0.030 HD
ATOM     89  H   UNL     1     145.347 167.351 187.642  0.00  0.00    +0.030 HD
BRANCH  87  90
ATOM     90  C   UNL     1     144.215 166.158 186.202  0.00  0.00    +0.109 C 
ATOM     91  H   UNL     1     144.508 165.884 185.188  0.00  0.00    +0.074 HD
BRANCH  90  92
ATOM     92  C   UNL     1     143.269 167.395 186.120  0.00  0.00    +0.031 C 
ATOM     93  H   UNL     1     143.675 168.155 186.801  0.00  0.00    +0.037 HD
BRANCH  92  94
ATOM     94  C   UNL     1     141.849 167.075 186.622  0.00  0.00    -0.056 C 
ATOM     95  H   UNL     1     141.119 167.098 185.807  0.00  0.00    +0.023 HD
ATOM     96  H   UNL     1     141.517 167.780 187.389  0.00  0.00    +0.023 HD
ATOM     97  H   UNL     1     141.811 166.068 187.050  0.00  0.00    +0.023 HD
ENDBRANCH  92  94
BRANCH  92  98
ATOM     98  C   UNL     1     143.190 168.056 184.704  0.00  0.00    +0.115 C 
ATOM     99  H   UNL     1     142.148 168.380 184.570  0.00  0.00    +0.074 HD
BRANCH  98 100
ATOM    100  C   UNL     1     144.100 169.298 184.502  0.00  0.00    +0.013 C 
ATOM    101  H   UNL     1     143.526 170.076 183.987  0.00  0.00    +0.038 HD
BRANCH 100 102
ATOM    102  C   UNL     1     145.350 168.996 183.669  0.00  0.00    -0.056 C 
ATOM    103  H   UNL     1     146.153 169.711 183.864  0.00  0.00    +0.024 HD
ATOM    104  H   UNL     1     145.738 168.000 183.904  0.00  0.00    +0.024 HD
ATOM    105  H   UNL     1     145.134 169.030 182.595  0.00  0.00    +0.024 HD
ENDBRANCH 100 102
BRANCH 100 106
ATOM    106  C   UNL     1     144.543 169.869 185.840  0.00  0.00    -0.064 C 
ATOM    107  C   UNL     1     145.373 170.918 185.949  0.00  0.00    -0.005 C 
ATOM    108  H   UNL     1     144.127 169.390 186.720  0.00  0.00    +0.059 HD
ATOM    109  H   UNL     1     145.733 171.389 185.033  0.00  0.00    +0.078 HD
BRANCH 107 110
ATOM    110  N   UNL     1     145.832 171.508 187.116  0.00  0.00    -0.284 N 
ATOM    111  C   UNL     1     145.908 172.882 187.350  0.00  0.00    +0.206 C 
ATOM    112  O   UNL     1     145.591 173.809 186.617  0.00  0.00    -0.279 OA
ATOM    113  H   UNL     1     146.301 173.101 188.356  0.00  0.00    +0.126 HD
BRANCH 110 114
ATOM    114  C   UNL     1     146.224 170.605 188.193  0.00  0.00    +0.007 C 
ATOM    115  H   UNL     1     145.960 169.567 187.971  0.00  0.00    +0.043 HD
ATOM    116  H   UNL     1     147.309 170.666 188.327  0.00  0.00    +0.043 HD
ATOM    117  H   UNL     1     145.727 170.903 189.119  0.00  0.00    +0.043 HD
ENDBRANCH 110 114
ENDBRANCH 107 110
ENDBRANCH 100 106
ENDBRANCH  98 100
BRANCH  98 118
ATOM    118  O   UNL     1     143.552 167.078 183.702  0.00  0.00    -0.461 OA
BRANCH 118 119
ATOM    119  C   UNL     1     142.549 166.631 182.898  0.00  0.00    +0.304 C 
ATOM    120  O   UNL     1     141.352 166.830 183.062  0.00  0.00    -0.251 OA
BRANCH 119 121
ATOM    121  C   UNL     1     143.107 165.812 181.777  0.00  0.00    +0.033 C 
ATOM    122  H   UNL     1     142.370 165.725 180.976  0.00  0.00    +0.034 HD
ATOM    123  H   UNL     1     144.001 166.301 181.381  0.00  0.00    +0.034 HD
ATOM    124  H   UNL     1     143.398 164.823 182.145  0.00  0.00    +0.034 HD
ENDBRANCH 119 121
ENDBRANCH 118 119
ENDBRANCH  98 118
ENDBRANCH  92  98
ENDBRANCH  90  92
BRANCH  90 125
ATOM    125  O   UNL     1     143.530 165.067 186.853  0.00  0.00    -0.459 OA
BRANCH 125 126
ATOM    126  C   UNL     1     143.319 163.933 186.115  0.00  0.00    +0.339 C 
ATOM    127  O   UNL     1     143.456 163.850 184.901  0.00  0.00    -0.248 OA
BRANCH 126 128
ATOM    128  C   UNL     1     142.973 162.760 187.042  0.00  0.00    +0.178 C 
ATOM    129  H   UNL     1     142.481 161.989 186.432  0.00  0.00    +0.074 HD
BRANCH 128 130
ATOM    130  C   UNL     1     144.284 162.170 187.583  0.00  0.00    +0.084 C 
ATOM    131  H   UNL     1     145.032 162.967 187.648  0.00  0.00    +0.059 HD
ATOM    132  H   UNL     1     144.682 161.415 186.895  0.00  0.00    +0.059 HD
BRANCH 130 133
ATOM    133  O   UNL     1     144.210 161.591 188.891  0.00  0.00    -0.380 OA
BRANCH 133 134
ATOM    134  C   UNL     1     145.386 160.893 189.281  0.00  0.00    +0.037 C 
ATOM    135  H   UNL     1     145.470 159.934 188.761  0.00  0.00    +0.052 HD
ATOM    136  H   UNL     1     146.251 161.506 189.011  0.00  0.00    +0.052 HD
ATOM    137  H   UNL     1     145.409 160.751 190.365  0.00  0.00    +0.052 HD
ENDBRANCH 133 134
ENDBRANCH 130 133
ENDBRANCH 128 130
BRANCH 128 138
ATOM    138  O   UNL     1     142.107 163.035 188.146  0.00  0.00    -0.366 OA
BRANCH 138 139
ATOM    139  C   UNL     1     140.752 163.215 187.760  0.00  0.00    +0.038 C 
ATOM    140  H   UNL     1     140.370 164.097 188.275  0.00  0.00    +0.052 HD
ATOM    141  H   UNL     1     140.676 163.383 186.683  0.00  0.00    +0.052 HD
ATOM    142  H   UNL     1     140.138 162.357 188.048  0.00  0.00    +0.052 HD
ENDBRANCH 138 139
ENDBRANCH 128 138
ENDBRANCH 126 128
ENDBRANCH 125 126
ENDBRANCH  90 125
ENDBRANCH  87  90
ENDBRANCH  84  87
ENDBRANCH  78  84
ENDBRANCH  76  78
BRANCH  76 143
ATOM    143  O   UNL     1     150.322 167.100 186.906  0.00  0.00    -0.379 OA
BRANCH 143 144
ATOM    144  C   UNL     1     151.160 166.098 186.343  0.00  0.00    +0.037 C 
ATOM    145  H   UNL     1     152.061 166.584 185.959  0.00  0.00    +0.052 HD
ATOM    146  H   UNL     1     150.657 165.584 185.522  0.00  0.00    +0.052 HD
ATOM    147  H   UNL     1     151.453 165.378 187.114  0.00  0.00    +0.052 HD
ENDBRANCH 143 144
ENDBRANCH  76 143
ENDBRANCH   1  76
TORSDOF 35
ENDMDL
MODEL 3
REMARK VINA RESULT:      -5.2      1.729      4.580
REMARK  Name = Mycalolide B_conf2
REMARK  35 active torsions:
REMARK  status: ('A' for Active; 'I' for Inactive)
REMARK    1  A    between atoms: C_1  and  C_2
REMARK    2  A    between atoms: C_3  and  O_72
REMARK    3  A    between atoms: C_22  and  O_70
REMARK    4  A    between atoms: C_23  and  C_69
REMARK    5  A    between atoms: C_29  and  O_68
REMARK    6  A    between atoms: C_34  and  C_35
REMARK    7  A    between atoms: C_35  and  C_36
REMARK    8  A    between atoms: C_36  and  C_37
REMARK    9  A    between atoms: C_36  and  O_66
REMARK   10  A    between atoms: C_37  and  C_38
REMARK   11  A    between atoms: C_37  and  C_39
REMARK   12  A    between atoms: C_39  and  C_40
REMARK   13  A    between atoms: C_40  and  C_41
REMARK   14  A    between atoms: C_41  and  C_42
REMARK   15  A    between atoms: C_41  and  O_57
REMARK   16  A    between atoms: C_42  and  C_43
REMARK   17  A    between atoms: C_42  and  C_44
REMARK   18  A    between atoms: C_44  and  C_45
REMARK   19  A    between atoms: C_44  and  O_53
REMARK   20  A    between atoms: C_45  and  C_46
REMARK   21  A    between atoms: C_45  and  C_47
REMARK   22  A    between atoms: C_48  and  N_49
REMARK   23  A    between atoms: N_49  and  C_50
REMARK   24  A    between atoms: O_53  and  C_54
REMARK   25  A    between atoms: C_54  and  C_56
REMARK   26  A    between atoms: O_57  and  C_58
REMARK   27  A    between atoms: C_58  and  C_60
REMARK   28  A    between atoms: C_60  and  C_61
REMARK   29  A    between atoms: C_60  and  O_64
REMARK   30  A    between atoms: C_61  and  O_62
REMARK   31  A    between atoms: O_62  and  C_63
REMARK   32  A    between atoms: O_64  and  C_65
REMARK   33  A    between atoms: O_66  and  C_67
REMARK   34  A    between atoms: O_70  and  C_71
REMARK   35  A    between atoms: O_72  and  C_73
REMARK                            x       y       z     vdW  Elec       q    Type
REMARK                         _______ _______ _______ _____ _____    ______ ____
ROOT
ATOM      1  C   UNL     1     144.828 169.090 189.113  0.00  0.00    +0.011 C 
ATOM      2  H   UNL     1     145.844 168.711 188.966  0.00  0.00    +0.033 HD
ATOM      3  H   UNL     1     144.909 169.833 189.906  0.00  0.00    +0.033 HD
ENDROOT
BRANCH   1  36
ATOM      4  C   UNL     1     143.259 170.816 187.878  0.00  0.00    +0.020 C 
ATOM      5  C   UNL     1     143.429 172.020 188.854  0.00  0.00    +0.068 C 
ATOM      6  C   UNL     1     144.734 172.854 188.752  0.00  0.00    -0.008 C 
ATOM      7  C   UNL     1     145.942 172.284 189.441  0.00  0.00    -0.077 C 
ATOM      8  C   UNL     1     146.293 172.575 190.706  0.00  0.00    -0.003 C 
ATOM      9  C   UNL     1     147.383 171.910 191.330  0.00  0.00    +0.220 A 
ATOM     10  N   UNL     1     148.181 171.004 190.780  0.00  0.00    -0.205 NA
ATOM     11  C   UNL     1     149.020 170.603 191.790  0.00  0.00    +0.164 A 
ATOM     12  C   UNL     1     148.734 171.293 192.932  0.00  0.00    +0.125 A 
ATOM     13  O   UNL     1     147.713 172.148 192.655  0.00  0.00    -0.443 OA
ATOM     14  C   UNL     1     150.123 169.510 191.665  0.00  0.00    +0.250 A 
ATOM     15  N   UNL     1     150.383 168.854 190.547  0.00  0.00    -0.203 NA
ATOM     16  C   UNL     1     151.395 167.993 190.890  0.00  0.00    +0.164 A 
ATOM     17  C   UNL     1     151.715 168.152 192.213  0.00  0.00    +0.125 A 
ATOM     18  O   UNL     1     150.913 169.124 192.724  0.00  0.00    -0.442 OA
ATOM     19  C   UNL     1     152.089 166.981 189.930  0.00  0.00    +0.249 A 
ATOM     20  N   UNL     1     151.777 166.854 188.651  0.00  0.00    -0.210 NA
ATOM     21  C   UNL     1     152.629 165.880 188.182  0.00  0.00    +0.109 A 
ATOM     22  C   UNL     1     153.430 165.444 189.210  0.00  0.00    +0.118 A 
ATOM     23  O   UNL     1     153.095 166.132 190.333  0.00  0.00    -0.442 OA
ATOM     24  C   UNL     1     152.592 165.451 186.751  0.00  0.00    +0.113 C 
ATOM     25  C   UNL     1     151.565 164.333 186.453  0.00  0.00    +0.051 C 
ATOM     26  C   UNL     1     150.624 164.835 185.361  0.00  0.00    +0.161 C 
ATOM     27  O   UNL     1     150.730 164.428 184.203  0.00  0.00    -0.292 OA
ATOM     28  C   UNL     1     149.603 165.867 185.708  0.00  0.00    -0.023 C 
ATOM     29  C   UNL     1     149.013 166.587 184.737  0.00  0.00    -0.078 C 
ATOM     30  C   UNL     1     147.955 167.633 184.956  0.00  0.00    -0.008 C 
ATOM     31  C   UNL     1     148.329 168.753 185.950  0.00  0.00    +0.069 C 
ATOM     32  C   UNL     1     147.446 169.994 185.803  0.00  0.00    +0.071 C 
ATOM     33  C   UNL     1     145.988 169.676 186.031  0.00  0.00    +0.310 C 
ATOM     34  O   UNL     1     145.310 168.967 185.301  0.00  0.00    -0.251 OA
ATOM     35  O   UNL     1     145.554 170.276 187.173  0.00  0.00    -0.461 OA
ATOM     36  C   UNL     1     144.364 169.733 187.795  0.00  0.00    +0.110 C 
ATOM     37  H   UNL     1     142.356 170.279 188.189  0.00  0.00    +0.036 HD
ATOM     38  H   UNL     1     142.626 172.734 188.619  0.00  0.00    +0.060 HD
ATOM     39  H   UNL     1     144.530 173.833 189.205  0.00  0.00    +0.033 HD
ATOM     40  H   UNL     1     144.980 173.064 187.704  0.00  0.00    +0.033 HD
ATOM     41  H   UNL     1     146.540 171.565 188.886  0.00  0.00    +0.057 HD
ATOM     42  H   UNL     1     145.709 173.264 191.306  0.00  0.00    +0.067 HD
ATOM     43  H   UNL     1     149.137 171.325 193.936  0.00  0.00    +0.105 HD
ATOM     44  H   UNL     1     152.425 167.698 192.887  0.00  0.00    +0.105 HD
ATOM     45  H   UNL     1     154.223 164.716 189.301  0.00  0.00    +0.105 HD
ATOM     46  H   UNL     1     152.340 166.343 186.156  0.00  0.00    +0.067 HD
ATOM     47  H   UNL     1     152.089 163.479 186.001  0.00  0.00    +0.041 HD
ATOM     48  H   UNL     1     149.362 166.028 186.755  0.00  0.00    +0.065 HD
ATOM     49  H   UNL     1     149.295 166.402 183.695  0.00  0.00    +0.057 HD
ATOM     50  H   UNL     1     147.745 168.083 183.979  0.00  0.00    +0.033 HD
ATOM     51  H   UNL     1     147.048 167.111 185.283  0.00  0.00    +0.033 HD
ATOM     52  H   UNL     1     149.371 169.051 185.775  0.00  0.00    +0.060 HD
ATOM     53  H   UNL     1     147.540 170.435 184.806  0.00  0.00    +0.040 HD
ATOM     54  H   UNL     1     147.762 170.760 186.522  0.00  0.00    +0.040 HD
ATOM     55  H   UNL     1     143.960 168.933 187.158  0.00  0.00    +0.074 HD
BRANCH   4  56
ATOM     56  C   UNL     1     142.965 171.347 186.463  0.00  0.00    -0.057 C 
ATOM     57  H   UNL     1     142.884 170.522 185.747  0.00  0.00    +0.023 HD
ATOM     58  H   UNL     1     143.777 171.994 186.117  0.00  0.00    +0.023 HD
ATOM     59  H   UNL     1     142.036 171.920 186.420  0.00  0.00    +0.023 HD
ENDBRANCH   4  56
BRANCH  25  60
ATOM     60  C   UNL     1     150.779 163.758 187.631  0.00  0.00    -0.053 C 
ATOM     61  H   UNL     1     149.747 163.541 187.340  0.00  0.00    +0.024 HD
ATOM     62  H   UNL     1     151.218 162.840 188.031  0.00  0.00    +0.024 HD
ATOM     63  H   UNL     1     150.741 164.472 188.460  0.00  0.00    +0.024 HD
ENDBRANCH  25  60
BRANCH  31  64
ATOM     64  O   UNL     1     148.248 168.256 187.289  0.00  0.00    -0.391 OA
ATOM     65  H   UNL     1     147.441 167.708 187.362  0.00  0.00    +0.210 HD
ENDBRANCH  31  64
BRANCH  24  66
ATOM     66  O   UNL     1     153.888 164.988 186.304  0.00  0.00    -0.373 OA
BRANCH  66  67
ATOM     67  C   UNL     1     153.894 163.594 186.004  0.00  0.00    +0.037 C 
ATOM     68  H   UNL     1     152.948 163.127 186.300  0.00  0.00    +0.052 HD
ATOM     69  H   UNL     1     154.025 163.469 184.922  0.00  0.00    +0.052 HD
ATOM     70  H   UNL     1     154.733 163.101 186.513  0.00  0.00    +0.052 HD
ENDBRANCH  66  67
ENDBRANCH  24  66
BRANCH   5  71
ATOM     71  O   UNL     1     143.251 171.649 190.231  0.00  0.00    -0.379 OA
BRANCH  71  72
ATOM     72  C   UNL     1     142.500 172.575 191.000  0.00  0.00    +0.037 C 
ATOM     73  H   UNL     1     142.180 172.115 191.939  0.00  0.00    +0.052 HD
ATOM     74  H   UNL     1     141.607 172.845 190.427  0.00  0.00    +0.052 HD
ATOM     75  H   UNL     1     143.061 173.490 191.202  0.00  0.00    +0.052 HD
ENDBRANCH  71  72
ENDBRANCH   5  71
ENDBRANCH   1  36
BRANCH   1  76
ATOM     76  C   UNL     1     143.912 167.948 189.594  0.00  0.00    +0.064 C 
ATOM     77  H   UNL     1     144.385 166.981 189.379  0.00  0.00    +0.060 HD
BRANCH  76  78
ATOM     78  C   UNL     1     143.699 168.062 191.138  0.00  0.00    -0.017 C 
ATOM     79  H   UNL     1     144.379 168.841 191.517  0.00  0.00    +0.032 HD
BRANCH  78  80
ATOM     80  C   UNL     1     142.287 168.511 191.518  0.00  0.00    -0.060 C 
ATOM     81  H   UNL     1     142.115 169.552 191.229  0.00  0.00    +0.023 HD
ATOM     82  H   UNL     1     142.110 168.416 192.593  0.00  0.00    +0.023 HD
ATOM     83  H   UNL     1     141.526 167.923 190.992  0.00  0.00    +0.023 HD
ENDBRANCH  78  80
BRANCH  78  84
ATOM     84  C   UNL     1     144.084 166.707 191.795  0.00  0.00    -0.045 C 
ATOM     85  H   UNL     1     144.524 166.892 192.778  0.00  0.00    +0.027 HD
ATOM     86  H   UNL     1     143.160 166.153 192.001  0.00  0.00    +0.027 HD
BRANCH  84  87
ATOM     87  C   UNL     1     144.965 165.776 190.953  0.00  0.00    -0.015 C 
ATOM     88  H   UNL     1     144.722 164.756 191.280  0.00  0.00    +0.030 HD
ATOM     89  H   UNL     1     144.680 165.850 189.898  0.00  0.00    +0.030 HD
BRANCH  87  90
ATOM     90  C   UNL     1     146.487 165.978 191.121  0.00  0.00    +0.109 C 
ATOM     91  H   UNL     1     146.720 166.998 190.811  0.00  0.00    +0.074 HD
BRANCH  90  92
ATOM     92  C   UNL     1     147.293 164.997 190.214  0.00  0.00    +0.031 C 
ATOM     93  H   UNL     1     147.612 164.162 190.852  0.00  0.00    +0.037 HD
BRANCH  92  94
ATOM     94  C   UNL     1     148.580 165.640 189.664  0.00  0.00    -0.056 C 
ATOM     95  H   UNL     1     149.184 166.078 190.464  0.00  0.00    +0.023 HD
ATOM     96  H   UNL     1     148.365 166.427 188.935  0.00  0.00    +0.023 HD
ATOM     97  H   UNL     1     149.205 164.887 189.173  0.00  0.00    +0.023 HD
ENDBRANCH  92  94
BRANCH  92  98
ATOM     98  C   UNL     1     146.469 164.378 189.038  0.00  0.00    +0.115 C 
ATOM     99  H   UNL     1     145.410 164.537 189.282  0.00  0.00    +0.074 HD
BRANCH  98 100
ATOM    100  C   UNL     1     146.731 165.009 187.643  0.00  0.00    +0.013 C 
ATOM    101  H   UNL     1     147.616 165.651 187.707  0.00  0.00    +0.038 HD
BRANCH 100 102
ATOM    102  C   UNL     1     145.560 165.860 187.141  0.00  0.00    -0.056 C 
ATOM    103  H   UNL     1     144.804 165.257 186.633  0.00  0.00    +0.024 HD
ATOM    104  H   UNL     1     145.064 166.365 187.977  0.00  0.00    +0.024 HD
ATOM    105  H   UNL     1     145.896 166.628 186.435  0.00  0.00    +0.024 HD
ENDBRANCH 100 102
BRANCH 100 106
ATOM    106  C   UNL     1     147.020 163.934 186.607  0.00  0.00    -0.064 C 
ATOM    107  C   UNL     1     146.379 163.862 185.430  0.00  0.00    -0.005 C 
ATOM    108  H   UNL     1     147.803 163.228 186.863  0.00  0.00    +0.059 HD
ATOM    109  H   UNL     1     145.626 164.619 185.205  0.00  0.00    +0.078 HD
BRANCH 107 110
ATOM    110  N   UNL     1     146.570 162.926 184.426  0.00  0.00    -0.284 N 
ATOM    111  C   UNL     1     145.967 161.668 184.370  0.00  0.00    +0.206 C 
ATOM    112  O   UNL     1     145.175 161.156 185.150  0.00  0.00    -0.279 OA
ATOM    113  H   UNL     1     146.274 161.111 183.470  0.00  0.00    +0.126 HD
BRANCH 110 114
ATOM    114  C   UNL     1     147.442 163.319 183.324  0.00  0.00    +0.007 C 
ATOM    115  H   UNL     1     148.247 162.597 183.163  0.00  0.00    +0.043 HD
ATOM    116  H   UNL     1     146.846 163.384 182.408  0.00  0.00    +0.043 HD
ATOM    117  H   UNL     1     147.884 164.295 183.539  0.00  0.00    +0.043 HD
ENDBRANCH 110 114
ENDBRANCH 107 110
ENDBRANCH 100 106
ENDBRANCH  98 100
BRANCH  98 118
ATOM    118  O   UNL     1     146.764 162.965 188.944  0.00  0.00    -0.461 OA
BRANCH 118 119
ATOM    119  C   UNL     1     145.753 162.111 189.261  0.00  0.00    +0.304 C 
ATOM    120  O   UNL     1     145.877 161.008 189.776  0.00  0.00    -0.251 OA
BRANCH 119 121
ATOM    121  C   UNL     1     144.435 162.691 188.853  0.00  0.00    +0.033 C 
ATOM    122  H   UNL     1     144.431 163.769 189.031  0.00  0.00    +0.034 HD
ATOM    123  H   UNL     1     144.275 162.511 187.786  0.00  0.00    +0.034 HD
ATOM    124  H   UNL     1     143.625 162.204 189.403  0.00  0.00    +0.034 HD
ENDBRANCH 119 121
ENDBRANCH 118 119
ENDBRANCH  98 118
ENDBRANCH  92  98
ENDBRANCH  90  92
BRANCH  90 125
ATOM    125  O   UNL     1     146.844 165.764 192.503  0.00  0.00    -0.459 OA
BRANCH 125 126
ATOM    126  C   UNL     1     147.676 166.684 193.082  0.00  0.00    +0.339 C 
ATOM    127  O   UNL     1     147.423 167.875 193.216  0.00  0.00    -0.248 OA
BRANCH 126 128
ATOM    128  C   UNL     1     148.934 165.989 193.620  0.00  0.00    +0.178 C 
ATOM    129  H   UNL     1     149.806 166.543 193.245  0.00  0.00    +0.074 HD
BRANCH 128 130
ATOM    130  C   UNL     1     148.927 166.097 195.153  0.00  0.00    +0.084 C 
ATOM    131  H   UNL     1     148.458 165.201 195.570  0.00  0.00    +0.059 HD
ATOM    132  H   UNL     1     148.325 166.954 195.477  0.00  0.00    +0.059 HD
BRANCH 130 133
ATOM    133  O   UNL     1     150.215 166.193 195.772  0.00  0.00    -0.380 OA
BRANCH 133 134
ATOM    134  C   UNL     1     150.699 164.960 196.291  0.00  0.00    +0.037 C 
ATOM    135  H   UNL     1     150.812 164.214 195.501  0.00  0.00    +0.052 HD
ATOM    136  H   UNL     1     151.682 165.142 196.736  0.00  0.00    +0.052 HD
ATOM    137  H   UNL     1     150.043 164.591 197.084  0.00  0.00    +0.052 HD
ENDBRANCH 133 134
ENDBRANCH 130 133
ENDBRANCH 128 130
BRANCH 128 138
ATOM    138  O   UNL     1     149.124 164.618 193.261  0.00  0.00    -0.366 OA
BRANCH 138 139
ATOM    139  C   UNL     1     150.341 164.387 192.565  0.00  0.00    +0.038 C 
ATOM    140  H   UNL     1     150.211 163.499 191.944  0.00  0.00    +0.052 HD
ATOM    141  H   UNL     1     150.580 165.232 191.915  0.00  0.00    +0.052 HD
ATOM    142  H   UNL     1     151.167 164.203 193.257  0.00  0.00    +0.052 HD
ENDBRANCH 138 139
ENDBRANCH 128 138
ENDBRANCH 126 128
ENDBRANCH 125 126
ENDBRANCH  90 125
ENDBRANCH  87  90
ENDBRANCH  84  87
ENDBRANCH  78  84
ENDBRANCH  76  78
BRANCH  76 143
ATOM    143  O   UNL     1     142.676 168.061 188.875  0.00  0.00    -0.379 OA
BRANCH 143 144
ATOM    144  C   UNL     1     142.180 166.801 188.438  0.00  0.00    +0.037 C 
ATOM    145  H   UNL     1     141.106 166.901 188.261  0.00  0.00    +0.052 HD
ATOM    146  H   UNL     1     142.345 166.032 189.195  0.00  0.00    +0.052 HD
ATOM    147  H   UNL     1     142.663 166.513 187.498  0.00  0.00    +0.052 HD
ENDBRANCH 143 144
ENDBRANCH  76 143
ENDBRANCH   1  76
TORSDOF 35
ENDMDL
MODEL 4
REMARK VINA RESULT:      -5.2      3.287      8.906
REMARK  Name = Mycalolide B_conf2
REMARK  35 active torsions:
REMARK  status: ('A' for Active; 'I' for Inactive)
REMARK    1  A    between atoms: C_1  and  C_2
REMARK    2  A    between atoms: C_3  and  O_72
REMARK    3  A    between atoms: C_22  and  O_70
REMARK    4  A    between atoms: C_23  and  C_69
REMARK    5  A    between atoms: C_29  and  O_68
REMARK    6  A    between atoms: C_34  and  C_35
REMARK    7  A    between atoms: C_35  and  C_36
REMARK    8  A    between atoms: C_36  and  C_37
REMARK    9  A    between atoms: C_36  and  O_66
REMARK   10  A    between atoms: C_37  and  C_38
REMARK   11  A    between atoms: C_37  and  C_39
REMARK   12  A    between atoms: C_39  and  C_40
REMARK   13  A    between atoms: C_40  and  C_41
REMARK   14  A    between atoms: C_41  and  C_42
REMARK   15  A    between atoms: C_41  and  O_57
REMARK   16  A    between atoms: C_42  and  C_43
REMARK   17  A    between atoms: C_42  and  C_44
REMARK   18  A    between atoms: C_44  and  C_45
REMARK   19  A    between atoms: C_44  and  O_53
REMARK   20  A    between atoms: C_45  and  C_46
REMARK   21  A    between atoms: C_45  and  C_47
REMARK   22  A    between atoms: C_48  and  N_49
REMARK   23  A    between atoms: N_49  and  C_50
REMARK   24  A    between atoms: O_53  and  C_54
REMARK   25  A    between atoms: C_54  and  C_56
REMARK   26  A    between atoms: O_57  and  C_58
REMARK   27  A    between atoms: C_58  and  C_60
REMARK   28  A    between atoms: C_60  and  C_61
REMARK   29  A    between atoms: C_60  and  O_64
REMARK   30  A    between atoms: C_61  and  O_62
REMARK   31  A    between atoms: O_62  and  C_63
REMARK   32  A    between atoms: O_64  and  C_65
REMARK   33  A    between atoms: O_66  and  C_67
REMARK   34  A    between atoms: O_70  and  C_71
REMARK   35  A    between atoms: O_72  and  C_73
REMARK                            x       y       z     vdW  Elec       q    Type
REMARK                         _______ _______ _______ _____ _____    ______ ____
ROOT
ATOM      1  C   UNL     1     149.750 165.326 189.230  0.00  0.00    +0.011 C 
ATOM      2  H   UNL     1     149.811 164.257 189.004  0.00  0.00    +0.033 HD
ATOM      3  H   UNL     1     150.245 165.445 190.194  0.00  0.00    +0.033 HD
ENDROOT
BRANCH   1  36
ATOM      4  C   UNL     1     151.868 166.713 188.485  0.00  0.00    +0.020 C 
ATOM      5  C   UNL     1     152.967 165.827 189.147  0.00  0.00    +0.068 C 
ATOM      6  C   UNL     1     153.355 164.504 188.433  0.00  0.00    -0.008 C 
ATOM      7  C   UNL     1     152.444 163.331 188.667  0.00  0.00    -0.077 C 
ATOM      8  C   UNL     1     152.622 162.424 189.643  0.00  0.00    -0.003 C 
ATOM      9  C   UNL     1     151.656 161.408 189.876  0.00  0.00    +0.220 A 
ATOM     10  N   UNL     1     150.543 161.196 189.186  0.00  0.00    -0.205 NA
ATOM     11  C   UNL     1     149.909 160.164 189.832  0.00  0.00    +0.164 A 
ATOM     12  C   UNL     1     150.662 159.749 190.892  0.00  0.00    +0.125 A 
ATOM     13  O   UNL     1     151.790 160.509 190.923  0.00  0.00    -0.443 OA
ATOM     14  C   UNL     1     148.528 159.564 189.434  0.00  0.00    +0.250 A 
ATOM     15  N   UNL     1     147.816 159.983 188.403  0.00  0.00    -0.203 NA
ATOM     16  C   UNL     1     146.686 159.204 188.436  0.00  0.00    +0.164 A 
ATOM     17  C   UNL     1     146.747 158.337 189.495  0.00  0.00    +0.125 A 
ATOM     18  O   UNL     1     147.924 158.550 190.143  0.00  0.00    -0.442 OA
ATOM     19  C   UNL     1     145.501 159.281 187.426  0.00  0.00    +0.249 A 
ATOM     20  N   UNL     1     145.468 160.115 186.400  0.00  0.00    -0.210 NA
ATOM     21  C   UNL     1     144.275 159.840 185.771  0.00  0.00    +0.109 A 
ATOM     22  C   UNL     1     143.619 158.844 186.454  0.00  0.00    +0.118 A 
ATOM     23  O   UNL     1     144.386 158.479 187.515  0.00  0.00    -0.442 OA
ATOM     24  C   UNL     1     143.868 160.582 184.539  0.00  0.00    +0.113 C 
ATOM     25  C   UNL     1     143.120 161.909 184.818  0.00  0.00    +0.051 C 
ATOM     26  C   UNL     1     143.882 163.034 184.123  0.00  0.00    +0.161 C 
ATOM     27  O   UNL     1     143.453 163.534 183.080  0.00  0.00    -0.292 OA
ATOM     28  C   UNL     1     145.182 163.488 184.698  0.00  0.00    -0.023 C 
ATOM     29  C   UNL     1     146.041 164.199 183.947  0.00  0.00    -0.078 C 
ATOM     30  C   UNL     1     147.366 164.734 184.419  0.00  0.00    -0.008 C 
ATOM     31  C   UNL     1     148.322 163.687 185.029  0.00  0.00    +0.069 C 
ATOM     32  C   UNL     1     149.774 164.167 185.073  0.00  0.00    +0.071 C 
ATOM     33  C   UNL     1     149.925 165.426 185.892  0.00  0.00    +0.310 C 
ATOM     34  O   UNL     1     149.455 166.513 185.586  0.00  0.00    -0.251 OA
ATOM     35  O   UNL     1     150.639 165.164 187.021  0.00  0.00    -0.461 OA
ATOM     36  C   UNL     1     150.495 166.091 188.124  0.00  0.00    +0.110 C 
ATOM     37  H   UNL     1     151.639 167.518 189.193  0.00  0.00    +0.036 HD
ATOM     38  H   UNL     1     153.893 166.420 189.150  0.00  0.00    +0.060 HD
ATOM     39  H   UNL     1     154.353 164.221 188.795  0.00  0.00    +0.033 HD
ATOM     40  H   UNL     1     153.471 164.664 187.355  0.00  0.00    +0.033 HD
ATOM     41  H   UNL     1     151.571 163.243 188.024  0.00  0.00    +0.057 HD
ATOM     42  H   UNL     1     153.462 162.491 190.325  0.00  0.00    +0.067 HD
ATOM     43  H   UNL     1     150.576 158.976 191.645  0.00  0.00    +0.105 HD
ATOM     44  H   UNL     1     146.100 157.570 189.893  0.00  0.00    +0.105 HD
ATOM     45  H   UNL     1     142.683 158.322 186.324  0.00  0.00    +0.105 HD
ATOM     46  H   UNL     1     144.789 160.797 183.975  0.00  0.00    +0.067 HD
ATOM     47  H   UNL     1     142.143 161.879 184.316  0.00  0.00    +0.041 HD
ATOM     48  H   UNL     1     145.417 163.220 185.725  0.00  0.00    +0.065 HD
ATOM     49  H   UNL     1     145.771 164.436 182.913  0.00  0.00    +0.057 HD
ATOM     50  H   UNL     1     147.851 165.193 183.551  0.00  0.00    +0.033 HD
ATOM     51  H   UNL     1     147.153 165.532 185.140  0.00  0.00    +0.033 HD
ATOM     52  H   UNL     1     148.282 162.772 184.423  0.00  0.00    +0.060 HD
ATOM     53  H   UNL     1     150.157 164.373 184.068  0.00  0.00    +0.040 HD
ATOM     54  H   UNL     1     150.410 163.382 185.502  0.00  0.00    +0.040 HD
ATOM     55  H   UNL     1     149.855 166.928 187.809  0.00  0.00    +0.074 HD
BRANCH   4  56
ATOM     56  C   UNL     1     152.454 167.403 187.239  0.00  0.00    -0.057 C 
ATOM     57  H   UNL     1     152.061 168.420 187.138  0.00  0.00    +0.023 HD
ATOM     58  H   UNL     1     152.177 166.859 186.331  0.00  0.00    +0.023 HD
ATOM     59  H   UNL     1     153.544 167.467 187.276  0.00  0.00    +0.023 HD
ENDBRANCH   4  56
BRANCH  25  60
ATOM     60  C   UNL     1     142.826 162.265 186.275  0.00  0.00    -0.053 C 
ATOM     61  H   UNL     1     143.528 161.761 186.946  0.00  0.00    +0.024 HD
ATOM     62  H   UNL     1     142.882 163.339 186.472  0.00  0.00    +0.024 HD
ATOM     63  H   UNL     1     141.818 161.947 186.558  0.00  0.00    +0.024 HD
ENDBRANCH  25  60
BRANCH  31  64
ATOM     64  O   UNL     1     147.884 163.344 186.347  0.00  0.00    -0.391 OA
ATOM     65  H   UNL     1     147.759 162.375 186.384  0.00  0.00    +0.210 HD
ENDBRANCH  31  64
BRANCH  24  66
ATOM     66  O   UNL     1     143.023 159.772 183.689  0.00  0.00    -0.373 OA
BRANCH  66  67
ATOM     67  C   UNL     1     143.498 159.715 182.345  0.00  0.00    +0.037 C 
ATOM     68  H   UNL     1     143.814 160.706 182.001  0.00  0.00    +0.052 HD
ATOM     69  H   UNL     1     144.359 159.038 182.306  0.00  0.00    +0.052 HD
ATOM     70  H   UNL     1     142.715 159.318 181.684  0.00  0.00    +0.052 HD
ENDBRANCH  66  67
ENDBRANCH  24  66
BRANCH   5  71
ATOM     71  O   UNL     1     152.680 165.517 190.521  0.00  0.00    -0.379 OA
BRANCH  71  72
ATOM     72  C   UNL     1     152.396 166.645 191.334  0.00  0.00    +0.037 C 
ATOM     73  H   UNL     1     152.246 167.531 190.712  0.00  0.00    +0.052 HD
ATOM     74  H   UNL     1     153.260 166.821 191.982  0.00  0.00    +0.052 HD
ATOM     75  H   UNL     1     151.523 166.481 191.971  0.00  0.00    +0.052 HD
ENDBRANCH  71  72
ENDBRANCH   5  71
ENDBRANCH   1  36
BRANCH   1  76
ATOM     76  C   UNL     1     148.274 165.741 189.377  0.00  0.00    +0.064 C 
ATOM     77  H   UNL     1     148.048 165.934 190.434  0.00  0.00    +0.060 HD
BRANCH  76  78
ATOM     78  C   UNL     1     148.016 167.054 188.568  0.00  0.00    -0.017 C 
ATOM     79  H   UNL     1     148.876 167.213 187.898  0.00  0.00    +0.032 HD
BRANCH  78  80
ATOM     80  C   UNL     1     146.784 166.971 187.664  0.00  0.00    -0.060 C 
ATOM     81  H   UNL     1     146.924 166.225 186.877  0.00  0.00    +0.023 HD
ATOM     82  H   UNL     1     146.564 167.933 187.195  0.00  0.00    +0.023 HD
ATOM     83  H   UNL     1     145.898 166.652 188.226  0.00  0.00    +0.023 HD
ENDBRANCH  78  80
BRANCH  78  84
ATOM     84  C   UNL     1     147.938 168.245 189.563  0.00  0.00    -0.045 C 
ATOM     85  H   UNL     1     148.835 168.861 189.464  0.00  0.00    +0.027 HD
ATOM     86  H   UNL     1     147.113 168.897 189.251  0.00  0.00    +0.027 HD
BRANCH  84  87
ATOM     87  C   UNL     1     147.667 167.881 191.029  0.00  0.00    -0.015 C 
ATOM     88  H   UNL     1     146.575 167.891 191.144  0.00  0.00    +0.030 HD
ATOM     89  H   UNL     1     148.001 166.856 191.224  0.00  0.00    +0.030 HD
BRANCH  87  90
ATOM     90  C   UNL     1     148.262 168.853 192.071  0.00  0.00    +0.109 C 
ATOM     91  H   UNL     1     147.429 169.332 192.588  0.00  0.00    +0.074 HD
BRANCH  90  92
ATOM     92  C   UNL     1     149.116 169.965 191.388  0.00  0.00    +0.031 C 
ATOM     93  H   UNL     1     149.131 169.742 190.312  0.00  0.00    +0.037 HD
BRANCH  92  94
ATOM     94  C   UNL     1     150.582 169.943 191.857  0.00  0.00    -0.056 C 
ATOM     95  H   UNL     1     150.660 169.702 192.922  0.00  0.00    +0.023 HD
ATOM     96  H   UNL     1     151.080 170.902 191.692  0.00  0.00    +0.023 HD
ATOM     97  H   UNL     1     151.146 169.174 191.320  0.00  0.00    +0.023 HD
ENDBRANCH  92  94
BRANCH  92  98
ATOM     98  C   UNL     1     148.537 171.411 191.540  0.00  0.00    +0.115 C 
ATOM     99  H   UNL     1     149.363 172.101 191.322  0.00  0.00    +0.074 HD
BRANCH  98 100
ATOM    100  C   UNL     1     147.366 171.758 190.580  0.00  0.00    +0.013 C 
ATOM    101  H   UNL     1     147.530 171.249 189.624  0.00  0.00    +0.038 HD
BRANCH 100 102
ATOM    102  C   UNL     1     147.242 173.261 190.306  0.00  0.00    -0.056 C 
ATOM    103  H   UNL     1     146.548 173.471 189.490  0.00  0.00    +0.024 HD
ATOM    104  H   UNL     1     146.871 173.785 191.192  0.00  0.00    +0.024 HD
ATOM    105  H   UNL     1     148.210 173.700 190.035  0.00  0.00    +0.024 HD
ENDBRANCH 100 102
BRANCH 100 106
ATOM    106  C   UNL     1     146.041 171.263 191.139  0.00  0.00    -0.064 C 
ATOM    107  C   UNL     1     145.106 170.667 190.383  0.00  0.00    -0.005 C 
ATOM    108  H   UNL     1     145.897 171.399 192.206  0.00  0.00    +0.059 HD
ATOM    109  H   UNL     1     145.315 170.521 189.323  0.00  0.00    +0.078 HD
BRANCH 107 110
ATOM    110  N   UNL     1     143.874 170.185 190.797  0.00  0.00    -0.284 N 
ATOM    111  C   UNL     1     142.790 170.972 191.190  0.00  0.00    +0.206 C 
ATOM    112  O   UNL     1     142.698 172.191 191.239  0.00  0.00    -0.279 OA
ATOM    113  H   UNL     1     141.921 170.354 191.469  0.00  0.00    +0.126 HD
BRANCH 110 114
ATOM    114  C   UNL     1     143.699 168.736 190.775  0.00  0.00    +0.007 C 
ATOM    115  H   UNL     1     142.691 168.453 190.462  0.00  0.00    +0.043 HD
ATOM    116  H   UNL     1     144.416 168.306 190.068  0.00  0.00    +0.043 HD
ATOM    117  H   UNL     1     143.885 168.331 191.772  0.00  0.00    +0.043 HD
ENDBRANCH 110 114
ENDBRANCH 107 110
ENDBRANCH 100 106
ENDBRANCH  98 100
BRANCH  98 118
ATOM    118  O   UNL     1     148.064 171.593 192.895  0.00  0.00    -0.461 OA
BRANCH 118 119
ATOM    119  C   UNL     1     148.572 172.656 193.577  0.00  0.00    +0.304 C 
ATOM    120  O   UNL     1     149.744 172.816 193.892  0.00  0.00    -0.251 OA
BRANCH 119 121
ATOM    121  C   UNL     1     147.479 173.612 193.937  0.00  0.00    +0.033 C 
ATOM    122  H   UNL     1     147.793 174.240 194.774  0.00  0.00    +0.034 HD
ATOM    123  H   UNL     1     147.262 174.254 193.078  0.00  0.00    +0.034 HD
ATOM    124  H   UNL     1     146.567 173.061 194.186  0.00  0.00    +0.034 HD
ENDBRANCH 119 121
ENDBRANCH 118 119
ENDBRANCH  98 118
ENDBRANCH  92  98
ENDBRANCH  90  92
BRANCH  90 125
ATOM    125  O   UNL     1     149.084 168.111 192.997  0.00  0.00    -0.459 OA
BRANCH 125 126
ATOM    126  C   UNL     1     148.439 167.307 193.898  0.00  0.00    +0.339 C 
ATOM    127  O   UNL     1     147.288 167.467 194.284  0.00  0.00    -0.248 OA
BRANCH 126 128
ATOM    128  C   UNL     1     149.339 166.126 194.286  0.00  0.00    +0.178 C 
ATOM    129  H   UNL     1     150.343 166.329 193.889  0.00  0.00    +0.074 HD
BRANCH 128 130
ATOM    130  C   UNL     1     149.437 166.076 195.818  0.00  0.00    +0.084 C 
ATOM    131  H   UNL     1     148.820 165.250 196.187  0.00  0.00    +0.059 HD
ATOM    132  H   UNL     1     149.037 166.995 196.261  0.00  0.00    +0.059 HD
BRANCH 130 133
ATOM    133  O   UNL     1     150.749 165.855 196.348  0.00  0.00    -0.380 OA
BRANCH 133 134
ATOM    134  C   UNL     1     151.138 164.487 196.376  0.00  0.00    +0.037 C 
ATOM    135  H   UNL     1     150.474 163.873 195.761  0.00  0.00    +0.052 HD
ATOM    136  H   UNL     1     152.150 164.413 195.968  0.00  0.00    +0.052 HD
ATOM    137  H   UNL     1     151.170 164.116 197.404  0.00  0.00    +0.052 HD
ENDBRANCH 133 134
ENDBRANCH 130 133
ENDBRANCH 128 130
BRANCH 128 138
ATOM    138  O   UNL     1     148.956 164.833 193.811  0.00  0.00    -0.366 OA
BRANCH 138 139
ATOM    139  C   UNL     1     149.787 164.355 192.762  0.00  0.00    +0.038 C 
ATOM    140  H   UNL     1     150.796 164.235 193.160  0.00  0.00    +0.052 HD
ATOM    141  H   UNL     1     149.437 163.383 192.405  0.00  0.00    +0.052 HD
ATOM    142  H   UNL     1     149.828 165.065 191.931  0.00  0.00    +0.052 HD
ENDBRANCH 138 139
ENDBRANCH 128 138
ENDBRANCH 126 128
ENDBRANCH 125 126
ENDBRANCH  90 125
ENDBRANCH  87  90
ENDBRANCH  84  87
ENDBRANCH  78  84
ENDBRANCH  76  78
BRANCH  76 143
ATOM    143  O   UNL     1     147.474 164.652 188.895  0.00  0.00    -0.379 OA
BRANCH 143 144
ATOM    144  C   UNL     1     147.417 163.567 189.814  0.00  0.00    +0.037 C 
ATOM    145  H   UNL     1     147.814 162.678 189.317  0.00  0.00    +0.052 HD
ATOM    146  H   UNL     1     146.389 163.372 190.124  0.00  0.00    +0.052 HD
ATOM    147  H   UNL     1     148.038 163.784 190.689  0.00  0.00    +0.052 HD
ENDBRANCH 143 144
ENDBRANCH  76 143
ENDBRANCH   1  76
TORSDOF 35
ENDMDL
MODEL 5
REMARK VINA RESULT:      -5.2      1.766      4.130
REMARK  Name = Mycalolide B_conf2
REMARK  35 active torsions:
REMARK  status: ('A' for Active; 'I' for Inactive)
REMARK    1  A    between atoms: C_1  and  C_2
REMARK    2  A    between atoms: C_3  and  O_72
REMARK    3  A    between atoms: C_22  and  O_70
REMARK    4  A    between atoms: C_23  and  C_69
REMARK    5  A    between atoms: C_29  and  O_68
REMARK    6  A    between atoms: C_34  and  C_35
REMARK    7  A    between atoms: C_35  and  C_36
REMARK    8  A    between atoms: C_36  and  C_37
REMARK    9  A    between atoms: C_36  and  O_66
REMARK   10  A    between atoms: C_37  and  C_38
REMARK   11  A    between atoms: C_37  and  C_39
REMARK   12  A    between atoms: C_39  and  C_40
REMARK   13  A    between atoms: C_40  and  C_41
REMARK   14  A    between atoms: C_41  and  C_42
REMARK   15  A    between atoms: C_41  and  O_57
REMARK   16  A    between atoms: C_42  and  C_43
REMARK   17  A    between atoms: C_42  and  C_44
REMARK   18  A    between atoms: C_44  and  C_45
REMARK   19  A    between atoms: C_44  and  O_53
REMARK   20  A    between atoms: C_45  and  C_46
REMARK   21  A    between atoms: C_45  and  C_47
REMARK   22  A    between atoms: C_48  and  N_49
REMARK   23  A    between atoms: N_49  and  C_50
REMARK   24  A    between atoms: O_53  and  C_54
REMARK   25  A    between atoms: C_54  and  C_56
REMARK   26  A    between atoms: O_57  and  C_58
REMARK   27  A    between atoms: C_58  and  C_60
REMARK   28  A    between atoms: C_60  and  C_61
REMARK   29  A    between atoms: C_60  and  O_64
REMARK   30  A    between atoms: C_61  and  O_62
REMARK   31  A    between atoms: O_62  and  C_63
REMARK   32  A    between atoms: O_64  and  C_65
REMARK   33  A    between atoms: O_66  and  C_67
REMARK   34  A    between atoms: O_70  and  C_71
REMARK   35  A    between atoms: O_72  and  C_73
REMARK                            x       y       z     vdW  Elec       q    Type
REMARK                         _______ _______ _______ _____ _____    ______ ____
ROOT
ATOM      1  C   UNL     1     145.002 169.147 189.636  0.00  0.00    +0.011 C 
ATOM      2  H   UNL     1     146.037 168.846 189.449  0.00  0.00    +0.033 HD
ATOM      3  H   UNL     1     145.062 169.944 190.377  0.00  0.00    +0.033 HD
ENDROOT
BRANCH   1  36
ATOM      4  C   UNL     1     143.271 170.710 188.400  0.00  0.00    +0.020 C 
ATOM      5  C   UNL     1     143.468 171.996 189.259  0.00  0.00    +0.068 C 
ATOM      6  C   UNL     1     144.726 172.863 188.984  0.00  0.00    -0.008 C 
ATOM      7  C   UNL     1     146.007 172.394 189.616  0.00  0.00    -0.077 C 
ATOM      8  C   UNL     1     146.444 172.801 190.820  0.00  0.00    -0.003 C 
ATOM      9  C   UNL     1     147.606 172.227 191.404  0.00  0.00    +0.220 A 
ATOM     10  N   UNL     1     148.394 171.306 190.865  0.00  0.00    -0.205 NA
ATOM     11  C   UNL     1     149.326 171.019 191.831  0.00  0.00    +0.164 A 
ATOM     12  C   UNL     1     149.103 171.792 192.934  0.00  0.00    +0.125 A 
ATOM     13  O   UNL     1     148.030 172.586 192.675  0.00  0.00    -0.443 OA
ATOM     14  C   UNL     1     150.460 169.959 191.704  0.00  0.00    +0.250 A 
ATOM     15  N   UNL     1     150.657 169.222 190.624  0.00  0.00    -0.203 NA
ATOM     16  C   UNL     1     151.728 168.427 190.951  0.00  0.00    +0.164 A 
ATOM     17  C   UNL     1     152.145 168.706 192.227  0.00  0.00    +0.125 A 
ATOM     18  O   UNL     1     151.346 169.690 192.722  0.00  0.00    -0.442 OA
ATOM     19  C   UNL     1     152.385 167.363 190.021  0.00  0.00    +0.249 A 
ATOM     20  N   UNL     1     151.978 167.120 188.786  0.00  0.00    -0.210 NA
ATOM     21  C   UNL     1     152.830 166.141 188.329  0.00  0.00    +0.109 A 
ATOM     22  C   UNL     1     153.727 165.819 189.319  0.00  0.00    +0.118 A 
ATOM     23  O   UNL     1     153.453 166.586 190.407  0.00  0.00    -0.442 OA
ATOM     24  C   UNL     1     152.698 165.594 186.944  0.00  0.00    +0.113 C 
ATOM     25  C   UNL     1     151.697 164.419 186.822  0.00  0.00    +0.051 C 
ATOM     26  C   UNL     1     150.653 164.797 185.774  0.00  0.00    +0.161 C 
ATOM     27  O   UNL     1     150.684 164.300 184.647  0.00  0.00    -0.292 OA
ATOM     28  C   UNL     1     149.622 165.819 186.119  0.00  0.00    -0.023 C 
ATOM     29  C   UNL     1     148.928 166.435 185.146  0.00  0.00    -0.078 C 
ATOM     30  C   UNL     1     147.848 167.459 185.366  0.00  0.00    -0.008 C 
ATOM     31  C   UNL     1     148.254 168.669 186.234  0.00  0.00    +0.069 C 
ATOM     32  C   UNL     1     147.311 169.863 186.061  0.00  0.00    +0.071 C 
ATOM     33  C   UNL     1     145.891 169.515 186.433  0.00  0.00    +0.310 C 
ATOM     34  O   UNL     1     145.187 168.725 185.820  0.00  0.00    -0.251 OA
ATOM     35  O   UNL     1     145.523 170.193 187.555  0.00  0.00    -0.461 OA
ATOM     36  C   UNL     1     144.410 169.662 188.313  0.00  0.00    +0.110 C 
ATOM     37  H   UNL     1     142.418 170.169 188.826  0.00  0.00    +0.036 HD
ATOM     38  H   UNL     1     142.621 172.659 189.035  0.00  0.00    +0.060 HD
ATOM     39  H   UNL     1     144.518 173.869 189.374  0.00  0.00    +0.033 HD
ATOM     40  H   UNL     1     144.879 172.993 187.906  0.00  0.00    +0.033 HD
ATOM     41  H   UNL     1     146.588 171.652 189.072  0.00  0.00    +0.057 HD
ATOM     42  H   UNL     1     145.882 173.516 191.409  0.00  0.00    +0.067 HD
ATOM     43  H   UNL     1     149.583 171.921 193.896  0.00  0.00    +0.105 HD
ATOM     44  H   UNL     1     152.924 168.334 192.874  0.00  0.00    +0.105 HD
ATOM     45  H   UNL     1     154.554 165.129 189.402  0.00  0.00    +0.105 HD
ATOM     46  H   UNL     1     152.364 166.423 186.302  0.00  0.00    +0.067 HD
ATOM     47  H   UNL     1     152.218 163.550 186.397  0.00  0.00    +0.041 HD
ATOM     48  H   UNL     1     149.457 166.058 187.167  0.00  0.00    +0.065 HD
ATOM     49  H   UNL     1     149.134 166.174 184.103  0.00  0.00    +0.057 HD
ATOM     50  H   UNL     1     147.543 167.818 184.377  0.00  0.00    +0.033 HD
ATOM     51  H   UNL     1     146.992 166.935 185.807  0.00  0.00    +0.033 HD
ATOM     52  H   UNL     1     149.265 168.988 185.951  0.00  0.00    +0.060 HD
ATOM     53  H   UNL     1     147.309 170.223 185.028  0.00  0.00    +0.040 HD
ATOM     54  H   UNL     1     147.652 170.696 186.689  0.00  0.00    +0.040 HD
ATOM     55  H   UNL     1     143.990 168.799 187.778  0.00  0.00    +0.074 HD
BRANCH   4  56
ATOM     56  C   UNL     1     142.845 171.112 186.976  0.00  0.00    -0.057 C 
ATOM     57  H   UNL     1     142.352 172.090 186.979  0.00  0.00    +0.023 HD
ATOM     58  H   UNL     1     142.128 170.392 186.570  0.00  0.00    +0.023 HD
ATOM     59  H   UNL     1     143.694 171.166 186.290  0.00  0.00    +0.023 HD
ENDBRANCH   4  56
BRANCH  25  60
ATOM     60  C   UNL     1     151.031 163.918 188.102  0.00  0.00    -0.053 C 
ATOM     61  H   UNL     1     150.181 164.552 188.371  0.00  0.00    +0.024 HD
ATOM     62  H   UNL     1     150.672 162.888 188.023  0.00  0.00    +0.024 HD
ATOM     63  H   UNL     1     151.733 163.940 188.941  0.00  0.00    +0.024 HD
ENDBRANCH  25  60
BRANCH  31  64
ATOM     64  O   UNL     1     148.298 168.283 187.610  0.00  0.00    -0.391 OA
ATOM     65  H   UNL     1     149.218 168.391 187.928  0.00  0.00    +0.210 HD
ENDBRANCH  31  64
BRANCH  24  66
ATOM     66  O   UNL     1     153.972 165.140 186.431  0.00  0.00    -0.373 OA
BRANCH  66  67
ATOM     67  C   UNL     1     154.012 163.726 186.246  0.00  0.00    +0.037 C 
ATOM     68  H   UNL     1     155.045 163.361 186.257  0.00  0.00    +0.052 HD
ATOM     69  H   UNL     1     153.461 163.250 187.066  0.00  0.00    +0.052 HD
ATOM     70  H   UNL     1     153.526 163.455 185.299  0.00  0.00    +0.052 HD
ENDBRANCH  66  67
ENDBRANCH  24  66
BRANCH   5  71
ATOM     71  O   UNL     1     143.414 171.734 190.672  0.00  0.00    -0.379 OA
BRANCH  71  72
ATOM     72  C   UNL     1     142.265 172.251 191.325  0.00  0.00    +0.037 C 
ATOM     73  H   UNL     1     141.361 171.962 190.784  0.00  0.00    +0.052 HD
ATOM     74  H   UNL     1     142.336 173.343 191.320  0.00  0.00    +0.052 HD
ATOM     75  H   UNL     1     142.203 171.921 192.365  0.00  0.00    +0.052 HD
ENDBRANCH  71  72
ENDBRANCH   5  71
ENDBRANCH   1  36
BRANCH   1  76
ATOM     76  C   UNL     1     144.219 167.965 190.240  0.00  0.00    +0.064 C 
ATOM     77  H   UNL     1     143.452 167.629 189.529  0.00  0.00    +0.060 HD
BRANCH  76  78
ATOM     78  C   UNL     1     145.195 166.776 190.515  0.00  0.00    -0.017 C 
ATOM     79  H   UNL     1     146.224 167.147 190.393  0.00  0.00    +0.032 HD
BRANCH  78  80
ATOM     80  C   UNL     1     145.104 166.243 191.947  0.00  0.00    -0.060 C 
ATOM     81  H   UNL     1     145.327 165.173 191.982  0.00  0.00    +0.023 HD
ATOM     82  H   UNL     1     144.110 166.404 192.373  0.00  0.00    +0.023 HD
ATOM     83  H   UNL     1     145.839 166.725 192.600  0.00  0.00    +0.023 HD
ENDBRANCH  78  80
BRANCH  78  84
ATOM     84  C   UNL     1     144.939 165.667 189.456  0.00  0.00    -0.045 C 
ATOM     85  H   UNL     1     143.868 165.459 189.400  0.00  0.00    +0.027 HD
ATOM     86  H   UNL     1     145.199 166.070 188.470  0.00  0.00    +0.027 HD
BRANCH  84  87
ATOM     87  C   UNL     1     145.753 164.377 189.622  0.00  0.00    -0.015 C 
ATOM     88  H   UNL     1     145.725 164.141 190.694  0.00  0.00    +0.030 HD
ATOM     89  H   UNL     1     145.254 163.555 189.098  0.00  0.00    +0.030 HD
BRANCH  87  90
ATOM     90  C   UNL     1     147.235 164.473 189.196  0.00  0.00    +0.109 C 
ATOM     91  H   UNL     1     147.343 165.367 188.580  0.00  0.00    +0.074 HD
BRANCH  90  92
ATOM     92  C   UNL     1     147.661 163.238 188.345  0.00  0.00    +0.031 C 
ATOM     93  H   UNL     1     148.708 163.397 188.053  0.00  0.00    +0.037 HD
BRANCH  92  94
ATOM     94  C   UNL     1     146.857 163.129 187.036  0.00  0.00    -0.056 C 
ATOM     95  H   UNL     1     146.002 163.813 187.031  0.00  0.00    +0.023 HD
ATOM     96  H   UNL     1     146.479 162.117 186.870  0.00  0.00    +0.023 HD
ATOM     97  H   UNL     1     147.481 163.401 186.178  0.00  0.00    +0.023 HD
ENDBRANCH  92  94
BRANCH  92  98
ATOM     98  C   UNL     1     147.609 161.875 189.109  0.00  0.00    +0.115 C 
ATOM     99  H   UNL     1     147.322 162.109 190.144  0.00  0.00    +0.074 HD
BRANCH  98 100
ATOM    100  C   UNL     1     146.584 160.846 188.558  0.00  0.00    +0.013 C 
ATOM    101  H   UNL     1     146.348 161.106 187.520  0.00  0.00    +0.038 HD
BRANCH 100 102
ATOM    102  C   UNL     1     145.275 160.819 189.353  0.00  0.00    -0.056 C 
ATOM    103  H   UNL     1     144.651 159.965 189.084  0.00  0.00    +0.024 HD
ATOM    104  H   UNL     1     145.478 160.748 190.427  0.00  0.00    +0.024 HD
ATOM    105  H   UNL     1     144.682 161.725 189.181  0.00  0.00    +0.024 HD
ENDBRANCH 100 102
BRANCH 100 106
ATOM    106  C   UNL     1     147.171 159.443 188.555  0.00  0.00    -0.064 C 
ATOM    107  C   UNL     1     146.976 158.567 189.552  0.00  0.00    -0.005 C 
ATOM    108  H   UNL     1     147.748 159.174 187.677  0.00  0.00    +0.059 HD
ATOM    109  H   UNL     1     146.357 158.874 190.396  0.00  0.00    +0.078 HD
BRANCH 107 110
ATOM    110  N   UNL     1     147.467 157.273 189.641  0.00  0.00    -0.284 N 
ATOM    111  C   UNL     1     146.698 156.112 189.554  0.00  0.00    +0.206 C 
ATOM    112  O   UNL     1     145.493 155.994 189.379  0.00  0.00    -0.279 OA
ATOM    113  H   UNL     1     147.319 155.207 189.648  0.00  0.00    +0.126 HD
BRANCH 110 114
ATOM    114  C   UNL     1     148.911 157.132 189.796  0.00  0.00    +0.007 C 
ATOM    115  H   UNL     1     149.205 157.081 190.848  0.00  0.00    +0.043 HD
ATOM    116  H   UNL     1     149.230 156.209 189.301  0.00  0.00    +0.043 HD
ATOM    117  H   UNL     1     149.413 157.985 189.333  0.00  0.00    +0.043 HD
ENDBRANCH 110 114
ENDBRANCH 107 110
ENDBRANCH 100 106
ENDBRANCH  98 100
BRANCH  98 118
ATOM    118  O   UNL     1     148.916 161.257 189.071  0.00  0.00    -0.461 OA
BRANCH 118 119
ATOM    119  C   UNL     1     149.601 161.210 190.246  0.00  0.00    +0.304 C 
ATOM    120  O   UNL     1     150.810 161.064 190.369  0.00  0.00    -0.251 OA
BRANCH 119 121
ATOM    121  C   UNL     1     148.657 161.322 191.402  0.00  0.00    +0.033 C 
ATOM    122  H   UNL     1     148.484 162.374 191.640  0.00  0.00    +0.034 HD
ATOM    123  H   UNL     1     147.703 160.860 191.136  0.00  0.00    +0.034 HD
ATOM    124  H   UNL     1     149.062 160.790 192.268  0.00  0.00    +0.034 HD
ENDBRANCH 119 121
ENDBRANCH 118 119
ENDBRANCH  98 118
ENDBRANCH  92  98
ENDBRANCH  90  92
BRANCH  90 125
ATOM    125  O   UNL     1     148.062 164.557 190.377  0.00  0.00    -0.459 OA
BRANCH 125 126
ATOM    126  C   UNL     1     148.748 165.724 190.576  0.00  0.00    +0.339 C 
ATOM    127  O   UNL     1     148.730 166.688 189.820  0.00  0.00    -0.248 OA
BRANCH 126 128
ATOM    128  C   UNL     1     149.472 165.684 191.929  0.00  0.00    +0.178 C 
ATOM    129  H   UNL     1     150.316 166.385 191.875  0.00  0.00    +0.074 HD
BRANCH 128 130
ATOM    130  C   UNL     1     148.504 166.189 193.009  0.00  0.00    +0.084 C 
ATOM    131  H   UNL     1     147.493 166.231 192.589  0.00  0.00    +0.059 HD
ATOM    132  H   UNL     1     148.764 167.209 193.315  0.00  0.00    +0.059 HD
BRANCH 130 133
ATOM    133  O   UNL     1     148.410 165.378 194.185  0.00  0.00    -0.380 OA
BRANCH 133 134
ATOM    134  C   UNL     1     148.248 166.120 195.388  0.00  0.00    +0.037 C 
ATOM    135  H   UNL     1     149.198 166.544 195.724  0.00  0.00    +0.052 HD
ATOM    136  H   UNL     1     147.555 166.943 195.188  0.00  0.00    +0.052 HD
ATOM    137  H   UNL     1     147.802 165.498 196.169  0.00  0.00    +0.052 HD
ENDBRANCH 133 134
ENDBRANCH 130 133
ENDBRANCH 128 130
BRANCH 128 138
ATOM    138  O   UNL     1     150.002 164.423 192.346  0.00  0.00    -0.366 OA
BRANCH 138 139
ATOM    139  C   UNL     1     151.288 164.153 191.805  0.00  0.00    +0.038 C 
ATOM    140  H   UNL     1     151.982 164.020 192.637  0.00  0.00    +0.052 HD
ATOM    141  H   UNL     1     151.273 163.232 191.217  0.00  0.00    +0.052 HD
ATOM    142  H   UNL     1     151.645 164.984 191.190  0.00  0.00    +0.052 HD
ENDBRANCH 138 139
ENDBRANCH 128 138
ENDBRANCH 126 128
ENDBRANCH 125 126
ENDBRANCH  90 125
ENDBRANCH  87  90
ENDBRANCH  84  87
ENDBRANCH  78  84
ENDBRANCH  76  78
BRANCH  76 143
ATOM    143  O   UNL     1     143.598 168.437 191.445  0.00  0.00    -0.379 OA
BRANCH 143 144
ATOM    144  C   UNL     1     142.179 168.465 191.355  0.00  0.00    +0.037 C 
ATOM    145  H   UNL     1     141.904 168.439 190.297  0.00  0.00    +0.052 HD
ATOM    146  H   UNL     1     141.777 169.374 191.804  0.00  0.00    +0.052 HD
ATOM    147  H   UNL     1     141.755 167.583 191.847  0.00  0.00    +0.052 HD
ENDBRANCH 143 144
ENDBRANCH  76 143
ENDBRANCH   1  76
TORSDOF 35
ENDMDL
MODEL 6
REMARK VINA RESULT:      -5.1      1.405      2.557
REMARK  Name = Mycalolide B_conf2
REMARK  35 active torsions:
REMARK  status: ('A' for Active; 'I' for Inactive)
REMARK    1  A    between atoms: C_1  and  C_2
REMARK    2  A    between atoms: C_3  and  O_72
REMARK    3  A    between atoms: C_22  and  O_70
REMARK    4  A    between atoms: C_23  and  C_69
REMARK    5  A    between atoms: C_29  and  O_68
REMARK    6  A    between atoms: C_34  and  C_35
REMARK    7  A    between atoms: C_35  and  C_36
REMARK    8  A    between atoms: C_36  and  C_37
REMARK    9  A    between atoms: C_36  and  O_66
REMARK   10  A    between atoms: C_37  and  C_38
REMARK   11  A    between atoms: C_37  and  C_39
REMARK   12  A    between atoms: C_39  and  C_40
REMARK   13  A    between atoms: C_40  and  C_41
REMARK   14  A    between atoms: C_41  and  C_42
REMARK   15  A    between atoms: C_41  and  O_57
REMARK   16  A    between atoms: C_42  and  C_43
REMARK   17  A    between atoms: C_42  and  C_44
REMARK   18  A    between atoms: C_44  and  C_45
REMARK   19  A    between atoms: C_44  and  O_53
REMARK   20  A    between atoms: C_45  and  C_46
REMARK   21  A    between atoms: C_45  and  C_47
REMARK   22  A    between atoms: C_48  and  N_49
REMARK   23  A    between atoms: N_49  and  C_50
REMARK   24  A    between atoms: O_53  and  C_54
REMARK   25  A    between atoms: C_54  and  C_56
REMARK   26  A    between atoms: O_57  and  C_58
REMARK   27  A    between atoms: C_58  and  C_60
REMARK   28  A    between atoms: C_60  and  C_61
REMARK   29  A    between atoms: C_60  and  O_64
REMARK   30  A    between atoms: C_61  and  O_62
REMARK   31  A    between atoms: O_62  and  C_63
REMARK   32  A    between atoms: O_64  and  C_65
REMARK   33  A    between atoms: O_66  and  C_67
REMARK   34  A    between atoms: O_70  and  C_71
REMARK   35  A    between atoms: O_72  and  C_73
REMARK                            x       y       z     vdW  Elec       q    Type
REMARK                         _______ _______ _______ _____ _____    ______ ____
ROOT
ATOM      1  C   UNL     1     145.046 169.275 189.662  0.00  0.00    +0.011 C 
ATOM      2  H   UNL     1     146.065 168.951 189.429  0.00  0.00    +0.033 HD
ATOM      3  H   UNL     1     145.154 170.020 190.451  0.00  0.00    +0.033 HD
ENDROOT
BRANCH   1  36
ATOM      4  C   UNL     1     143.336 170.967 188.574  0.00  0.00    +0.020 C 
ATOM      5  C   UNL     1     143.588 172.185 189.514  0.00  0.00    +0.068 C 
ATOM      6  C   UNL     1     144.865 173.034 189.271  0.00  0.00    -0.008 C 
ATOM      7  C   UNL     1     146.144 172.487 189.840  0.00  0.00    -0.077 C 
ATOM      8  C   UNL     1     146.618 172.798 191.059  0.00  0.00    -0.003 C 
ATOM      9  C   UNL     1     147.774 172.155 191.577  0.00  0.00    +0.220 A 
ATOM     10  N   UNL     1     148.524 171.251 190.959  0.00  0.00    -0.205 NA
ATOM     11  C   UNL     1     149.467 170.874 191.882  0.00  0.00    +0.164 A 
ATOM     12  C   UNL     1     149.289 171.574 193.040  0.00  0.00    +0.125 A 
ATOM     13  O   UNL     1     148.234 172.413 192.859  0.00  0.00    -0.443 OA
ATOM     14  C   UNL     1     150.567 169.793 191.657  0.00  0.00    +0.250 A 
ATOM     15  N   UNL     1     150.720 169.127 190.526  0.00  0.00    -0.203 NA
ATOM     16  C   UNL     1     151.774 168.283 190.774  0.00  0.00    +0.164 A 
ATOM     17  C   UNL     1     152.225 168.462 192.056  0.00  0.00    +0.125 A 
ATOM     18  O   UNL     1     151.466 169.431 192.635  0.00  0.00    -0.442 OA
ATOM     19  C   UNL     1     152.381 167.268 189.759  0.00  0.00    +0.249 A 
ATOM     20  N   UNL     1     151.942 167.121 188.520  0.00  0.00    -0.210 NA
ATOM     21  C   UNL     1     152.756 166.152 187.978  0.00  0.00    +0.109 A 
ATOM     22  C   UNL     1     153.663 165.739 188.924  0.00  0.00    +0.118 A 
ATOM     23  O   UNL     1     153.434 166.437 190.067  0.00  0.00    -0.442 OA
ATOM     24  C   UNL     1     152.579 165.705 186.563  0.00  0.00    +0.113 C 
ATOM     25  C   UNL     1     151.542 164.570 186.383  0.00  0.00    +0.051 C 
ATOM     26  C   UNL     1     150.489 165.048 185.387  0.00  0.00    +0.161 C 
ATOM     27  O   UNL     1     150.482 164.628 184.228  0.00  0.00    -0.292 OA
ATOM     28  C   UNL     1     149.495 166.071 185.824  0.00  0.00    -0.023 C 
ATOM     29  C   UNL     1     148.799 166.771 184.911  0.00  0.00    -0.078 C 
ATOM     30  C   UNL     1     147.754 167.807 185.225  0.00  0.00    -0.008 C 
ATOM     31  C   UNL     1     148.212 168.943 186.163  0.00  0.00    +0.069 C 
ATOM     32  C   UNL     1     147.302 170.171 186.093  0.00  0.00    +0.071 C 
ATOM     33  C   UNL     1     145.879 169.838 186.472  0.00  0.00    +0.310 C 
ATOM     34  O   UNL     1     145.140 169.111 185.823  0.00  0.00    -0.251 OA
ATOM     35  O   UNL     1     145.555 170.447 187.645  0.00  0.00    -0.461 OA
ATOM     36  C   UNL     1     144.442 169.897 188.391  0.00  0.00    +0.110 C 
ATOM     37  H   UNL     1     142.477 170.422 188.981  0.00  0.00    +0.036 HD
ATOM     38  H   UNL     1     142.756 172.885 189.354  0.00  0.00    +0.060 HD
ATOM     39  H   UNL     1     144.694 174.016 189.732  0.00  0.00    +0.033 HD
ATOM     40  H   UNL     1     145.000 173.234 188.201  0.00  0.00    +0.033 HD
ATOM     41  H   UNL     1     146.692 171.769 189.234  0.00  0.00    +0.057 HD
ATOM     42  H   UNL     1     146.089 173.487 191.708  0.00  0.00    +0.067 HD
ATOM     43  H   UNL     1     149.791 171.624 193.997  0.00  0.00    +0.105 HD
ATOM     44  H   UNL     1     153.006 168.025 192.659  0.00  0.00    +0.105 HD
ATOM     45  H   UNL     1     154.471 165.022 188.941  0.00  0.00    +0.105 HD
ATOM     46  H   UNL     1     152.256 166.586 185.987  0.00  0.00    +0.067 HD
ATOM     47  H   UNL     1     152.030 163.718 185.889  0.00  0.00    +0.041 HD
ATOM     48  H   UNL     1     149.359 166.242 186.889  0.00  0.00    +0.065 HD
ATOM     49  H   UNL     1     148.976 166.578 183.848  0.00  0.00    +0.057 HD
ATOM     50  H   UNL     1     147.440 168.242 184.269  0.00  0.00    +0.033 HD
ATOM     51  H   UNL     1     146.893 167.278 185.648  0.00  0.00    +0.033 HD
ATOM     52  H   UNL     1     149.227 169.253 185.880  0.00  0.00    +0.060 HD
ATOM     53  H   UNL     1     147.288 170.601 185.087  0.00  0.00    +0.040 HD
ATOM     54  H   UNL     1     147.679 170.950 186.768  0.00  0.00    +0.040 HD
ATOM     55  H   UNL     1     143.986 169.084 187.807  0.00  0.00    +0.074 HD
BRANCH   4  56
ATOM     56  C   UNL     1     142.893 171.477 187.190  0.00  0.00    -0.057 C 
ATOM     57  H   UNL     1     143.757 171.605 186.528  0.00  0.00    +0.023 HD
ATOM     58  H   UNL     1     142.406 172.453 187.276  0.00  0.00    +0.023 HD
ATOM     59  H   UNL     1     142.195 170.793 186.701  0.00  0.00    +0.023 HD
ENDBRANCH   4  56
BRANCH  25  60
ATOM     60  C   UNL     1     150.888 164.001 187.641  0.00  0.00    -0.053 C 
ATOM     61  H   UNL     1     151.395 163.086 187.961  0.00  0.00    +0.024 HD
ATOM     62  H   UNL     1     150.895 164.701 188.481  0.00  0.00    +0.024 HD
ATOM     63  H   UNL     1     149.841 163.746 187.455  0.00  0.00    +0.024 HD
ENDBRANCH  25  60
BRANCH  31  64
ATOM     64  O   UNL     1     148.274 168.462 187.508  0.00  0.00    -0.391 OA
ATOM     65  H   UNL     1     148.906 169.021 188.004  0.00  0.00    +0.210 HD
ENDBRANCH  31  64
BRANCH  24  66
ATOM     66  O   UNL     1     153.829 165.253 185.992  0.00  0.00    -0.373 OA
BRANCH  66  67
ATOM     67  C   UNL     1     154.065 165.800 184.696  0.00  0.00    +0.037 C 
ATOM     68  H   UNL     1     153.289 165.481 183.991  0.00  0.00    +0.052 HD
ATOM     69  H   UNL     1     154.047 166.894 184.769  0.00  0.00    +0.052 HD
ATOM     70  H   UNL     1     155.055 165.494 184.331  0.00  0.00    +0.052 HD
ENDBRANCH  66  67
ENDBRANCH  24  66
BRANCH   5  71
ATOM     71  O   UNL     1     143.556 171.828 190.907  0.00  0.00    -0.379 OA
BRANCH  71  72
ATOM     72  C   UNL     1     142.401 172.271 191.603  0.00  0.00    +0.037 C 
ATOM     73  H   UNL     1     141.756 172.847 190.936  0.00  0.00    +0.052 HD
ATOM     74  H   UNL     1     142.727 172.925 192.418  0.00  0.00    +0.052 HD
ATOM     75  H   UNL     1     141.843 171.439 192.040  0.00  0.00    +0.052 HD
ENDBRANCH  71  72
ENDBRANCH   5  71
ENDBRANCH   1  36
BRANCH   1  76
ATOM     76  C   UNL     1     144.234 168.086 190.209  0.00  0.00    +0.064 C 
ATOM     77  H   UNL     1     143.533 167.734 189.441  0.00  0.00    +0.060 HD
BRANCH  76  78
ATOM     78  C   UNL     1     145.202 166.913 190.572  0.00  0.00    -0.017 C 
ATOM     79  H   UNL     1     146.229 167.311 190.576  0.00  0.00    +0.032 HD
BRANCH  78  80
ATOM     80  C   UNL     1     144.961 166.347 191.972  0.00  0.00    -0.060 C 
ATOM     81  H   UNL     1     145.640 165.515 192.182  0.00  0.00    +0.023 HD
ATOM     82  H   UNL     1     143.933 165.993 192.092  0.00  0.00    +0.023 HD
ATOM     83  H   UNL     1     145.158 167.098 192.746  0.00  0.00    +0.023 HD
ENDBRANCH  78  80
BRANCH  78  84
ATOM     84  C   UNL     1     145.098 165.823 189.469  0.00  0.00    -0.045 C 
ATOM     85  H   UNL     1     144.079 165.803 189.074  0.00  0.00    +0.027 HD
ATOM     86  H   UNL     1     145.722 166.133 188.622  0.00  0.00    +0.027 HD
BRANCH  84  87
ATOM     87  C   UNL     1     145.573 164.419 189.863  0.00  0.00    -0.015 C 
ATOM     88  H   UNL     1     145.572 164.399 190.961  0.00  0.00    +0.030 HD
ATOM     89  H   UNL     1     144.844 163.673 189.528  0.00  0.00    +0.030 HD
BRANCH  87  90
ATOM     90  C   UNL     1     146.993 164.044 189.384  0.00  0.00    +0.109 C 
ATOM     91  H   UNL     1     147.068 162.956 189.396  0.00  0.00    +0.074 HD
BRANCH  90  92
ATOM     92  C   UNL     1     148.084 164.619 190.338  0.00  0.00    +0.031 C 
ATOM     93  H   UNL     1     147.588 164.845 191.291  0.00  0.00    +0.037 HD
BRANCH  92  94
ATOM     94  C   UNL     1     148.664 165.949 189.822  0.00  0.00    -0.056 C 
ATOM     95  H   UNL     1     147.891 166.575 189.365  0.00  0.00    +0.023 HD
ATOM     96  H   UNL     1     149.452 165.793 189.080  0.00  0.00    +0.023 HD
ATOM     97  H   UNL     1     149.089 166.529 190.648  0.00  0.00    +0.023 HD
ENDBRANCH  92  94
BRANCH  92  98
ATOM     98  C   UNL     1     149.250 163.627 190.660  0.00  0.00    +0.115 C 
ATOM     99  H   UNL     1     149.595 163.229 189.696  0.00  0.00    +0.074 HD
BRANCH  98 100
ATOM    100  C   UNL     1     150.475 164.257 191.376  0.00  0.00    +0.013 C 
ATOM    101  H   UNL     1     150.642 165.261 190.973  0.00  0.00    +0.038 HD
BRANCH 100 102
ATOM    102  C   UNL     1     151.762 163.447 191.187  0.00  0.00    -0.056 C 
ATOM    103  H   UNL     1     152.478 163.962 190.544  0.00  0.00    +0.024 HD
ATOM    104  H   UNL     1     152.254 163.275 192.150  0.00  0.00    +0.024 HD
ATOM    105  H   UNL     1     151.557 162.470 190.734  0.00  0.00    +0.024 HD
ENDBRANCH 100 102
BRANCH 100 106
ATOM    106  C   UNL     1     150.216 164.402 192.868  0.00  0.00    -0.064 C 
ATOM    107  C   UNL     1     150.192 165.589 193.494  0.00  0.00    -0.005 C 
ATOM    108  H   UNL     1     150.025 163.480 193.407  0.00  0.00    +0.059 HD
ATOM    109  H   UNL     1     150.353 166.489 192.900  0.00  0.00    +0.078 HD
BRANCH 107 110
ATOM    110  N   UNL     1     149.967 165.822 194.842  0.00  0.00    -0.284 N 
ATOM    111  C   UNL     1     148.713 165.871 195.453  0.00  0.00    +0.206 C 
ATOM    112  O   UNL     1     147.606 165.714 194.958  0.00  0.00    -0.279 OA
ATOM    113  H   UNL     1     148.797 166.065 196.535  0.00  0.00    +0.126 HD
BRANCH 110 114
ATOM    114  C   UNL     1     151.149 165.987 195.682  0.00  0.00    +0.007 C 
ATOM    115  H   UNL     1     151.200 165.226 196.466  0.00  0.00    +0.043 HD
ATOM    116  H   UNL     1     152.041 165.901 195.056  0.00  0.00    +0.043 HD
ATOM    117  H   UNL     1     151.128 166.974 196.152  0.00  0.00    +0.043 HD
ENDBRANCH 110 114
ENDBRANCH 107 110
ENDBRANCH 100 106
ENDBRANCH  98 100
BRANCH  98 118
ATOM    118  O   UNL     1     148.748 162.562 191.500  0.00  0.00    -0.461 OA
BRANCH 118 119
ATOM    119  C   UNL     1     148.554 161.355 190.901  0.00  0.00    +0.304 C 
ATOM    120  O   UNL     1     147.785 160.480 191.278  0.00  0.00    -0.251 OA
BRANCH 119 121
ATOM    121  C   UNL     1     149.451 161.215 189.712  0.00  0.00    +0.033 C 
ATOM    122  H   UNL     1     148.998 160.543 188.980  0.00  0.00    +0.034 HD
ATOM    123  H   UNL     1     149.594 162.195 189.249  0.00  0.00    +0.034 HD
ATOM    124  H   UNL     1     150.432 160.843 190.025  0.00  0.00    +0.034 HD
ENDBRANCH 119 121
ENDBRANCH 118 119
ENDBRANCH  98 118
ENDBRANCH  92  98
ENDBRANCH  90  92
BRANCH  90 125
ATOM    125  O   UNL     1     147.194 164.559 188.050  0.00  0.00    -0.459 OA
BRANCH 125 126
ATOM    126  C   UNL     1     147.108 163.666 187.016  0.00  0.00    +0.339 C 
ATOM    127  O   UNL     1     147.796 162.659 186.898  0.00  0.00    -0.248 OA
BRANCH 126 128
ATOM    128  C   UNL     1     145.961 164.061 186.075  0.00  0.00    +0.178 C 
ATOM    129  H   UNL     1     146.266 163.798 185.053  0.00  0.00    +0.074 HD
BRANCH 128 130
ATOM    130  C   UNL     1     144.729 163.217 186.435  0.00  0.00    +0.084 C 
ATOM    131  H   UNL     1     143.828 163.819 186.279  0.00  0.00    +0.059 HD
ATOM    132  H   UNL     1     144.747 162.938 187.495  0.00  0.00    +0.059 HD
BRANCH 130 133
ATOM    133  O   UNL     1     144.547 162.026 185.661  0.00  0.00    -0.380 OA
BRANCH 133 134
ATOM    134  C   UNL     1     144.286 160.865 186.440  0.00  0.00    +0.037 C 
ATOM    135  H   UNL     1     145.210 160.444 186.846  0.00  0.00    +0.052 HD
ATOM    136  H   UNL     1     143.644 161.154 187.277  0.00  0.00    +0.052 HD
ATOM    137  H   UNL     1     143.744 160.119 185.852  0.00  0.00    +0.052 HD
ENDBRANCH 133 134
ENDBRANCH 130 133
ENDBRANCH 128 130
BRANCH 128 138
ATOM    138  O   UNL     1     145.580 165.439 186.056  0.00  0.00    -0.366 OA
BRANCH 138 139
ATOM    139  C   UNL     1     144.190 165.630 185.834  0.00  0.00    +0.038 C 
ATOM    140  H   UNL     1     143.758 164.668 185.558  0.00  0.00    +0.052 HD
ATOM    141  H   UNL     1     143.699 165.981 186.745  0.00  0.00    +0.052 HD
ATOM    142  H   UNL     1     144.010 166.335 185.018  0.00  0.00    +0.052 HD
ENDBRANCH 138 139
ENDBRANCH 128 138
ENDBRANCH 126 128
ENDBRANCH 125 126
ENDBRANCH  90 125
ENDBRANCH  87  90
ENDBRANCH  84  87
ENDBRANCH  78  84
ENDBRANCH  76  78
BRANCH  76 143
ATOM    143  O   UNL     1     143.511 168.555 191.356  0.00  0.00    -0.379 OA
BRANCH 143 144
ATOM    144  C   UNL     1     142.103 168.557 191.153  0.00  0.00    +0.037 C 
ATOM    145  H   UNL     1     141.872 167.839 190.360  0.00  0.00    +0.052 HD
ATOM    146  H   UNL     1     141.753 169.545 190.850  0.00  0.00    +0.052 HD
ATOM    147  H   UNL     1     141.592 168.241 192.068  0.00  0.00    +0.052 HD
ENDBRANCH 143 144
ENDBRANCH  76 143
ENDBRANCH   1  76
TORSDOF 35
ENDMDL
MODEL 7
REMARK VINA RESULT:      -5.1      2.495      9.260
REMARK  Name = Mycalolide B_conf2
REMARK  35 active torsions:
REMARK  status: ('A' for Active; 'I' for Inactive)
REMARK    1  A    between atoms: C_1  and  C_2
REMARK    2  A    between atoms: C_3  and  O_72
REMARK    3  A    between atoms: C_22  and  O_70
REMARK    4  A    between atoms: C_23  and  C_69
REMARK    5  A    between atoms: C_29  and  O_68
REMARK    6  A    between atoms: C_34  and  C_35
REMARK    7  A    between atoms: C_35  and  C_36
REMARK    8  A    between atoms: C_36  and  C_37
REMARK    9  A    between atoms: C_36  and  O_66
REMARK   10  A    between atoms: C_37  and  C_38
REMARK   11  A    between atoms: C_37  and  C_39
REMARK   12  A    between atoms: C_39  and  C_40
REMARK   13  A    between atoms: C_40  and  C_41
REMARK   14  A    between atoms: C_41  and  C_42
REMARK   15  A    between atoms: C_41  and  O_57
REMARK   16  A    between atoms: C_42  and  C_43
REMARK   17  A    between atoms: C_42  and  C_44
REMARK   18  A    between atoms: C_44  and  C_45
REMARK   19  A    between atoms: C_44  and  O_53
REMARK   20  A    between atoms: C_45  and  C_46
REMARK   21  A    between atoms: C_45  and  C_47
REMARK   22  A    between atoms: C_48  and  N_49
REMARK   23  A    between atoms: N_49  and  C_50
REMARK   24  A    between atoms: O_53  and  C_54
REMARK   25  A    between atoms: C_54  and  C_56
REMARK   26  A    between atoms: O_57  and  C_58
REMARK   27  A    between atoms: C_58  and  C_60
REMARK   28  A    between atoms: C_60  and  C_61
REMARK   29  A    between atoms: C_60  and  O_64
REMARK   30  A    between atoms: C_61  and  O_62
REMARK   31  A    between atoms: O_62  and  C_63
REMARK   32  A    between atoms: O_64  and  C_65
REMARK   33  A    between atoms: O_66  and  C_67
REMARK   34  A    between atoms: O_70  and  C_71
REMARK   35  A    between atoms: O_72  and  C_73
REMARK                            x       y       z     vdW  Elec       q    Type
REMARK                         _______ _______ _______ _____ _____    ______ ____
ROOT
ATOM      1  C   UNL     1     148.858 166.497 188.841  0.00  0.00    +0.011 C 
ATOM      2  H   UNL     1     148.141 167.241 189.200  0.00  0.00    +0.033 HD
ATOM      3  H   UNL     1     149.805 166.758 189.313  0.00  0.00    +0.033 HD
ENDROOT
BRANCH   1  36
ATOM      4  C   UNL     1     149.440 163.993 189.443  0.00  0.00    +0.020 C 
ATOM      5  C   UNL     1     150.719 164.254 190.295  0.00  0.00    +0.068 C 
ATOM      6  C   UNL     1     150.528 164.752 191.753  0.00  0.00    -0.008 C 
ATOM      7  C   UNL     1     150.266 166.223 191.923  0.00  0.00    -0.077 C 
ATOM      8  C   UNL     1     151.229 167.138 192.128  0.00  0.00    -0.003 C 
ATOM      9  C   UNL     1     150.918 168.525 192.165  0.00  0.00    +0.220 A 
ATOM     10  N   UNL     1     149.715 169.072 192.053  0.00  0.00    -0.205 NA
ATOM     11  C   UNL     1     149.932 170.427 192.070  0.00  0.00    +0.164 A 
ATOM     12  C   UNL     1     151.266 170.681 192.217  0.00  0.00    +0.125 A 
ATOM     13  O   UNL     1     151.908 169.485 192.305  0.00  0.00    -0.443 OA
ATOM     14  C   UNL     1     148.832 171.520 191.923  0.00  0.00    +0.250 A 
ATOM     15  N   UNL     1     147.545 171.251 191.782  0.00  0.00    -0.203 NA
ATOM     16  C   UNL     1     146.954 172.485 191.672  0.00  0.00    +0.164 A 
ATOM     17  C   UNL     1     147.906 173.467 191.746  0.00  0.00    +0.125 A 
ATOM     18  O   UNL     1     149.116 172.867 191.912  0.00  0.00    -0.442 OA
ATOM     19  C   UNL     1     145.428 172.746 191.491  0.00  0.00    +0.249 A 
ATOM     20  N   UNL     1     144.522 171.784 191.439  0.00  0.00    -0.210 NA
ATOM     21  C   UNL     1     143.324 172.445 191.294  0.00  0.00    +0.109 A 
ATOM     22  C   UNL     1     143.554 173.800 191.257  0.00  0.00    +0.118 A 
ATOM     23  O   UNL     1     144.892 174.008 191.376  0.00  0.00    -0.442 OA
ATOM     24  C   UNL     1     142.037 171.692 191.205  0.00  0.00    +0.113 C 
ATOM     25  C   UNL     1     141.667 171.241 189.771  0.00  0.00    +0.051 C 
ATOM     26  C   UNL     1     141.479 169.727 189.786  0.00  0.00    +0.161 C 
ATOM     27  O   UNL     1     140.351 169.231 189.750  0.00  0.00    -0.292 OA
ATOM     28  C   UNL     1     142.684 168.852 189.895  0.00  0.00    -0.023 C 
ATOM     29  C   UNL     1     142.554 167.567 190.269  0.00  0.00    -0.078 C 
ATOM     30  C   UNL     1     143.684 166.581 190.390  0.00  0.00    -0.008 C 
ATOM     31  C   UNL     1     144.851 167.024 191.299  0.00  0.00    +0.069 C 
ATOM     32  C   UNL     1     145.731 165.853 191.744  0.00  0.00    +0.071 C 
ATOM     33  C   UNL     1     146.341 165.131 190.568  0.00  0.00    +0.310 C 
ATOM     34  O   UNL     1     145.707 164.489 189.742  0.00  0.00    -0.251 OA
ATOM     35  O   UNL     1     147.689 165.318 190.555  0.00  0.00    -0.461 OA
ATOM     36  C   UNL     1     148.375 165.110 189.297  0.00  0.00    +0.110 C 
ATOM     37  H   UNL     1     149.774 163.784 188.421  0.00  0.00    +0.036 HD
ATOM     38  H   UNL     1     151.232 163.287 190.399  0.00  0.00    +0.060 HD
ATOM     39  H   UNL     1     151.451 164.518 192.299  0.00  0.00    +0.033 HD
ATOM     40  H   UNL     1     149.738 164.182 192.257  0.00  0.00    +0.033 HD
ATOM     41  H   UNL     1     149.235 166.559 191.835  0.00  0.00    +0.057 HD
ATOM     42  H   UNL     1     152.272 166.852 192.193  0.00  0.00    +0.067 HD
ATOM     43  H   UNL     1     151.878 171.569 192.303  0.00  0.00    +0.105 HD
ATOM     44  H   UNL     1     147.896 174.546 191.705  0.00  0.00    +0.105 HD
ATOM     45  H   UNL     1     142.929 174.676 191.163  0.00  0.00    +0.105 HD
ATOM     46  H   UNL     1     142.140 170.804 191.848  0.00  0.00    +0.067 HD
ATOM     47  H   UNL     1     140.676 171.644 189.516  0.00  0.00    +0.041 HD
ATOM     48  H   UNL     1     143.658 169.281 189.679  0.00  0.00    +0.065 HD
ATOM     49  H   UNL     1     141.555 167.178 190.491  0.00  0.00    +0.057 HD
ATOM     50  H   UNL     1     143.257 165.655 190.789  0.00  0.00    +0.033 HD
ATOM     51  H   UNL     1     144.040 166.373 189.375  0.00  0.00    +0.033 HD
ATOM     52  H   UNL     1     144.441 167.505 192.196  0.00  0.00    +0.060 HD
ATOM     53  H   UNL     1     145.158 165.123 192.325  0.00  0.00    +0.040 HD
ATOM     54  H   UNL     1     146.534 166.221 192.395  0.00  0.00    +0.040 HD
ATOM     55  H   UNL     1     147.653 164.747 188.551  0.00  0.00    +0.074 HD
BRANCH   4  56
ATOM     56  C   UNL     1     148.756 162.704 189.934  0.00  0.00    -0.057 C 
ATOM     57  H   UNL     1     149.156 162.399 190.907  0.00  0.00    +0.023 HD
ATOM     58  H   UNL     1     148.939 161.881 189.237  0.00  0.00    +0.023 HD
ATOM     59  H   UNL     1     147.675 162.824 190.039  0.00  0.00    +0.023 HD
ENDBRANCH   4  56
BRANCH  25  60
ATOM     60  C   UNL     1     142.592 171.667 188.632  0.00  0.00    -0.053 C 
ATOM     61  H   UNL     1     143.411 170.953 188.510  0.00  0.00    +0.024 HD
ATOM     62  H   UNL     1     142.076 171.756 187.672  0.00  0.00    +0.024 HD
ATOM     63  H   UNL     1     143.039 172.645 188.838  0.00  0.00    +0.024 HD
ENDBRANCH  25  60
BRANCH  31  64
ATOM     64  O   UNL     1     145.648 167.998 190.619  0.00  0.00    -0.391 OA
ATOM     65  H   UNL     1     146.540 167.619 190.481  0.00  0.00    +0.210 HD
ENDBRANCH  31  64
BRANCH  24  66
ATOM     66  O   UNL     1     140.932 172.470 191.720  0.00  0.00    -0.373 OA
BRANCH  66  67
ATOM     67  C   UNL     1     139.963 172.771 190.717  0.00  0.00    +0.037 C 
ATOM     68  H   UNL     1     139.462 171.859 190.373  0.00  0.00    +0.052 HD
ATOM     69  H   UNL     1     139.213 173.446 191.145  0.00  0.00    +0.052 HD
ATOM     70  H   UNL     1     140.443 173.280 189.869  0.00  0.00    +0.052 HD
ENDBRANCH  66  67
ENDBRANCH  24  66
BRANCH   5  71
ATOM     71  O   UNL     1     151.649 165.137 189.646  0.00  0.00    -0.379 OA
BRANCH  71  72
ATOM     72  C   UNL     1     153.003 164.714 189.701  0.00  0.00    +0.037 C 
ATOM     73  H   UNL     1     153.512 165.187 190.544  0.00  0.00    +0.052 HD
ATOM     74  H   UNL     1     153.495 165.035 188.777  0.00  0.00    +0.052 HD
ATOM     75  H   UNL     1     153.089 163.628 189.770  0.00  0.00    +0.052 HD
ENDBRANCH  71  72
ENDBRANCH   5  71
ENDBRANCH   1  36
BRANCH   1  76
ATOM     76  C   UNL     1     149.014 166.621 187.313  0.00  0.00    +0.064 C 
ATOM     77  H   UNL     1     148.886 165.635 186.848  0.00  0.00    +0.060 HD
BRANCH  76  78
ATOM     78  C   UNL     1     147.916 167.580 186.750  0.00  0.00    -0.017 C 
ATOM     79  H   UNL     1     147.602 168.251 187.565  0.00  0.00    +0.032 HD
BRANCH  78  80
ATOM     80  C   UNL     1     148.427 168.487 185.629  0.00  0.00    -0.060 C 
ATOM     81  H   UNL     1     149.405 168.909 185.880  0.00  0.00    +0.023 HD
ATOM     82  H   UNL     1     147.736 169.309 185.429  0.00  0.00    +0.023 HD
ATOM     83  H   UNL     1     148.572 167.927 184.698  0.00  0.00    +0.023 HD
ENDBRANCH  78  80
BRANCH  78  84
ATOM     84  C   UNL     1     146.691 166.731 186.310  0.00  0.00    -0.045 C 
ATOM     85  H   UNL     1     146.591 166.776 185.222  0.00  0.00    +0.027 HD
ATOM     86  H   UNL     1     146.909 165.679 186.528  0.00  0.00    +0.027 HD
BRANCH  84  87
ATOM     87  C   UNL     1     145.364 167.049 187.009  0.00  0.00    -0.015 C 
ATOM     88  H   UNL     1     145.028 166.105 187.459  0.00  0.00    +0.030 HD
ATOM     89  H   UNL     1     145.537 167.753 187.831  0.00  0.00    +0.030 HD
BRANCH  87  90
ATOM     90  C   UNL     1     144.237 167.560 186.085  0.00  0.00    +0.109 C 
ATOM     91  H   UNL     1     144.617 167.545 185.062  0.00  0.00    +0.074 HD
BRANCH  90  92
ATOM     92  C   UNL     1     143.837 169.026 186.434  0.00  0.00    +0.031 C 
ATOM     93  H   UNL     1     143.992 169.151 187.515  0.00  0.00    +0.037 HD
BRANCH  92  94
ATOM     94  C   UNL     1     142.344 169.299 186.175  0.00  0.00    -0.056 C 
ATOM     95  H   UNL     1     141.972 170.123 186.792  0.00  0.00    +0.023 HD
ATOM     96  H   UNL     1     141.725 168.421 186.379  0.00  0.00    +0.023 HD
ATOM     97  H   UNL     1     142.182 169.590 185.132  0.00  0.00    +0.023 HD
ENDBRANCH  92  94
BRANCH  92  98
ATOM     98  C   UNL     1     144.702 170.120 185.725  0.00  0.00    +0.115 C 
ATOM     99  H   UNL     1     144.010 170.919 185.427  0.00  0.00    +0.074 HD
BRANCH  98 100
ATOM    100  C   UNL     1     145.810 170.760 186.606  0.00  0.00    +0.013 C 
ATOM    101  H   UNL     1     146.788 170.487 186.196  0.00  0.00    +0.038 HD
BRANCH 100 102
ATOM    102  C   UNL     1     145.758 170.297 188.065  0.00  0.00    -0.056 C 
ATOM    103  H   UNL     1     146.093 171.076 188.753  0.00  0.00    +0.024 HD
ATOM    104  H   UNL     1     144.734 170.031 188.349  0.00  0.00    +0.024 HD
ATOM    105  H   UNL     1     146.392 169.418 188.230  0.00  0.00    +0.024 HD
ENDBRANCH 100 102
BRANCH 100 106
ATOM    106  C   UNL     1     145.712 172.278 186.582  0.00  0.00    -0.064 C 
ATOM    107  C   UNL     1     144.804 172.941 185.850  0.00  0.00    -0.005 C 
ATOM    108  H   UNL     1     146.415 172.807 187.217  0.00  0.00    +0.059 HD
ATOM    109  H   UNL     1     144.095 172.361 185.257  0.00  0.00    +0.078 HD
BRANCH 107 110
ATOM    110  N   UNL     1     144.637 174.314 185.762  0.00  0.00    -0.284 N 
ATOM    111  C   UNL     1     145.479 175.186 185.071  0.00  0.00    +0.206 C 
ATOM    112  O   UNL     1     146.484 174.936 184.421  0.00  0.00    -0.279 OA
ATOM    113  H   UNL     1     145.130 176.229 185.144  0.00  0.00    +0.126 HD
BRANCH 110 114
ATOM    114  C   UNL     1     143.456 174.871 186.415  0.00  0.00    +0.007 C 
ATOM    115  H   UNL     1     142.601 174.192 186.360  0.00  0.00    +0.043 HD
ATOM    116  H   UNL     1     143.689 175.050 187.470  0.00  0.00    +0.043 HD
ATOM    117  H   UNL     1     143.186 175.815 185.937  0.00  0.00    +0.043 HD
ENDBRANCH 110 114
ENDBRANCH 107 110
ENDBRANCH 100 106
ENDBRANCH  98 100
BRANCH  98 118
ATOM    118  O   UNL     1     145.342 169.541 184.565  0.00  0.00    -0.461 OA
BRANCH 118 119
ATOM    119  C   UNL     1     145.224 170.231 183.398  0.00  0.00    +0.304 C 
ATOM    120  O   UNL     1     144.187 170.420 182.775  0.00  0.00    -0.251 OA
BRANCH 119 121
ATOM    121  C   UNL     1     146.566 170.709 182.939  0.00  0.00    +0.033 C 
ATOM    122  H   UNL     1     147.104 169.895 182.448  0.00  0.00    +0.034 HD
ATOM    123  H   UNL     1     146.434 171.525 182.224  0.00  0.00    +0.034 HD
ATOM    124  H   UNL     1     147.137 171.094 183.790  0.00  0.00    +0.034 HD
ENDBRANCH 119 121
ENDBRANCH 118 119
ENDBRANCH  98 118
ENDBRANCH  92  98
ENDBRANCH  90  92
BRANCH  90 125
ATOM    125  O   UNL     1     143.086 166.699 186.220  0.00  0.00    -0.459 OA
BRANCH 125 126
ATOM    126  C   UNL     1     142.987 165.649 185.347  0.00  0.00    +0.339 C 
ATOM    127  O   UNL     1     142.893 165.753 184.130  0.00  0.00    -0.248 OA
BRANCH 126 128
ATOM    128  C   UNL     1     143.103 164.321 186.107  0.00  0.00    +0.178 C 
ATOM    129  H   UNL     1     142.279 163.674 185.773  0.00  0.00    +0.074 HD
BRANCH 128 130
ATOM    130  C   UNL     1     144.425 163.649 185.707  0.00  0.00    +0.084 C 
ATOM    131  H   UNL     1     145.031 164.365 185.143  0.00  0.00    +0.059 HD
ATOM    132  H   UNL     1     144.240 162.795 185.045  0.00  0.00    +0.059 HD
BRANCH 130 133
ATOM    133  O   UNL     1     145.247 163.205 186.793  0.00  0.00    -0.380 OA
BRANCH 133 134
ATOM    134  C   UNL     1     146.612 163.011 186.441  0.00  0.00    +0.037 C 
ATOM    135  H   UNL     1     146.718 162.764 185.381  0.00  0.00    +0.052 HD
ATOM    136  H   UNL     1     147.148 163.945 186.631  0.00  0.00    +0.052 HD
ATOM    137  H   UNL     1     147.066 162.238 187.068  0.00  0.00    +0.052 HD
ENDBRANCH 133 134
ENDBRANCH 130 133
ENDBRANCH 128 130
BRANCH 128 138
ATOM    138  O   UNL     1     143.035 164.380 187.534  0.00  0.00    -0.366 OA
BRANCH 138 139
ATOM    139  C   UNL     1     141.795 163.918 188.054  0.00  0.00    +0.038 C 
ATOM    140  H   UNL     1     142.006 163.133 188.780  0.00  0.00    +0.052 HD
ATOM    141  H   UNL     1     141.265 164.727 188.562  0.00  0.00    +0.052 HD
ATOM    142  H   UNL     1     141.165 163.497 187.266  0.00  0.00    +0.052 HD
ENDBRANCH 138 139
ENDBRANCH 128 138
ENDBRANCH 126 128
ENDBRANCH 125 126
ENDBRANCH  90 125
ENDBRANCH  87  90
ENDBRANCH  84  87
ENDBRANCH  78  84
ENDBRANCH  76  78
BRANCH  76 143
ATOM    143  O   UNL     1     150.337 167.116 187.059  0.00  0.00    -0.379 OA
BRANCH 143 144
ATOM    144  C   UNL     1     151.180 166.140 186.459  0.00  0.00    +0.037 C 
ATOM    145  H   UNL     1     150.723 165.157 186.606  0.00  0.00    +0.052 HD
ATOM    146  H   UNL     1     152.170 166.143 186.919  0.00  0.00    +0.052 HD
ATOM    147  H   UNL     1     151.265 166.328 185.384  0.00  0.00    +0.052 HD
ENDBRANCH 143 144
ENDBRANCH  76 143
ENDBRANCH   1  76
TORSDOF 35
ENDMDL
MODEL 8
REMARK VINA RESULT:      -5.0      1.956      4.245
REMARK  Name = Mycalolide B_conf2
REMARK  35 active torsions:
REMARK  status: ('A' for Active; 'I' for Inactive)
REMARK    1  A    between atoms: C_1  and  C_2
REMARK    2  A    between atoms: C_3  and  O_72
REMARK    3  A    between atoms: C_22  and  O_70
REMARK    4  A    between atoms: C_23  and  C_69
REMARK    5  A    between atoms: C_29  and  O_68
REMARK    6  A    between atoms: C_34  and  C_35
REMARK    7  A    between atoms: C_35  and  C_36
REMARK    8  A    between atoms: C_36  and  C_37
REMARK    9  A    between atoms: C_36  and  O_66
REMARK   10  A    between atoms: C_37  and  C_38
REMARK   11  A    between atoms: C_37  and  C_39
REMARK   12  A    between atoms: C_39  and  C_40
REMARK   13  A    between atoms: C_40  and  C_41
REMARK   14  A    between atoms: C_41  and  C_42
REMARK   15  A    between atoms: C_41  and  O_57
REMARK   16  A    between atoms: C_42  and  C_43
REMARK   17  A    between atoms: C_42  and  C_44
REMARK   18  A    between atoms: C_44  and  C_45
REMARK   19  A    between atoms: C_44  and  O_53
REMARK   20  A    between atoms: C_45  and  C_46
REMARK   21  A    between atoms: C_45  and  C_47
REMARK   22  A    between atoms: C_48  and  N_49
REMARK   23  A    between atoms: N_49  and  C_50
REMARK   24  A    between atoms: O_53  and  C_54
REMARK   25  A    between atoms: C_54  and  C_56
REMARK   26  A    between atoms: O_57  and  C_58
REMARK   27  A    between atoms: C_58  and  C_60
REMARK   28  A    between atoms: C_60  and  C_61
REMARK   29  A    between atoms: C_60  and  O_64
REMARK   30  A    between atoms: C_61  and  O_62
REMARK   31  A    between atoms: O_62  and  C_63
REMARK   32  A    between atoms: O_64  and  C_65
REMARK   33  A    between atoms: O_66  and  C_67
REMARK   34  A    between atoms: O_70  and  C_71
REMARK   35  A    between atoms: O_72  and  C_73
REMARK                            x       y       z     vdW  Elec       q    Type
REMARK                         _______ _______ _______ _____ _____    ______ ____
ROOT
ATOM      1  C   UNL     1     145.097 167.297 189.016  0.00  0.00    +0.011 C 
ATOM      2  H   UNL     1     146.187 167.275 188.917  0.00  0.00    +0.033 HD
ATOM      3  H   UNL     1     144.892 168.044 189.783  0.00  0.00    +0.033 HD
ENDROOT
BRANCH   1  36
ATOM      4  C   UNL     1     143.190 168.537 187.677  0.00  0.00    +0.020 C 
ATOM      5  C   UNL     1     143.096 169.824 188.551  0.00  0.00    +0.068 C 
ATOM      6  C   UNL     1     144.189 170.910 188.359  0.00  0.00    -0.008 C 
ATOM      7  C   UNL     1     145.492 170.673 189.069  0.00  0.00    -0.077 C 
ATOM      8  C   UNL     1     145.772 171.135 190.300  0.00  0.00    -0.003 C 
ATOM      9  C   UNL     1     146.981 170.774 190.955  0.00  0.00    +0.220 A 
ATOM     10  N   UNL     1     147.956 170.020 190.465  0.00  0.00    -0.205 NA
ATOM     11  C   UNL     1     148.863 169.894 191.487  0.00  0.00    +0.164 A 
ATOM     12  C   UNL     1     148.435 170.596 192.576  0.00  0.00    +0.125 A 
ATOM     13  O   UNL     1     147.253 171.185 192.251  0.00  0.00    -0.443 OA
ATOM     14  C   UNL     1     150.177 169.059 191.429  0.00  0.00    +0.250 A 
ATOM     15  N   UNL     1     150.572 168.386 190.362  0.00  0.00    -0.203 NA
ATOM     16  C   UNL     1     151.748 167.795 190.754  0.00  0.00    +0.164 A 
ATOM     17  C   UNL     1     152.026 168.127 192.054  0.00  0.00    +0.125 A 
ATOM     18  O   UNL     1     151.033 168.941 192.501  0.00  0.00    -0.442 OA
ATOM     19  C   UNL     1     152.644 166.882 189.864  0.00  0.00    +0.249 A 
ATOM     20  N   UNL     1     152.366 166.587 188.605  0.00  0.00    -0.210 NA
ATOM     21  C   UNL     1     153.409 165.786 188.200  0.00  0.00    +0.109 A 
ATOM     22  C   UNL     1     154.286 165.618 189.245  0.00  0.00    +0.118 A 
ATOM     23  O   UNL     1     153.810 166.307 190.315  0.00  0.00    -0.442 OA
ATOM     24  C   UNL     1     153.465 165.244 186.808  0.00  0.00    +0.113 C 
ATOM     25  C   UNL     1     152.705 163.909 186.619  0.00  0.00    +0.051 C 
ATOM     26  C   UNL     1     151.677 164.105 185.508  0.00  0.00    +0.161 C 
ATOM     27  O   UNL     1     151.867 163.638 184.384  0.00  0.00    -0.292 OA
ATOM     28  C   UNL     1     150.456 164.917 185.791  0.00  0.00    -0.023 C 
ATOM     29  C   UNL     1     149.723 165.410 184.777  0.00  0.00    -0.078 C 
ATOM     30  C   UNL     1     148.463 166.217 184.931  0.00  0.00    -0.008 C 
ATOM     31  C   UNL     1     148.586 167.469 185.826  0.00  0.00    +0.069 C 
ATOM     32  C   UNL     1     147.454 168.473 185.598  0.00  0.00    +0.071 C 
ATOM     33  C   UNL     1     146.101 167.867 185.877  0.00  0.00    +0.310 C 
ATOM     34  O   UNL     1     145.592 166.971 185.218  0.00  0.00    -0.251 OA
ATOM     35  O   UNL     1     145.547 168.450 186.975  0.00  0.00    -0.461 OA
ATOM     36  C   UNL     1     144.504 167.715 187.660  0.00  0.00    +0.110 C 
ATOM     37  H   UNL     1     142.426 167.843 188.046  0.00  0.00    +0.036 HD
ATOM     38  H   UNL     1     142.157 170.326 188.275  0.00  0.00    +0.060 HD
ATOM     39  H   UNL     1     143.777 171.855 188.737  0.00  0.00    +0.033 HD
ATOM     40  H   UNL     1     144.382 171.081 187.293  0.00  0.00    +0.033 HD
ATOM     41  H   UNL     1     146.232 170.057 188.562  0.00  0.00    +0.057 HD
ATOM     42  H   UNL     1     145.053 171.728 190.855  0.00  0.00    +0.067 HD
ATOM     43  H   UNL     1     148.822 170.797 193.566  0.00  0.00    +0.105 HD
ATOM     44  H   UNL     1     152.819 167.894 192.749  0.00  0.00    +0.105 HD
ATOM     45  H   UNL     1     155.219 165.090 189.378  0.00  0.00    +0.105 HD
ATOM     46  H   UNL     1     153.025 166.008 186.149  0.00  0.00    +0.067 HD
ATOM     47  H   UNL     1     153.401 163.155 186.226  0.00  0.00    +0.041 HD
ATOM     48  H   UNL     1     150.187 165.107 186.826  0.00  0.00    +0.065 HD
ATOM     49  H   UNL     1     150.038 165.207 183.748  0.00  0.00    +0.057 HD
ATOM     50  H   UNL     1     148.160 166.530 183.926  0.00  0.00    +0.033 HD
ATOM     51  H   UNL     1     147.692 165.540 185.315  0.00  0.00    +0.033 HD
ATOM     52  H   UNL     1     149.538 167.970 185.609  0.00  0.00    +0.060 HD
ATOM     53  H   UNL     1     147.450 168.842 184.567  0.00  0.00    +0.040 HD
ATOM     54  H   UNL     1     147.597 169.346 186.248  0.00  0.00    +0.040 HD
ATOM     55  H   UNL     1     144.283 166.797 187.096  0.00  0.00    +0.074 HD
BRANCH   4  56
ATOM     56  C   UNL     1     142.787 168.874 186.230  0.00  0.00    -0.057 C 
ATOM     57  H   UNL     1     143.493 168.434 185.517  0.00  0.00    +0.023 HD
ATOM     58  H   UNL     1     142.800 169.956 186.068  0.00  0.00    +0.023 HD
ATOM     59  H   UNL     1     141.788 168.508 185.982  0.00  0.00    +0.023 HD
ENDBRANCH   4  56
BRANCH  25  60
ATOM     60  C   UNL     1     152.063 163.276 187.853  0.00  0.00    -0.053 C 
ATOM     61  H   UNL     1     152.209 162.192 187.853  0.00  0.00    +0.024 HD
ATOM     62  H   UNL     1     152.462 163.671 188.792  0.00  0.00    +0.024 HD
ATOM     63  H   UNL     1     150.985 163.461 187.870  0.00  0.00    +0.024 HD
ENDBRANCH  25  60
BRANCH  31  64
ATOM     64  O   UNL     1     148.616 167.077 187.201  0.00  0.00    -0.391 OA
ATOM     65  H   UNL     1     147.845 167.481 187.650  0.00  0.00    +0.210 HD
ENDBRANCH  31  64
BRANCH  24  66
ATOM     66  O   UNL     1     154.830 165.037 186.376  0.00  0.00    -0.373 OA
BRANCH  66  67
ATOM     67  C   UNL     1     155.346 166.153 185.653  0.00  0.00    +0.037 C 
ATOM     68  H   UNL     1     156.133 166.658 186.224  0.00  0.00    +0.052 HD
ATOM     69  H   UNL     1     155.772 165.792 184.709  0.00  0.00    +0.052 HD
ATOM     70  H   UNL     1     154.537 166.859 185.419  0.00  0.00    +0.052 HD
ENDBRANCH  66  67
ENDBRANCH  24  66
BRANCH   5  71
ATOM     71  O   UNL     1     143.003 169.537 189.956  0.00  0.00    -0.379 OA
BRANCH  71  72
ATOM     72  C   UNL     1     141.691 169.253 190.417  0.00  0.00    +0.037 C 
ATOM     73  H   UNL     1     141.215 168.514 189.767  0.00  0.00    +0.052 HD
ATOM     74  H   UNL     1     141.109 170.178 190.371  0.00  0.00    +0.052 HD
ATOM     75  H   UNL     1     141.687 168.901 191.451  0.00  0.00    +0.052 HD
ENDBRANCH  71  72
ENDBRANCH   5  71
ENDBRANCH   1  36
BRANCH   1  76
ATOM     76  C   UNL     1     144.593 165.927 189.511  0.00  0.00    +0.064 C 
ATOM     77  H   UNL     1     143.685 165.649 188.962  0.00  0.00    +0.060 HD
BRANCH  76  78
ATOM     78  C   UNL     1     145.685 164.840 189.245  0.00  0.00    -0.017 C 
ATOM     79  H   UNL     1     145.339 163.896 189.694  0.00  0.00    +0.032 HD
BRANCH  78  80
ATOM     80  C   UNL     1     145.894 164.550 187.757  0.00  0.00    -0.060 C 
ATOM     81  H   UNL     1     145.228 163.752 187.415  0.00  0.00    +0.023 HD
ATOM     82  H   UNL     1     146.925 164.255 187.546  0.00  0.00    +0.023 HD
ATOM     83  H   UNL     1     145.655 165.425 187.142  0.00  0.00    +0.023 HD
ENDBRANCH  78  80
BRANCH  78  84
ATOM     84  C   UNL     1     147.000 165.272 189.951  0.00  0.00    -0.045 C 
ATOM     85  H   UNL     1     147.071 166.362 189.951  0.00  0.00    +0.027 HD
ATOM     86  H   UNL     1     146.926 164.995 191.010  0.00  0.00    +0.027 HD
BRANCH  84  87
ATOM     87  C   UNL     1     148.289 164.627 189.428  0.00  0.00    -0.015 C 
ATOM     88  H   UNL     1     148.009 164.103 188.504  0.00  0.00    +0.030 HD
ATOM     89  H   UNL     1     149.007 165.406 189.149  0.00  0.00    +0.030 HD
BRANCH  87  90
ATOM     90  C   UNL     1     148.945 163.598 190.375  0.00  0.00    +0.109 C 
ATOM     91  H   UNL     1     149.910 163.323 189.945  0.00  0.00    +0.074 HD
BRANCH  90  92
ATOM     92  C   UNL     1     148.080 162.307 190.497  0.00  0.00    +0.031 C 
ATOM     93  H   UNL     1     147.105 162.612 190.901  0.00  0.00    +0.037 HD
BRANCH  92  94
ATOM     94  C   UNL     1     148.673 161.302 191.502  0.00  0.00    -0.056 C 
ATOM     95  H   UNL     1     148.588 161.665 192.531  0.00  0.00    +0.023 HD
ATOM     96  H   UNL     1     149.729 161.100 191.304  0.00  0.00    +0.023 HD
ATOM     97  H   UNL     1     148.133 160.351 191.459  0.00  0.00    +0.023 HD
ENDBRANCH  92  94
BRANCH  92  98
ATOM     98  C   UNL     1     147.798 161.586 189.137  0.00  0.00    +0.115 C 
ATOM     99  H   UNL     1     147.098 162.227 188.584  0.00  0.00    +0.074 HD
BRANCH  98 100
ATOM    100  C   UNL     1     149.043 161.361 188.237  0.00  0.00    +0.013 C 
ATOM    101  H   UNL     1     149.824 162.070 188.532  0.00  0.00    +0.038 HD
BRANCH 100 102
ATOM    102  C   UNL     1     148.751 161.566 186.747  0.00  0.00    -0.056 C 
ATOM    103  H   UNL     1     149.124 160.740 186.140  0.00  0.00    +0.024 HD
ATOM    104  H   UNL     1     147.672 161.637 186.573  0.00  0.00    +0.024 HD
ATOM    105  H   UNL     1     149.214 162.486 186.371  0.00  0.00    +0.024 HD
ENDBRANCH 100 102
BRANCH 100 106
ATOM    106  C   UNL     1     149.603 159.960 188.426  0.00  0.00    -0.064 C 
ATOM    107  C   UNL     1     150.732 159.709 189.107  0.00  0.00    -0.005 C 
ATOM    108  H   UNL     1     149.020 159.154 187.993  0.00  0.00    +0.059 HD
ATOM    109  H   UNL     1     151.262 160.550 189.557  0.00  0.00    +0.078 HD
BRANCH 107 110
ATOM    110  N   UNL     1     151.320 158.474 189.333  0.00  0.00    -0.284 N 
ATOM    111  C   UNL     1     151.908 158.068 190.531  0.00  0.00    +0.206 C 
ATOM    112  O   UNL     1     152.015 158.679 191.586  0.00  0.00    -0.279 OA
ATOM    113  H   UNL     1     152.301 157.040 190.462  0.00  0.00    +0.126 HD
BRANCH 110 114
ATOM    114  C   UNL     1     151.274 157.519 188.230  0.00  0.00    +0.007 C 
ATOM    115  H   UNL     1     151.295 158.018 187.258  0.00  0.00    +0.043 HD
ATOM    116  H   UNL     1     152.144 156.858 188.300  0.00  0.00    +0.043 HD
ATOM    117  H   UNL     1     150.360 156.924 188.301  0.00  0.00    +0.043 HD
ENDBRANCH 110 114
ENDBRANCH 107 110
ENDBRANCH 100 106
ENDBRANCH  98 100
BRANCH  98 118
ATOM    118  O   UNL     1     147.205 160.293 189.399  0.00  0.00    -0.461 OA
BRANCH 118 119
ATOM    119  C   UNL     1     145.846 160.247 189.455  0.00  0.00    +0.304 C 
ATOM    120  O   UNL     1     145.081 161.136 189.103  0.00  0.00    -0.251 OA
BRANCH 119 121
ATOM    121  C   UNL     1     145.393 158.952 190.052  0.00  0.00    +0.033 C 
ATOM    122  H   UNL     1     146.081 158.646 190.844  0.00  0.00    +0.034 HD
ATOM    123  H   UNL     1     144.396 159.080 190.482  0.00  0.00    +0.034 HD
ATOM    124  H   UNL     1     145.330 158.183 189.275  0.00  0.00    +0.034 HD
ENDBRANCH 119 121
ENDBRANCH 118 119
ENDBRANCH  98 118
ENDBRANCH  92  98
ENDBRANCH  90  92
BRANCH  90 125
ATOM    125  O   UNL     1     149.112 164.194 191.679  0.00  0.00    -0.459 OA
BRANCH 125 126
ATOM    126  C   UNL     1     150.395 164.404 192.109  0.00  0.00    +0.339 C 
ATOM    127  O   UNL     1     151.404 164.140 191.466  0.00  0.00    -0.248 OA
BRANCH 126 128
ATOM    128  C   UNL     1     150.383 165.101 193.476  0.00  0.00    +0.178 C 
ATOM    129  H   UNL     1     151.253 165.772 193.515  0.00  0.00    +0.074 HD
BRANCH 128 130
ATOM    130  C   UNL     1     149.115 165.964 193.567  0.00  0.00    +0.084 C 
ATOM    131  H   UNL     1     148.611 165.957 192.595  0.00  0.00    +0.059 HD
ATOM    132  H   UNL     1     149.372 167.007 193.786  0.00  0.00    +0.059 HD
BRANCH 130 133
ATOM    133  O   UNL     1     148.139 165.531 194.521  0.00  0.00    -0.380 OA
BRANCH 133 134
ATOM    134  C   UNL     1     146.798 165.821 194.147  0.00  0.00    +0.037 C 
ATOM    135  H   UNL     1     146.747 166.221 193.130  0.00  0.00    +0.052 HD
ATOM    136  H   UNL     1     146.227 164.889 194.178  0.00  0.00    +0.052 HD
ATOM    137  H   UNL     1     146.338 166.512 194.860  0.00  0.00    +0.052 HD
ENDBRANCH 133 134
ENDBRANCH 130 133
ENDBRANCH 128 130
BRANCH 128 138
ATOM    138  O   UNL     1     150.449 164.265 194.634  0.00  0.00    -0.366 OA
BRANCH 138 139
ATOM    139  C   UNL     1     151.425 164.692 195.575  0.00  0.00    +0.038 C 
ATOM    140  H   UNL     1     151.737 163.821 196.154  0.00  0.00    +0.052 HD
ATOM    141  H   UNL     1     152.300 165.101 195.065  0.00  0.00    +0.052 HD
ATOM    142  H   UNL     1     151.014 165.434 196.266  0.00  0.00    +0.052 HD
ENDBRANCH 138 139
ENDBRANCH 128 138
ENDBRANCH 126 128
ENDBRANCH 125 126
ENDBRANCH  90 125
ENDBRANCH  87  90
ENDBRANCH  84  87
ENDBRANCH  78  84
ENDBRANCH  76  78
BRANCH  76 143
ATOM    143  O   UNL     1     144.302 166.060 190.909  0.00  0.00    -0.379 OA
BRANCH 143 144
ATOM    144  C   UNL     1     144.733 167.307 191.442  0.00  0.00    +0.037 C 
ATOM    145  H   UNL     1     143.880 167.991 191.443  0.00  0.00    +0.052 HD
ATOM    146  H   UNL     1     145.531 167.737 190.834  0.00  0.00    +0.052 HD
ATOM    147  H   UNL     1     145.075 167.175 192.473  0.00  0.00    +0.052 HD
ENDBRANCH 143 144
ENDBRANCH  76 143
ENDBRANCH   1  76
TORSDOF 35
ENDMDL
MODEL 9
REMARK VINA RESULT:      -5.0      2.873      9.813
REMARK  Name = Mycalolide B_conf2
REMARK  35 active torsions:
REMARK  status: ('A' for Active; 'I' for Inactive)
REMARK    1  A    between atoms: C_1  and  C_2
REMARK    2  A    between atoms: C_3  and  O_72
REMARK    3  A    between atoms: C_22  and  O_70
REMARK    4  A    between atoms: C_23  and  C_69
REMARK    5  A    between atoms: C_29  and  O_68
REMARK    6  A    between atoms: C_34  and  C_35
REMARK    7  A    between atoms: C_35  and  C_36
REMARK    8  A    between atoms: C_36  and  C_37
REMARK    9  A    between atoms: C_36  and  O_66
REMARK   10  A    between atoms: C_37  and  C_38
REMARK   11  A    between atoms: C_37  and  C_39
REMARK   12  A    between atoms: C_39  and  C_40
REMARK   13  A    between atoms: C_40  and  C_41
REMARK   14  A    between atoms: C_41  and  C_42
REMARK   15  A    between atoms: C_41  and  O_57
REMARK   16  A    between atoms: C_42  and  C_43
REMARK   17  A    between atoms: C_42  and  C_44
REMARK   18  A    between atoms: C_44  and  C_45
REMARK   19  A    between atoms: C_44  and  O_53
REMARK   20  A    between atoms: C_45  and  C_46
REMARK   21  A    between atoms: C_45  and  C_47
REMARK   22  A    between atoms: C_48  and  N_49
REMARK   23  A    between atoms: N_49  and  C_50
REMARK   24  A    between atoms: O_53  and  C_54
REMARK   25  A    between atoms: C_54  and  C_56
REMARK   26  A    between atoms: O_57  and  C_58
REMARK   27  A    between atoms: C_58  and  C_60
REMARK   28  A    between atoms: C_60  and  C_61
REMARK   29  A    between atoms: C_60  and  O_64
REMARK   30  A    between atoms: C_61  and  O_62
REMARK   31  A    between atoms: O_62  and  C_63
REMARK   32  A    between atoms: O_64  and  C_65
REMARK   33  A    between atoms: O_66  and  C_67
REMARK   34  A    between atoms: O_70  and  C_71
REMARK   35  A    between atoms: O_72  and  C_73
REMARK                            x       y       z     vdW  Elec       q    Type
REMARK                         _______ _______ _______ _____ _____    ______ ____
ROOT
ATOM      1  C   UNL     1     148.714 166.411 188.748  0.00  0.00    +0.011 C 
ATOM      2  H   UNL     1     148.307 167.200 189.388  0.00  0.00    +0.033 HD
ATOM      3  H   UNL     1     149.796 166.482 188.856  0.00  0.00    +0.033 HD
ENDROOT
BRANCH   1  36
ATOM      4  C   UNL     1     149.223 163.919 189.455  0.00  0.00    +0.020 C 
ATOM      5  C   UNL     1     150.516 164.177 190.287  0.00  0.00    +0.068 C 
ATOM      6  C   UNL     1     150.351 164.744 191.723  0.00  0.00    -0.008 C 
ATOM      7  C   UNL     1     150.135 166.227 191.830  0.00  0.00    -0.077 C 
ATOM      8  C   UNL     1     151.127 167.121 191.990  0.00  0.00    -0.003 C 
ATOM      9  C   UNL     1     150.858 168.517 191.968  0.00  0.00    +0.220 A 
ATOM     10  N   UNL     1     149.671 169.096 191.840  0.00  0.00    -0.205 NA
ATOM     11  C   UNL     1     149.930 170.443 191.797  0.00  0.00    +0.164 A 
ATOM     12  C   UNL     1     151.271 170.661 191.925  0.00  0.00    +0.125 A 
ATOM     13  O   UNL     1     151.878 169.451 192.061  0.00  0.00    -0.443 OA
ATOM     14  C   UNL     1     148.862 171.561 191.609  0.00  0.00    +0.250 A 
ATOM     15  N   UNL     1     147.567 171.325 191.488  0.00  0.00    -0.203 NA
ATOM     16  C   UNL     1     147.013 172.571 191.328  0.00  0.00    +0.164 A 
ATOM     17  C   UNL     1     147.995 173.526 191.353  0.00  0.00    +0.125 A 
ATOM     18  O   UNL     1     149.187 172.897 191.538  0.00  0.00    -0.442 OA
ATOM     19  C   UNL     1     145.494 172.871 191.145  0.00  0.00    +0.249 A 
ATOM     20  N   UNL     1     144.559 171.935 191.140  0.00  0.00    -0.210 NA
ATOM     21  C   UNL     1     143.381 172.626 190.974  0.00  0.00    +0.109 A 
ATOM     22  C   UNL     1     143.651 173.971 190.877  0.00  0.00    +0.118 A 
ATOM     23  O   UNL     1     144.995 174.143 190.979  0.00  0.00    -0.442 OA
ATOM     24  C   UNL     1     142.070 171.909 190.925  0.00  0.00    +0.113 C 
ATOM     25  C   UNL     1     141.676 171.409 189.514  0.00  0.00    +0.051 C 
ATOM     26  C   UNL     1     141.443 169.903 189.597  0.00  0.00    +0.161 C 
ATOM     27  O   UNL     1     140.300 169.441 189.589  0.00  0.00    -0.292 OA
ATOM     28  C   UNL     1     142.621 168.998 189.737  0.00  0.00    -0.023 C 
ATOM     29  C   UNL     1     142.455 167.734 190.167  0.00  0.00    -0.078 C 
ATOM     30  C   UNL     1     143.556 166.721 190.324  0.00  0.00    -0.008 C 
ATOM     31  C   UNL     1     144.742 167.166 191.205  0.00  0.00    +0.069 C 
ATOM     32  C   UNL     1     145.589 165.989 191.695  0.00  0.00    +0.071 C 
ATOM     33  C   UNL     1     146.169 165.198 190.548  0.00  0.00    +0.310 C 
ATOM     34  O   UNL     1     145.510 164.541 189.755  0.00  0.00    -0.251 OA
ATOM     35  O   UNL     1     147.522 165.343 190.519  0.00  0.00    -0.461 OA
ATOM     36  C   UNL     1     148.192 165.061 189.267  0.00  0.00    +0.110 C 
ATOM     37  H   UNL     1     149.544 163.655 188.441  0.00  0.00    +0.036 HD
ATOM     38  H   UNL     1     151.000 163.200 190.430  0.00  0.00    +0.060 HD
ATOM     39  H   UNL     1     151.271 164.506 192.273  0.00  0.00    +0.033 HD
ATOM     40  H   UNL     1     149.548 164.220 192.256  0.00  0.00    +0.033 HD
ATOM     41  H   UNL     1     149.114 166.591 191.735  0.00  0.00    +0.057 HD
ATOM     42  H   UNL     1     152.161 166.806 192.061  0.00  0.00    +0.067 HD
ATOM     43  H   UNL     1     151.911 171.533 191.968  0.00  0.00    +0.105 HD
ATOM     44  H   UNL     1     148.017 174.602 191.265  0.00  0.00    +0.105 HD
ATOM     45  H   UNL     1     143.052 174.860 190.749  0.00  0.00    +0.105 HD
ATOM     46  H   UNL     1     142.151 171.048 191.606  0.00  0.00    +0.067 HD
ATOM     47  H   UNL     1     140.697 171.830 189.249  0.00  0.00    +0.041 HD
ATOM     48  H   UNL     1     143.607 169.387 189.496  0.00  0.00    +0.065 HD
ATOM     49  H   UNL     1     141.446 167.386 190.411  0.00  0.00    +0.057 HD
ATOM     50  H   UNL     1     143.104 165.825 190.765  0.00  0.00    +0.033 HD
ATOM     51  H   UNL     1     143.898 166.458 189.316  0.00  0.00    +0.033 HD
ATOM     52  H   UNL     1     144.354 167.698 192.083  0.00  0.00    +0.060 HD
ATOM     53  H   UNL     1     145.000 165.303 192.311  0.00  0.00    +0.040 HD
ATOM     54  H   UNL     1     146.408 166.360 192.325  0.00  0.00    +0.040 HD
ATOM     55  H   UNL     1     147.454 164.688 188.542  0.00  0.00    +0.074 HD
BRANCH   4  56
ATOM     56  C   UNL     1     148.504 162.674 190.006  0.00  0.00    -0.057 C 
ATOM     57  H   UNL     1     149.229 161.933 190.360  0.00  0.00    +0.023 HD
ATOM     58  H   UNL     1     147.910 162.194 189.223  0.00  0.00    +0.023 HD
ATOM     59  H   UNL     1     147.837 162.915 190.837  0.00  0.00    +0.023 HD
ENDBRANCH   4  56
BRANCH  25  60
ATOM     60  C   UNL     1     142.606 171.757 188.353  0.00  0.00    -0.053 C 
ATOM     61  H   UNL     1     143.561 171.232 188.450  0.00  0.00    +0.024 HD
ATOM     62  H   UNL     1     142.181 171.508 187.376  0.00  0.00    +0.024 HD
ATOM     63  H   UNL     1     142.823 172.829 188.335  0.00  0.00    +0.024 HD
ENDBRANCH  25  60
BRANCH  31  64
ATOM     64  O   UNL     1     145.564 168.085 190.479  0.00  0.00    -0.391 OA
ATOM     65  H   UNL     1     144.984 168.626 189.906  0.00  0.00    +0.210 HD
ENDBRANCH  31  64
BRANCH  24  66
ATOM     66  O   UNL     1     140.993 172.742 191.413  0.00  0.00    -0.373 OA
BRANCH  66  67
ATOM     67  C   UNL     1     140.981 172.839 192.836  0.00  0.00    +0.037 C 
ATOM     68  H   UNL     1     140.723 171.875 193.290  0.00  0.00    +0.052 HD
ATOM     69  H   UNL     1     141.981 173.132 193.176  0.00  0.00    +0.052 HD
ATOM     70  H   UNL     1     140.267 173.610 193.157  0.00  0.00    +0.052 HD
ENDBRANCH  66  67
ENDBRANCH  24  66
BRANCH   5  71
ATOM     71  O   UNL     1     151.468 165.003 189.595  0.00  0.00    -0.379 OA
BRANCH  71  72
ATOM     72  C   UNL     1     152.805 164.528 189.639  0.00  0.00    +0.037 C 
ATOM     73  H   UNL     1     153.028 163.944 188.742  0.00  0.00    +0.052 HD
ATOM     74  H   UNL     1     152.903 163.873 190.510  0.00  0.00    +0.052 HD
ATOM     75  H   UNL     1     153.525 165.342 189.746  0.00  0.00    +0.052 HD
ENDBRANCH  71  72
ENDBRANCH   5  71
ENDBRANCH   1  36
BRANCH   1  76
ATOM     76  C   UNL     1     148.342 166.690 187.279  0.00  0.00    +0.064 C 
ATOM     77  H   UNL     1     147.674 165.900 186.912  0.00  0.00    +0.060 HD
BRANCH  76  78
ATOM     78  C   UNL     1     147.592 168.058 187.179  0.00  0.00    -0.017 C 
ATOM     79  H   UNL     1     147.825 168.639 188.086  0.00  0.00    +0.032 HD
BRANCH  78  80
ATOM     80  C   UNL     1     148.057 168.913 185.998  0.00  0.00    -0.060 C 
ATOM     81  H   UNL     1     148.037 168.339 185.067  0.00  0.00    +0.023 HD
ATOM     82  H   UNL     1     149.072 169.291 186.151  0.00  0.00    +0.023 HD
ATOM     83  H   UNL     1     147.393 169.769 185.839  0.00  0.00    +0.023 HD
ENDBRANCH  78  80
BRANCH  78  84
ATOM     84  C   UNL     1     146.063 167.786 187.144  0.00  0.00    -0.045 C 
ATOM     85  H   UNL     1     145.833 167.114 186.313  0.00  0.00    +0.027 HD
ATOM     86  H   UNL     1     145.795 167.221 188.045  0.00  0.00    +0.027 HD
BRANCH  84  87
ATOM     87  C   UNL     1     145.158 169.025 187.129  0.00  0.00    -0.015 C 
ATOM     88  H   UNL     1     144.548 168.962 188.040  0.00  0.00    +0.030 HD
ATOM     89  H   UNL     1     145.769 169.931 187.214  0.00  0.00    +0.030 HD
BRANCH  87  90
ATOM     90  C   UNL     1     144.199 169.128 185.923  0.00  0.00    +0.109 C 
ATOM     91  H   UNL     1     143.279 169.599 186.273  0.00  0.00    +0.074 HD
BRANCH  90  92
ATOM     92  C   UNL     1     143.842 167.719 185.360  0.00  0.00    +0.031 C 
ATOM     93  H   UNL     1     144.627 167.030 185.701  0.00  0.00    +0.037 HD
BRANCH  92  94
ATOM     94  C   UNL     1     143.871 167.683 183.820  0.00  0.00    -0.056 C 
ATOM     95  H   UNL     1     144.045 168.678 183.398  0.00  0.00    +0.023 HD
ATOM     96  H   UNL     1     142.936 167.301 183.402  0.00  0.00    +0.023 HD
ATOM     97  H   UNL     1     144.686 167.044 183.466  0.00  0.00    +0.023 HD
ENDBRANCH  92  94
BRANCH  92  98
ATOM     98  C   UNL     1     142.481 167.142 185.874  0.00  0.00    +0.115 C 
ATOM     99  H   UNL     1     141.986 166.692 185.003  0.00  0.00    +0.074 HD
BRANCH  98 100
ATOM    100  C   UNL     1     142.599 166.046 186.968  0.00  0.00    +0.013 C 
ATOM    101  H   UNL     1     143.038 166.491 187.867  0.00  0.00    +0.038 HD
BRANCH 100 102
ATOM    102  C   UNL     1     143.478 164.866 186.542  0.00  0.00    -0.056 C 
ATOM    103  H   UNL     1     142.920 164.132 185.956  0.00  0.00    +0.024 HD
ATOM    104  H   UNL     1     144.312 165.210 185.922  0.00  0.00    +0.024 HD
ATOM    105  H   UNL     1     143.896 164.344 187.410  0.00  0.00    +0.024 HD
ENDBRANCH 100 102
BRANCH 100 106
ATOM    106  C   UNL     1     141.228 165.509 187.348  0.00  0.00    -0.064 C 
ATOM    107  C   UNL     1     140.573 164.594 186.617  0.00  0.00    -0.005 C 
ATOM    108  H   UNL     1     140.807 165.896 188.270  0.00  0.00    +0.059 HD
ATOM    109  H   UNL     1     141.056 164.209 185.718  0.00  0.00    +0.078 HD
BRANCH 107 110
ATOM    110  N   UNL     1     139.327 164.046 186.879  0.00  0.00    -0.284 N 
ATOM    111  C   UNL     1     139.096 162.878 187.606  0.00  0.00    +0.206 C 
ATOM    112  O   UNL     1     139.901 162.134 188.149  0.00  0.00    -0.279 OA
ATOM    113  H   UNL     1     138.020 162.653 187.682  0.00  0.00    +0.126 HD
BRANCH 110 114
ATOM    114  C   UNL     1     138.171 164.786 186.382  0.00  0.00    +0.007 C 
ATOM    115  H   UNL     1     138.408 165.838 186.201  0.00  0.00    +0.043 HD
ATOM    116  H   UNL     1     137.844 164.337 185.439  0.00  0.00    +0.043 HD
ATOM    117  H   UNL     1     137.360 164.729 187.112  0.00  0.00    +0.043 HD
ENDBRANCH 110 114
ENDBRANCH 107 110
ENDBRANCH 100 106
ENDBRANCH  98 100
BRANCH  98 118
ATOM    118  O   UNL     1     141.682 168.220 186.414  0.00  0.00    -0.461 OA
BRANCH 118 119
ATOM    119  C   UNL     1     140.594 168.593 185.687  0.00  0.00    +0.304 C 
ATOM    120  O   UNL     1     139.958 167.877 184.924  0.00  0.00    -0.251 OA
BRANCH 119 121
ATOM    121  C   UNL     1     140.286 170.039 185.917  0.00  0.00    +0.033 C 
ATOM    122  H   UNL     1     140.453 170.606 184.998  0.00  0.00    +0.034 HD
ATOM    123  H   UNL     1     139.238 170.144 186.209  0.00  0.00    +0.034 HD
ATOM    124  H   UNL     1     140.905 170.429 186.731  0.00  0.00    +0.034 HD
ENDBRANCH 119 121
ENDBRANCH 118 119
ENDBRANCH  98 118
ENDBRANCH  92  98
ENDBRANCH  90  92
BRANCH  90 125
ATOM    125  O   UNL     1     144.822 169.920 184.888  0.00  0.00    -0.459 OA
BRANCH 125 126
ATOM    126  C   UNL     1     144.486 171.246 184.830  0.00  0.00    +0.339 C 
ATOM    127  O   UNL     1     143.349 171.688 184.939  0.00  0.00    -0.248 OA
BRANCH 126 128
ATOM    128  C   UNL     1     145.752 172.103 184.698  0.00  0.00    +0.178 C 
ATOM    129  H   UNL     1     145.466 173.044 184.207  0.00  0.00    +0.074 HD
BRANCH 128 130
ATOM    130  C   UNL     1     146.255 172.440 186.110  0.00  0.00    +0.084 C 
ATOM    131  H   UNL     1     147.333 172.249 186.158  0.00  0.00    +0.059 HD
ATOM    132  H   UNL     1     145.783 171.790 186.854  0.00  0.00    +0.059 HD
BRANCH 130 133
ATOM    133  O   UNL     1     146.077 173.800 186.523  0.00  0.00    -0.380 OA
BRANCH 133 134
ATOM    134  C   UNL     1     146.134 174.740 185.457  0.00  0.00    +0.037 C 
ATOM    135  H   UNL     1     145.864 175.743 185.797  0.00  0.00    +0.052 HD
ATOM    136  H   UNL     1     147.163 174.768 185.084  0.00  0.00    +0.052 HD
ATOM    137  H   UNL     1     145.493 174.424 184.628  0.00  0.00    +0.052 HD
ENDBRANCH 133 134
ENDBRANCH 130 133
ENDBRANCH 128 130
BRANCH 128 138
ATOM    138  O   UNL     1     146.836 171.552 183.947  0.00  0.00    -0.366 OA
BRANCH 138 139
ATOM    139  C   UNL     1     147.069 172.232 182.722  0.00  0.00    +0.038 C 
ATOM    140  H   UNL     1     148.107 172.060 182.433  0.00  0.00    +0.052 HD
ATOM    141  H   UNL     1     146.422 171.841 181.934  0.00  0.00    +0.052 HD
ATOM    142  H   UNL     1     146.917 173.310 182.829  0.00  0.00    +0.052 HD
ENDBRANCH 138 139
ENDBRANCH 128 138
ENDBRANCH 126 128
ENDBRANCH 125 126
ENDBRANCH  90 125
ENDBRANCH  87  90
ENDBRANCH  84  87
ENDBRANCH  78  84
ENDBRANCH  76  78
BRANCH  76 143
ATOM    143  O   UNL     1     149.561 166.693 186.524  0.00  0.00    -0.379 OA
BRANCH 143 144
ATOM    144  C   UNL     1     150.690 167.059 187.309  0.00  0.00    +0.037 C 
ATOM    145  H   UNL     1     150.694 168.148 187.413  0.00  0.00    +0.052 HD
ATOM    146  H   UNL     1     151.618 166.746 186.829  0.00  0.00    +0.052 HD
ATOM    147  H   UNL     1     150.614 166.614 188.306  0.00  0.00    +0.052 HD
ENDBRANCH 143 144
ENDBRANCH  76 143
ENDBRANCH   1  76
TORSDOF 35
ENDMDL
MODEL 10
REMARK VINA RESULT:      -5.0     16.890     22.919
REMARK  Name = Mycalolide B_conf2
REMARK  35 active torsions:
REMARK  status: ('A' for Active; 'I' for Inactive)
REMARK    1  A    between atoms: C_1  and  C_2
REMARK    2  A    between atoms: C_3  and  O_72
REMARK    3  A    between atoms: C_22  and  O_70
REMARK    4  A    between atoms: C_23  and  C_69
REMARK    5  A    between atoms: C_29  and  O_68
REMARK    6  A    between atoms: C_34  and  C_35
REMARK    7  A    between atoms: C_35  and  C_36
REMARK    8  A    between atoms: C_36  and  C_37
REMARK    9  A    between atoms: C_36  and  O_66
REMARK   10  A    between atoms: C_37  and  C_38
REMARK   11  A    between atoms: C_37  and  C_39
REMARK   12  A    between atoms: C_39  and  C_40
REMARK   13  A    between atoms: C_40  and  C_41
REMARK   14  A    between atoms: C_41  and  C_42
REMARK   15  A    between atoms: C_41  and  O_57
REMARK   16  A    between atoms: C_42  and  C_43
REMARK   17  A    between atoms: C_42  and  C_44
REMARK   18  A    between atoms: C_44  and  C_45
REMARK   19  A    between atoms: C_44  and  O_53
REMARK   20  A    between atoms: C_45  and  C_46
REMARK   21  A    between atoms: C_45  and  C_47
REMARK   22  A    between atoms: C_48  and  N_49
REMARK   23  A    between atoms: N_49  and  C_50
REMARK   24  A    between atoms: O_53  and  C_54
REMARK   25  A    between atoms: C_54  and  C_56
REMARK   26  A    between atoms: O_57  and  C_58
REMARK   27  A    between atoms: C_58  and  C_60
REMARK   28  A    between atoms: C_60  and  C_61
REMARK   29  A    between atoms: C_60  and  O_64
REMARK   30  A    between atoms: C_61  and  O_62
REMARK   31  A    between atoms: O_62  and  C_63
REMARK   32  A    between atoms: O_64  and  C_65
REMARK   33  A    between atoms: O_66  and  C_67
REMARK   34  A    between atoms: O_70  and  C_71
REMARK   35  A    between atoms: O_72  and  C_73
REMARK                            x       y       z     vdW  Elec       q    Type
REMARK                         _______ _______ _______ _____ _____    ______ ____
ROOT
ATOM      1  C   UNL     1     135.443 154.289 198.185  0.00  0.00    +0.011 C 
ATOM      2  H   UNL     1     135.135 153.515 198.895  0.00  0.00    +0.033 HD
ATOM      3  H   UNL     1     136.383 153.934 197.761  0.00  0.00    +0.033 HD
ENDROOT
BRANCH   1  36
ATOM      4  C   UNL     1     134.812 154.367 195.622  0.00  0.00    +0.020 C 
ATOM      5  C   UNL     1     135.729 153.209 195.125  0.00  0.00    +0.068 C 
ATOM      6  C   UNL     1     135.259 151.752 195.384  0.00  0.00    -0.008 C 
ATOM      7  C   UNL     1     135.523 151.204 196.758  0.00  0.00    -0.077 C 
ATOM      8  C   UNL     1     136.627 150.515 197.093  0.00  0.00    -0.003 C 
ATOM      9  C   UNL     1     136.862 150.126 198.440  0.00  0.00    +0.220 A 
ATOM     10  N   UNL     1     136.062 150.335 199.478  0.00  0.00    -0.205 NA
ATOM     11  C   UNL     1     136.749 149.855 200.564  0.00  0.00    +0.164 A 
ATOM     12  C   UNL     1     137.947 149.338 200.164  0.00  0.00    +0.125 A 
ATOM     13  O   UNL     1     138.028 149.477 198.813  0.00  0.00    -0.443 OA
ATOM     14  C   UNL     1     136.252 149.906 202.040  0.00  0.00    +0.250 A 
ATOM     15  N   UNL     1     135.087 150.411 202.405  0.00  0.00    -0.203 NA
ATOM     16  C   UNL     1     135.072 150.269 203.770  0.00  0.00    +0.164 A 
ATOM     17  C   UNL     1     136.236 149.683 204.192  0.00  0.00    +0.125 A 
ATOM     18  O   UNL     1     137.003 149.438 203.095  0.00  0.00    -0.442 OA
ATOM     19  C   UNL     1     133.910 150.702 204.714  0.00  0.00    +0.249 A 
ATOM     20  N   UNL     1     132.785 151.252 204.285  0.00  0.00    -0.210 NA
ATOM     21  C   UNL     1     132.043 151.455 205.427  0.00  0.00    +0.109 A 
ATOM     22  C   UNL     1     132.759 151.022 206.517  0.00  0.00    +0.118 A 
ATOM     23  O   UNL     1     133.954 150.544 206.080  0.00  0.00    -0.442 OA
ATOM     24  C   UNL     1     130.679 152.062 205.358  0.00  0.00    +0.113 C 
ATOM     25  C   UNL     1     130.674 153.609 205.388  0.00  0.00    +0.051 C 
ATOM     26  C   UNL     1     129.943 154.102 204.142  0.00  0.00    +0.161 C 
ATOM     27  O   UNL     1     128.795 154.544 204.219  0.00  0.00    -0.292 OA
ATOM     28  C   UNL     1     130.623 153.995 202.818  0.00  0.00    -0.023 C 
ATOM     29  C   UNL     1     129.906 154.074 201.682  0.00  0.00    -0.078 C 
ATOM     30  C   UNL     1     130.477 154.006 200.292  0.00  0.00    -0.008 C 
ATOM     31  C   UNL     1     131.345 152.766 199.994  0.00  0.00    +0.069 C 
ATOM     32  C   UNL     1     131.521 152.514 198.494  0.00  0.00    +0.071 C 
ATOM     33  C   UNL     1     132.176 153.683 197.801  0.00  0.00    +0.310 C 
ATOM     34  O   UNL     1     131.666 154.787 197.671  0.00  0.00    -0.251 OA
ATOM     35  O   UNL     1     133.416 153.331 197.364  0.00  0.00    -0.461 OA
ATOM     36  C   UNL     1     134.355 154.402 197.103  0.00  0.00    +0.110 C 
ATOM     37  H   UNL     1     135.367 155.300 195.474  0.00  0.00    +0.036 HD
ATOM     38  H   UNL     1     135.778 153.293 194.029  0.00  0.00    +0.060 HD
ATOM     39  H   UNL     1     135.787 151.109 194.667  0.00  0.00    +0.033 HD
ATOM     40  H   UNL     1     134.194 151.640 195.146  0.00  0.00    +0.033 HD
ATOM     41  H   UNL     1     134.785 151.416 197.529  0.00  0.00    +0.057 HD
ATOM     42  H   UNL     1     137.401 150.306 196.364  0.00  0.00    +0.067 HD
ATOM     43  H   UNL     1     138.779 148.847 200.653  0.00  0.00    +0.105 HD
ATOM     44  H   UNL     1     136.642 149.393 205.149  0.00  0.00    +0.105 HD
ATOM     45  H   UNL     1     132.575 150.983 207.581  0.00  0.00    +0.105 HD
ATOM     46  H   UNL     1     130.222 151.716 204.418  0.00  0.00    +0.067 HD
ATOM     47  H   UNL     1     130.052 153.946 206.229  0.00  0.00    +0.041 HD
ATOM     48  H   UNL     1     131.698 153.842 202.797  0.00  0.00    +0.065 HD
ATOM     49  H   UNL     1     128.823 154.215 201.748  0.00  0.00    +0.057 HD
ATOM     50  H   UNL     1     129.628 154.019 199.599  0.00  0.00    +0.033 HD
ATOM     51  H   UNL     1     131.049 154.928 200.133  0.00  0.00    +0.033 HD
ATOM     52  H   UNL     1     130.869 151.882 200.436  0.00  0.00    +0.060 HD
ATOM     53  H   UNL     1     130.559 152.330 198.005  0.00  0.00    +0.040 HD
ATOM     54  H   UNL     1     132.134 151.616 198.340  0.00  0.00    +0.040 HD
ATOM     55  H   UNL     1     133.846 155.367 197.243  0.00  0.00    +0.074 HD
BRANCH   4  56
ATOM     56  C   UNL     1     133.575 154.464 194.710  0.00  0.00    -0.057 C 
ATOM     57  H   UNL     1     132.656 154.506 195.305  0.00  0.00    +0.023 HD
ATOM     58  H   UNL     1     133.501 153.583 194.065  0.00  0.00    +0.023 HD
ATOM     59  H   UNL     1     133.602 155.349 194.070  0.00  0.00    +0.023 HD
ENDBRANCH   4  56
BRANCH  25  60
ATOM     60  C   UNL     1     132.016 154.321 205.553  0.00  0.00    -0.053 C 
ATOM     61  H   UNL     1     132.450 154.107 206.534  0.00  0.00    +0.024 HD
ATOM     62  H   UNL     1     132.747 154.037 204.791  0.00  0.00    +0.024 HD
ATOM     63  H   UNL     1     131.894 155.406 205.480  0.00  0.00    +0.024 HD
ENDBRANCH  25  60
BRANCH  31  64
ATOM     64  O   UNL     1     132.626 152.914 200.613  0.00  0.00    -0.391 OA
ATOM     65  H   UNL     1     132.677 153.813 200.997  0.00  0.00    +0.210 HD
ENDBRANCH  31  64
BRANCH  24  66
ATOM     66  O   UNL     1     129.840 151.598 206.440  0.00  0.00    -0.373 OA
BRANCH  66  67
ATOM     67  C   UNL     1     128.536 151.227 205.997  0.00  0.00    +0.037 C 
ATOM     68  H   UNL     1     127.779 151.494 206.743  0.00  0.00    +0.052 HD
ATOM     69  H   UNL     1     128.317 151.762 205.066  0.00  0.00    +0.052 HD
ATOM     70  H   UNL     1     128.499 150.148 205.793  0.00  0.00    +0.052 HD
ENDBRANCH  66  67
ENDBRANCH  24  66
BRANCH   5  71
ATOM     71  O   UNL     1     137.081 153.326 195.600  0.00  0.00    -0.379 OA
BRANCH  71  72
ATOM     72  C   UNL     1     137.859 154.307 194.933  0.00  0.00    +0.037 C 
ATOM     73  H   UNL     1     137.785 155.266 195.452  0.00  0.00    +0.052 HD
ATOM     74  H   UNL     1     137.455 154.430 193.923  0.00  0.00    +0.052 HD
ATOM     75  H   UNL     1     138.906 154.008 194.844  0.00  0.00    +0.052 HD
ENDBRANCH  71  72
ENDBRANCH   5  71
ENDBRANCH   1  36
BRANCH   1  76
ATOM     76  C   UNL     1     135.703 155.609 198.934  0.00  0.00    +0.064 C 
ATOM     77  H   UNL     1     136.409 156.225 198.362  0.00  0.00    +0.060 HD
BRANCH  76  78
ATOM     78  C   UNL     1     134.363 156.400 199.084  0.00  0.00    -0.017 C 
ATOM     79  H   UNL     1     133.558 155.787 198.649  0.00  0.00    +0.032 HD
BRANCH  78  80
ATOM     80  C   UNL     1     133.969 156.644 200.542  0.00  0.00    -0.060 C 
ATOM     81  H   UNL     1     134.647 156.121 201.224  0.00  0.00    +0.023 HD
ATOM     82  H   UNL     1     132.948 156.309 200.744  0.00  0.00    +0.023 HD
ATOM     83  H   UNL     1     134.041 157.705 200.803  0.00  0.00    +0.023 HD
ENDBRANCH  78  80
BRANCH  78  84
ATOM     84  C   UNL     1     134.472 157.721 198.274  0.00  0.00    -0.045 C 
ATOM     85  H   UNL     1     134.390 158.572 198.955  0.00  0.00    +0.027 HD
ATOM     86  H   UNL     1     135.487 157.787 197.863  0.00  0.00    +0.027 HD
BRANCH  84  87
ATOM     87  C   UNL     1     133.516 157.862 197.083  0.00  0.00    -0.015 C 
ATOM     88  H   UNL     1     134.149 157.845 196.186  0.00  0.00    +0.030 HD
ATOM     89  H   UNL     1     132.859 156.987 197.029  0.00  0.00    +0.030 HD
BRANCH  87  90
ATOM     90  C   UNL     1     132.687 159.166 197.052  0.00  0.00    +0.109 C 
ATOM     91  H   UNL     1     133.278 159.918 196.527  0.00  0.00    +0.074 HD
BRANCH  90  92
ATOM     92  C   UNL     1     132.399 159.690 198.492  0.00  0.00    +0.031 C 
ATOM     93  H   UNL     1     133.125 159.206 199.160  0.00  0.00    +0.037 HD
BRANCH  92  94
ATOM     94  C   UNL     1     131.004 159.274 198.993  0.00  0.00    -0.056 C 
ATOM     95  H   UNL     1     130.272 160.076 198.857  0.00  0.00    +0.023 HD
ATOM     96  H   UNL     1     131.012 159.004 200.053  0.00  0.00    +0.023 HD
ATOM     97  H   UNL     1     130.634 158.412 198.429  0.00  0.00    +0.023 HD
ENDBRANCH  92  94
BRANCH  92  98
ATOM     98  C   UNL     1     132.583 161.233 198.668  0.00  0.00    +0.115 C 
ATOM     99  H   UNL     1     131.686 161.596 199.189  0.00  0.00    +0.074 HD
BRANCH  98 100
ATOM    100  C   UNL     1     133.819 161.660 199.505  0.00  0.00    +0.013 C 
ATOM    101  H   UNL     1     134.633 161.927 198.822  0.00  0.00    +0.038 HD
BRANCH 100 102
ATOM    102  C   UNL     1     134.322 160.554 200.439  0.00  0.00    -0.056 C 
ATOM    103  H   UNL     1     133.505 159.944 200.828  0.00  0.00    +0.024 HD
ATOM    104  H   UNL     1     135.005 159.883 199.907  0.00  0.00    +0.024 HD
ATOM    105  H   UNL     1     134.860 160.970 201.299  0.00  0.00    +0.024 HD
ENDBRANCH 100 102
BRANCH 100 106
ATOM    106  C   UNL     1     133.507 162.890 200.345  0.00  0.00    -0.064 C 
ATOM    107  C   UNL     1     134.013 164.104 200.079  0.00  0.00    -0.005 C 
ATOM    108  H   UNL     1     132.823 162.736 201.173  0.00  0.00    +0.059 HD
ATOM    109  H   UNL     1     134.666 164.213 199.213  0.00  0.00    +0.078 HD
BRANCH 107 110
ATOM    110  N   UNL     1     133.790 165.278 200.782  0.00  0.00    -0.284 N 
ATOM    111  C   UNL     1     134.213 165.530 202.087  0.00  0.00    +0.206 C 
ATOM    112  O   UNL     1     134.847 164.810 202.846  0.00  0.00    -0.279 OA
ATOM    113  H   UNL     1     133.919 166.538 202.422  0.00  0.00    +0.126 HD
BRANCH 110 114
ATOM    114  C   UNL     1     133.091 166.343 200.068  0.00  0.00    +0.007 C 
ATOM    115  H   UNL     1     132.667 167.081 200.753  0.00  0.00    +0.043 HD
ATOM    116  H   UNL     1     133.802 166.850 199.408  0.00  0.00    +0.043 HD
ATOM    117  H   UNL     1     132.284 165.913 199.471  0.00  0.00    +0.043 HD
ENDBRANCH 110 114
ENDBRANCH 107 110
ENDBRANCH 100 106
ENDBRANCH  98 100
BRANCH  98 118
ATOM    118  O   UNL     1     132.699 161.849 197.365  0.00  0.00    -0.461 OA
BRANCH 118 119
ATOM    119  C   UNL     1     131.980 162.987 197.164  0.00  0.00    +0.304 C 
ATOM    120  O   UNL     1     132.352 163.973 196.541  0.00  0.00    -0.251 OA
BRANCH 119 121
ATOM    121  C   UNL     1     130.656 162.893 197.855  0.00  0.00    +0.033 C 
ATOM    122  H   UNL     1     130.729 162.221 198.712  0.00  0.00    +0.034 HD
ATOM    123  H   UNL     1     130.361 163.884 198.209  0.00  0.00    +0.034 HD
ATOM    124  H   UNL     1     129.892 162.544 197.153  0.00  0.00    +0.034 HD
ENDBRANCH 119 121
ENDBRANCH 118 119
ENDBRANCH  98 118
ENDBRANCH  92  98
ENDBRANCH  90  92
BRANCH  90 125
ATOM    125  O   UNL     1     131.441 158.919 196.367  0.00  0.00    -0.459 OA
BRANCH 125 126
ATOM    126  C   UNL     1     131.112 159.767 195.344  0.00  0.00    +0.339 C 
ATOM    127  O   UNL     1     130.050 160.369 195.244  0.00  0.00    -0.248 OA
BRANCH 126 128
ATOM    128  C   UNL     1     132.302 159.923 194.388  0.00  0.00    +0.178 C 
ATOM    129  H   UNL     1     133.164 159.417 194.846  0.00  0.00    +0.074 HD
BRANCH 128 130
ATOM    130  C   UNL     1     131.968 159.196 193.077  0.00  0.00    +0.084 C 
ATOM    131  H   UNL     1     132.180 159.864 192.236  0.00  0.00    +0.059 HD
ATOM    132  H   UNL     1     130.900 158.954 193.031  0.00  0.00    +0.059 HD
BRANCH 130 133
ATOM    133  O   UNL     1     132.711 157.998 192.826  0.00  0.00    -0.380 OA
BRANCH 133 134
ATOM    134  C   UNL     1     134.111 158.206 192.680  0.00  0.00    +0.037 C 
ATOM    135  H   UNL     1     134.464 157.864 191.704  0.00  0.00    +0.052 HD
ATOM    136  H   UNL     1     134.304 159.280 192.759  0.00  0.00    +0.052 HD
ATOM    137  H   UNL     1     134.661 157.714 193.488  0.00  0.00    +0.052 HD
ENDBRANCH 133 134
ENDBRANCH 130 133
ENDBRANCH 128 130
BRANCH 128 138
ATOM    138  O   UNL     1     132.718 161.256 194.078  0.00  0.00    -0.366 OA
BRANCH 138 139
ATOM    139  C   UNL     1     132.329 161.672 192.776  0.00  0.00    +0.038 C 
ATOM    140  H   UNL     1     131.414 161.141 192.512  0.00  0.00    +0.052 HD
ATOM    141  H   UNL     1     132.123 162.745 192.760  0.00  0.00    +0.052 HD
ATOM    142  H   UNL     1     133.094 161.427 192.034  0.00  0.00    +0.052 HD
ENDBRANCH 138 139
ENDBRANCH 128 138
ENDBRANCH 126 128
ENDBRANCH 125 126
ENDBRANCH  90 125
ENDBRANCH  87  90
ENDBRANCH  84  87
ENDBRANCH  78  84
ENDBRANCH  76  78
BRANCH  76 143
ATOM    143  O   UNL     1     136.269 155.271 200.208  0.00  0.00    -0.379 OA
BRANCH 143 144
ATOM    144  C   UNL     1     136.711 153.920 200.270  0.00  0.00    +0.037 C 
ATOM    145  H   UNL     1     135.834 153.271 200.190  0.00  0.00    +0.052 HD
ATOM    146  H   UNL     1     137.217 153.717 201.215  0.00  0.00    +0.052 HD
ATOM    147  H   UNL     1     137.381 153.706 199.431  0.00  0.00    +0.052 HD
ENDBRANCH 143 144
ENDBRANCH  76 143
ENDBRANCH   1  76
TORSDOF 35
ENDMDL
