MODEL 1
REMARK VINA RESULT:      -5.7      0.000      0.000
REMARK  Name = Mycalolide B_conf1
REMARK  35 active torsions:
REMARK  status: ('A' for Active; 'I' for Inactive)
REMARK    1  A    between atoms: C_1  and  C_2
REMARK    2  A    between atoms: C_3  and  O_72
REMARK    3  A    between atoms: C_22  and  O_70
REMARK    4  A    between atoms: C_23  and  C_69
REMARK    5  A    between atoms: C_29  and  O_68
REMARK    6  A    between atoms: C_34  and  C_35
REMARK    7  A    between atoms: C_35  and  C_36
REMARK    8  A    between atoms: C_36  and  C_37
REMARK    9  A    between atoms: C_36  and  O_66
REMARK   10  A    between atoms: C_37  and  C_38
REMARK   11  A    between atoms: C_37  and  C_39
REMARK   12  A    between atoms: C_39  and  C_40
REMARK   13  A    between atoms: C_40  and  C_41
REMARK   14  A    between atoms: C_41  and  C_42
REMARK   15  A    between atoms: C_41  and  O_57
REMARK   16  A    between atoms: C_42  and  C_43
REMARK   17  A    between atoms: C_42  and  C_44
REMARK   18  A    between atoms: C_44  and  C_45
REMARK   19  A    between atoms: C_44  and  O_53
REMARK   20  A    between atoms: C_45  and  C_46
REMARK   21  A    between atoms: C_45  and  C_47
REMARK   22  A    between atoms: C_48  and  N_49
REMARK   23  A    between atoms: N_49  and  C_50
REMARK   24  A    between atoms: O_53  and  C_54
REMARK   25  A    between atoms: C_54  and  C_56
REMARK   26  A    between atoms: O_57  and  C_58
REMARK   27  A    between atoms: C_58  and  C_60
REMARK   28  A    between atoms: C_60  and  C_61
REMARK   29  A    between atoms: C_60  and  O_64
REMARK   30  A    between atoms: C_61  and  O_62
REMARK   31  A    between atoms: O_62  and  C_63
REMARK   32  A    between atoms: O_64  and  C_65
REMARK   33  A    between atoms: O_66  and  C_67
REMARK   34  A    between atoms: O_70  and  C_71
REMARK   35  A    between atoms: O_72  and  C_73
REMARK                            x       y       z     vdW  Elec       q    Type
REMARK                         _______ _______ _______ _____ _____    ______ ____
ROOT
ATOM      1  C   UNL     1     150.690 166.936 190.543  0.00  0.00    +0.011 C 
ATOM      2  H   UNL     1     151.726 167.288 190.458  0.00  0.00    +0.033 HD
ATOM      3  H   UNL     1     150.772 165.861 190.732  0.00  0.00    +0.033 HD
ENDROOT
BRANCH   1  36
ATOM      4  C   UNL     1     150.661 167.310 193.113  0.00  0.00    +0.020 C 
ATOM      5  C   UNL     1     150.026 166.148 193.935  0.00  0.00    +0.068 C 
ATOM      6  C   UNL     1     149.912 164.759 193.248  0.00  0.00    -0.008 C 
ATOM      7  C   UNL     1     148.795 164.626 192.250  0.00  0.00    -0.077 C 
ATOM      8  C   UNL     1     148.719 163.704 191.276  0.00  0.00    -0.003 C 
ATOM      9  C   UNL     1     147.615 163.718 190.376  0.00  0.00    +0.220 A 
ATOM     10  N   UNL     1     146.787 164.735 190.191  0.00  0.00    -0.205 NA
ATOM     11  C   UNL     1     145.880 164.313 189.255  0.00  0.00    +0.164 A 
ATOM     12  C   UNL     1     146.189 163.039 188.865  0.00  0.00    +0.125 A 
ATOM     13  O   UNL     1     147.301 162.650 189.551  0.00  0.00    -0.443 OA
ATOM     14  C   UNL     1     144.689 165.178 188.744  0.00  0.00    +0.250 A 
ATOM     15  N   UNL     1     144.488 166.416 189.153  0.00  0.00    -0.203 NA
ATOM     16  C   UNL     1     143.354 166.818 188.495  0.00  0.00    +0.164 A 
ATOM     17  C   UNL     1     142.897 165.801 187.698  0.00  0.00    +0.125 A 
ATOM     18  O   UNL     1     143.746 164.742 187.840  0.00  0.00    -0.442 OA
ATOM     19  C   UNL     1     142.690 168.222 188.641  0.00  0.00    +0.249 A 
ATOM     20  N   UNL     1     143.185 169.178 189.412  0.00  0.00    -0.210 NA
ATOM     21  C   UNL     1     142.338 170.250 189.238  0.00  0.00    +0.109 A 
ATOM     22  C   UNL     1     141.338 169.890 188.363  0.00  0.00    +0.118 A 
ATOM     23  O   UNL     1     141.546 168.601 187.977  0.00  0.00    -0.442 OA
ATOM     24  C   UNL     1     142.604 171.572 189.897  0.00  0.00    +0.113 C 
ATOM     25  C   UNL     1     144.048 172.043 189.619  0.00  0.00    +0.051 C 
ATOM     26  C   UNL     1     144.250 173.415 190.247  0.00  0.00    +0.161 C 
ATOM     27  O   UNL     1     143.427 174.321 190.117  0.00  0.00    -0.292 OA
ATOM     28  C   UNL     1     145.506 173.716 190.997  0.00  0.00    -0.023 C 
ATOM     29  C   UNL     1     146.674 173.076 190.821  0.00  0.00    -0.078 C 
ATOM     30  C   UNL     1     147.934 173.433 191.564  0.00  0.00    -0.008 C 
ATOM     31  C   UNL     1     148.530 172.256 192.361  0.00  0.00    +0.069 C 
ATOM     32  C   UNL     1     149.234 171.233 191.462  0.00  0.00    +0.071 C 
ATOM     33  C   UNL     1     149.104 169.831 192.009  0.00  0.00    +0.310 C 
ATOM     34  O   UNL     1     148.202 169.443 192.736  0.00  0.00    -0.251 OA
ATOM     35  O   UNL     1     150.094 169.047 191.495  0.00  0.00    -0.461 OA
ATOM     36  C   UNL     1     149.992 167.617 191.738  0.00  0.00    +0.110 C 
ATOM     37  H   UNL     1     150.539 168.218 193.717  0.00  0.00    +0.036 HD
ATOM     38  H   UNL     1     150.661 165.988 194.818  0.00  0.00    +0.060 HD
ATOM     39  H   UNL     1     150.871 164.471 192.807  0.00  0.00    +0.033 HD
ATOM     40  H   UNL     1     149.693 164.031 194.043  0.00  0.00    +0.033 HD
ATOM     41  H   UNL     1     147.969 165.333 192.367  0.00  0.00    +0.057 HD
ATOM     42  H   UNL     1     149.477 162.941 191.149  0.00  0.00    +0.067 HD
ATOM     43  H   UNL     1     145.771 162.326 188.170  0.00  0.00    +0.105 HD
ATOM     44  H   UNL     1     142.063 165.672 187.029  0.00  0.00    +0.105 HD
ATOM     45  H   UNL     1     140.482 170.387 187.931  0.00  0.00    +0.105 HD
ATOM     46  H   UNL     1     141.895 172.320 189.518  0.00  0.00    +0.067 HD
ATOM     47  H   UNL     1     144.741 171.333 190.082  0.00  0.00    +0.041 HD
ATOM     48  H   UNL     1     145.417 174.554 191.683  0.00  0.00    +0.065 HD
ATOM     49  H   UNL     1     146.760 172.271 190.095  0.00  0.00    +0.057 HD
ATOM     50  H   UNL     1     148.678 173.806 190.850  0.00  0.00    +0.033 HD
ATOM     51  H   UNL     1     147.744 174.269 192.249  0.00  0.00    +0.033 HD
ATOM     52  H   UNL     1     147.742 171.798 192.971  0.00  0.00    +0.060 HD
ATOM     53  H   UNL     1     150.298 171.479 191.374  0.00  0.00    +0.040 HD
ATOM     54  H   UNL     1     148.798 171.203 190.458  0.00  0.00    +0.040 HD
ATOM     55  H   UNL     1     148.933 167.344 191.745  0.00  0.00    +0.074 HD
BRANCH   4  56
ATOM     56  C   UNL     1     152.185 167.132 193.025  0.00  0.00    -0.057 C 
ATOM     57  H   UNL     1     152.726 167.814 193.689  0.00  0.00    +0.023 HD
ATOM     58  H   UNL     1     152.475 166.106 193.273  0.00  0.00    +0.023 HD
ATOM     59  H   UNL     1     152.536 167.329 192.004  0.00  0.00    +0.023 HD
ENDBRANCH   4  56
BRANCH  25  60
ATOM     60  C   UNL     1     144.357 172.170 188.124  0.00  0.00    -0.053 C 
ATOM     61  H   UNL     1     145.403 171.925 187.910  0.00  0.00    +0.024 HD
ATOM     62  H   UNL     1     144.182 173.191 187.774  0.00  0.00    +0.024 HD
ATOM     63  H   UNL     1     143.736 171.493 187.531  0.00  0.00    +0.024 HD
ENDBRANCH  25  60
BRANCH  31  64
ATOM     64  O   UNL     1     149.511 172.780 193.266  0.00  0.00    -0.391 OA
ATOM     65  H   UNL     1     149.592 173.736 193.089  0.00  0.00    +0.210 HD
ENDBRANCH  31  64
BRANCH  24  66
ATOM     66  O   UNL     1     142.460 171.477 191.328  0.00  0.00    -0.373 OA
BRANCH  66  67
ATOM     67  C   UNL     1     141.294 172.128 191.815  0.00  0.00    +0.037 C 
ATOM     68  H   UNL     1     140.388 171.660 191.422  0.00  0.00    +0.052 HD
ATOM     69  H   UNL     1     141.317 173.192 191.558  0.00  0.00    +0.052 HD
ATOM     70  H   UNL     1     141.283 172.040 192.904  0.00  0.00    +0.052 HD
ENDBRANCH  66  67
ENDBRANCH  24  66
BRANCH   5  71
ATOM     71  O   UNL     1     148.714 166.486 194.412  0.00  0.00    -0.379 OA
BRANCH  71  72
ATOM     72  C   UNL     1     148.488 166.207 195.786  0.00  0.00    +0.037 C 
ATOM     73  H   UNL     1     148.996 166.975 196.378  0.00  0.00    +0.052 HD
ATOM     74  H   UNL     1     147.419 166.242 196.021  0.00  0.00    +0.052 HD
ATOM     75  H   UNL     1     148.902 165.238 196.071  0.00  0.00    +0.052 HD
ENDBRANCH  71  72
ENDBRANCH   5  71
ENDBRANCH   1  36
BRANCH   1  76
ATOM     76  C   UNL     1     150.011 167.105 189.167  0.00  0.00    +0.064 C 
ATOM     77  H   UNL     1     150.346 168.052 188.725  0.00  0.00    +0.060 HD
BRANCH  76  78
ATOM     78  C   UNL     1     150.255 165.986 188.113  0.00  0.00    -0.017 C 
ATOM     79  H   UNL     1     149.291 165.676 187.699  0.00  0.00    +0.032 HD
BRANCH  78  80
ATOM     80  C   UNL     1     151.164 166.454 186.964  0.00  0.00    -0.060 C 
ATOM     81  H   UNL     1     152.198 166.138 187.129  0.00  0.00    +0.023 HD
ATOM     82  H   UNL     1     151.156 167.544 186.869  0.00  0.00    +0.023 HD
ATOM     83  H   UNL     1     150.863 166.033 186.002  0.00  0.00    +0.023 HD
ENDBRANCH  78  80
BRANCH  78  84
ATOM     84  C   UNL     1     150.878 164.761 188.830  0.00  0.00    -0.045 C 
ATOM     85  H   UNL     1     151.636 165.135 189.519  0.00  0.00    +0.027 HD
ATOM     86  H   UNL     1     150.108 164.270 189.438  0.00  0.00    +0.027 HD
BRANCH  84  87
ATOM     87  C   UNL     1     151.522 163.719 187.915  0.00  0.00    -0.015 C 
ATOM     88  H   UNL     1     151.539 164.066 186.876  0.00  0.00    +0.030 HD
ATOM     89  H   UNL     1     150.890 162.820 187.900  0.00  0.00    +0.030 HD
BRANCH  87  90
ATOM     90  C   UNL     1     152.947 163.305 188.334  0.00  0.00    +0.109 C 
ATOM     91  H   UNL     1     153.159 163.775 189.302  0.00  0.00    +0.074 HD
BRANCH  90  92
ATOM     92  C   UNL     1     154.122 163.630 187.348  0.00  0.00    +0.031 C 
ATOM     93  H   UNL     1     153.694 164.329 186.617  0.00  0.00    +0.037 HD
BRANCH  92  94
ATOM     94  C   UNL     1     154.532 162.383 186.555  0.00  0.00    -0.056 C 
ATOM     95  H   UNL     1     155.279 162.591 185.787  0.00  0.00    +0.023 HD
ATOM     96  H   UNL     1     154.935 161.607 187.213  0.00  0.00    +0.023 HD
ATOM     97  H   UNL     1     153.666 161.939 186.058  0.00  0.00    +0.023 HD
ENDBRANCH  92  94
BRANCH  92  98
ATOM     98  C   UNL     1     155.315 164.372 188.029  0.00  0.00    +0.115 C 
ATOM     99  H   UNL     1     156.232 164.106 187.493  0.00  0.00    +0.074 HD
BRANCH  98 100
ATOM    100  C   UNL     1     155.243 165.927 188.116  0.00  0.00    +0.013 C 
ATOM    101  H   UNL     1     156.255 166.285 188.357  0.00  0.00    +0.038 HD
BRANCH 100 102
ATOM    102  C   UNL     1     154.385 166.440 189.278  0.00  0.00    -0.056 C 
ATOM    103  H   UNL     1     153.922 167.408 189.060  0.00  0.00    +0.024 HD
ATOM    104  H   UNL     1     153.588 165.730 189.515  0.00  0.00    +0.024 HD
ATOM    105  H   UNL     1     154.994 166.566 190.181  0.00  0.00    +0.024 HD
ENDBRANCH 100 102
BRANCH 100 106
ATOM    106  C   UNL     1     154.854 166.580 186.805  0.00  0.00    -0.064 C 
ATOM    107  C   UNL     1     155.756 166.812 185.840  0.00  0.00    -0.005 C 
ATOM    108  H   UNL     1     153.812 166.852 186.689  0.00  0.00    +0.059 HD
ATOM    109  H   UNL     1     156.794 166.517 186.017  0.00  0.00    +0.078 HD
BRANCH 107 110
ATOM    110  N   UNL     1     155.538 167.386 184.596  0.00  0.00    -0.284 N 
ATOM    111  C   UNL     1     155.909 168.673 184.232  0.00  0.00    +0.206 C 
ATOM    112  O   UNL     1     155.723 169.200 183.137  0.00  0.00    -0.279 OA
ATOM    113  H   UNL     1     156.402 169.239 185.033  0.00  0.00    +0.126 HD
BRANCH 110 114
ATOM    114  C   UNL     1     154.837 166.574 183.606  0.00  0.00    +0.007 C 
ATOM    115  H   UNL     1     153.985 167.104 183.172  0.00  0.00    +0.043 HD
ATOM    116  H   UNL     1     155.526 166.305 182.800  0.00  0.00    +0.043 HD
ATOM    117  H   UNL     1     154.475 165.665 184.094  0.00  0.00    +0.043 HD
ENDBRANCH 110 114
ENDBRANCH 107 110
ENDBRANCH 100 106
ENDBRANCH  98 100
BRANCH  98 118
ATOM    118  O   UNL     1     155.417 163.867 189.390  0.00  0.00    -0.461 OA
BRANCH 118 119
ATOM    119  C   UNL     1     156.364 162.920 189.628  0.00  0.00    +0.304 C 
ATOM    120  O   UNL     1     156.160 161.719 189.716  0.00  0.00    -0.251 OA
BRANCH 119 121
ATOM    121  C   UNL     1     157.710 163.566 189.763  0.00  0.00    +0.033 C 
ATOM    122  H   UNL     1     158.171 163.264 190.706  0.00  0.00    +0.034 HD
ATOM    123  H   UNL     1     157.588 164.653 189.769  0.00  0.00    +0.034 HD
ATOM    124  H   UNL     1     158.344 163.290 188.917  0.00  0.00    +0.034 HD
ENDBRANCH 119 121
ENDBRANCH 118 119
ENDBRANCH  98 118
ENDBRANCH  92  98
ENDBRANCH  90  92
BRANCH  90 125
ATOM    125  O   UNL     1     152.929 161.860 188.479  0.00  0.00    -0.459 OA
BRANCH 125 126
ATOM    126  C   UNL     1     152.637 161.351 189.716  0.00  0.00    +0.339 C 
ATOM    127  O   UNL     1     152.817 161.936 190.777  0.00  0.00    -0.248 OA
BRANCH 126 128
ATOM    128  C   UNL     1     152.003 159.955 189.551  0.00  0.00    +0.178 C 
ATOM    129  H   UNL     1     152.820 159.242 189.365  0.00  0.00    +0.074 HD
BRANCH 128 130
ATOM    130  C   UNL     1     151.313 159.563 190.870  0.00  0.00    +0.084 C 
ATOM    131  H   UNL     1     150.335 159.108 190.680  0.00  0.00    +0.059 HD
ATOM    132  H   UNL     1     151.165 160.463 191.478  0.00  0.00    +0.059 HD
BRANCH 130 133
ATOM    133  O   UNL     1     152.114 158.630 191.606  0.00  0.00    -0.380 OA
BRANCH 133 134
ATOM    134  C   UNL     1     152.955 157.865 190.755  0.00  0.00    +0.037 C 
ATOM    135  H   UNL     1     153.216 158.439 189.860  0.00  0.00    +0.052 HD
ATOM    136  H   UNL     1     153.863 157.558 191.284  0.00  0.00    +0.052 HD
ATOM    137  H   UNL     1     152.407 156.969 190.446  0.00  0.00    +0.052 HD
ENDBRANCH 133 134
ENDBRANCH 130 133
ENDBRANCH 128 130
BRANCH 128 138
ATOM    138  O   UNL     1     151.039 159.792 188.506  0.00  0.00    -0.366 OA
BRANCH 138 139
ATOM    139  C   UNL     1     149.765 160.332 188.825  0.00  0.00    +0.038 C 
ATOM    140  H   UNL     1     149.148 160.438 187.925  0.00  0.00    +0.052 HD
ATOM    141  H   UNL     1     149.865 161.295 189.332  0.00  0.00    +0.052 HD
ATOM    142  H   UNL     1     149.263 159.640 189.507  0.00  0.00    +0.052 HD
ENDBRANCH 138 139
ENDBRANCH 128 138
ENDBRANCH 126 128
ENDBRANCH 125 126
ENDBRANCH  90 125
ENDBRANCH  87  90
ENDBRANCH  84  87
ENDBRANCH  78  84
ENDBRANCH  76  78
BRANCH  76 143
ATOM    143  O   UNL     1     148.586 167.160 189.400  0.00  0.00    -0.379 OA
BRANCH 143 144
ATOM    144  C   UNL     1     147.860 167.791 188.354  0.00  0.00    +0.037 C 
ATOM    145  H   UNL     1     147.897 167.143 187.473  0.00  0.00    +0.052 HD
ATOM    146  H   UNL     1     146.813 167.932 188.637  0.00  0.00    +0.052 HD
ATOM    147  H   UNL     1     148.320 168.752 188.096  0.00  0.00    +0.052 HD
ENDBRANCH 143 144
ENDBRANCH  76 143
ENDBRANCH   1  76
TORSDOF 35
ENDMDL
MODEL 2
REMARK VINA RESULT:      -5.7      1.069      1.389
REMARK  Name = Mycalolide B_conf1
REMARK  35 active torsions:
REMARK  status: ('A' for Active; 'I' for Inactive)
REMARK    1  A    between atoms: C_1  and  C_2
REMARK    2  A    between atoms: C_3  and  O_72
REMARK    3  A    between atoms: C_22  and  O_70
REMARK    4  A    between atoms: C_23  and  C_69
REMARK    5  A    between atoms: C_29  and  O_68
REMARK    6  A    between atoms: C_34  and  C_35
REMARK    7  A    between atoms: C_35  and  C_36
REMARK    8  A    between atoms: C_36  and  C_37
REMARK    9  A    between atoms: C_36  and  O_66
REMARK   10  A    between atoms: C_37  and  C_38
REMARK   11  A    between atoms: C_37  and  C_39
REMARK   12  A    between atoms: C_39  and  C_40
REMARK   13  A    between atoms: C_40  and  C_41
REMARK   14  A    between atoms: C_41  and  C_42
REMARK   15  A    between atoms: C_41  and  O_57
REMARK   16  A    between atoms: C_42  and  C_43
REMARK   17  A    between atoms: C_42  and  C_44
REMARK   18  A    between atoms: C_44  and  C_45
REMARK   19  A    between atoms: C_44  and  O_53
REMARK   20  A    between atoms: C_45  and  C_46
REMARK   21  A    between atoms: C_45  and  C_47
REMARK   22  A    between atoms: C_48  and  N_49
REMARK   23  A    between atoms: N_49  and  C_50
REMARK   24  A    between atoms: O_53  and  C_54
REMARK   25  A    between atoms: C_54  and  C_56
REMARK   26  A    between atoms: O_57  and  C_58
REMARK   27  A    between atoms: C_58  and  C_60
REMARK   28  A    between atoms: C_60  and  C_61
REMARK   29  A    between atoms: C_60  and  O_64
REMARK   30  A    between atoms: C_61  and  O_62
REMARK   31  A    between atoms: O_62  and  C_63
REMARK   32  A    between atoms: O_64  and  C_65
REMARK   33  A    between atoms: O_66  and  C_67
REMARK   34  A    between atoms: O_70  and  C_71
REMARK   35  A    between atoms: O_72  and  C_73
REMARK                            x       y       z     vdW  Elec       q    Type
REMARK                         _______ _______ _______ _____ _____    ______ ____
ROOT
ATOM      1  C   UNL     1     150.676 166.904 190.494  0.00  0.00    +0.011 C 
ATOM      2  H   UNL     1     151.742 167.157 190.446  0.00  0.00    +0.033 HD
ATOM      3  H   UNL     1     150.649 165.816 190.622  0.00  0.00    +0.033 HD
ENDROOT
BRANCH   1  36
ATOM      4  C   UNL     1     150.732 167.263 193.065  0.00  0.00    +0.020 C 
ATOM      5  C   UNL     1     150.115 166.101 193.901  0.00  0.00    +0.068 C 
ATOM      6  C   UNL     1     149.969 164.716 193.210  0.00  0.00    -0.008 C 
ATOM      7  C   UNL     1     148.820 164.597 192.247  0.00  0.00    -0.077 C 
ATOM      8  C   UNL     1     148.706 163.682 191.271  0.00  0.00    -0.003 C 
ATOM      9  C   UNL     1     147.574 163.708 190.407  0.00  0.00    +0.220 A 
ATOM     10  N   UNL     1     146.748 164.732 190.254  0.00  0.00    -0.205 NA
ATOM     11  C   UNL     1     145.808 164.322 189.346  0.00  0.00    +0.164 A 
ATOM     12  C   UNL     1     146.095 163.048 188.939  0.00  0.00    +0.125 A 
ATOM     13  O   UNL     1     147.226 162.648 189.586  0.00  0.00    -0.443 OA
ATOM     14  C   UNL     1     144.608 165.199 188.878  0.00  0.00    +0.250 A 
ATOM     15  N   UNL     1     144.429 166.435 189.300  0.00  0.00    -0.203 NA
ATOM     16  C   UNL     1     143.277 166.849 188.681  0.00  0.00    +0.164 A 
ATOM     17  C   UNL     1     142.788 165.840 187.894  0.00  0.00    +0.125 A 
ATOM     18  O   UNL     1     143.633 164.774 188.002  0.00  0.00    -0.442 OA
ATOM     19  C   UNL     1     142.629 168.257 188.856  0.00  0.00    +0.249 A 
ATOM     20  N   UNL     1     143.155 169.205 189.616  0.00  0.00    -0.210 NA
ATOM     21  C   UNL     1     142.311 170.284 189.476  0.00  0.00    +0.109 A 
ATOM     22  C   UNL     1     141.281 169.936 188.631  0.00  0.00    +0.118 A 
ATOM     23  O   UNL     1     141.467 168.648 188.231  0.00  0.00    -0.442 OA
ATOM     24  C   UNL     1     142.607 171.599 190.133  0.00  0.00    +0.113 C 
ATOM     25  C   UNL     1     144.045 172.063 189.811  0.00  0.00    +0.051 C 
ATOM     26  C   UNL     1     144.277 173.430 190.440  0.00  0.00    +0.161 C 
ATOM     27  O   UNL     1     143.456 174.341 190.342  0.00  0.00    -0.292 OA
ATOM     28  C   UNL     1     145.558 173.717 191.151  0.00  0.00    -0.023 C 
ATOM     29  C   UNL     1     146.716 173.070 190.934  0.00  0.00    -0.078 C 
ATOM     30  C   UNL     1     148.001 173.413 191.639  0.00  0.00    -0.008 C 
ATOM     31  C   UNL     1     148.613 172.228 192.410  0.00  0.00    +0.069 C 
ATOM     32  C   UNL     1     149.282 171.205 191.483  0.00  0.00    +0.071 C 
ATOM     33  C   UNL     1     149.159 169.801 192.026  0.00  0.00    +0.310 C 
ATOM     34  O   UNL     1     148.278 169.415 192.779  0.00  0.00    -0.251 OA
ATOM     35  O   UNL     1     150.126 169.012 191.476  0.00  0.00    -0.461 OA
ATOM     36  C   UNL     1     150.021 167.582 191.714  0.00  0.00    +0.110 C 
ATOM     37  H   UNL     1     150.636 168.167 193.678  0.00  0.00    +0.036 HD
ATOM     38  H   UNL     1     150.776 165.930 194.762  0.00  0.00    +0.060 HD
ATOM     39  H   UNL     1     150.912 164.424 192.737  0.00  0.00    +0.033 HD
ATOM     40  H   UNL     1     149.770 163.985 194.007  0.00  0.00    +0.033 HD
ATOM     41  H   UNL     1     148.003 165.309 192.395  0.00  0.00    +0.057 HD
ATOM     42  H   UNL     1     149.454 162.913 191.116  0.00  0.00    +0.067 HD
ATOM     43  H   UNL     1     145.650 162.342 188.254  0.00  0.00    +0.105 HD
ATOM     44  H   UNL     1     141.932 165.721 187.250  0.00  0.00    +0.105 HD
ATOM     45  H   UNL     1     140.415 170.441 188.229  0.00  0.00    +0.105 HD
ATOM     46  H   UNL     1     141.892 172.355 189.781  0.00  0.00    +0.067 HD
ATOM     47  H   UNL     1     144.748 171.345 190.248  0.00  0.00    +0.041 HD
ATOM     48  H   UNL     1     145.498 174.552 191.844  0.00  0.00    +0.065 HD
ATOM     49  H   UNL     1     146.772 172.268 190.202  0.00  0.00    +0.057 HD
ATOM     50  H   UNL     1     148.725 173.785 190.903  0.00  0.00    +0.033 HD
ATOM     51  H   UNL     1     147.839 174.246 192.334  0.00  0.00    +0.033 HD
ATOM     52  H   UNL     1     147.843 171.772 193.042  0.00  0.00    +0.060 HD
ATOM     53  H   UNL     1     150.344 171.444 191.362  0.00  0.00    +0.040 HD
ATOM     54  H   UNL     1     148.813 171.184 190.493  0.00  0.00    +0.040 HD
ATOM     55  H   UNL     1     148.962 167.317 191.754  0.00  0.00    +0.074 HD
BRANCH   4  56
ATOM     56  C   UNL     1     152.251 167.074 192.927  0.00  0.00    -0.057 C 
ATOM     57  H   UNL     1     152.815 167.944 193.278  0.00  0.00    +0.023 HD
ATOM     58  H   UNL     1     152.589 166.195 193.486  0.00  0.00    +0.023 HD
ATOM     59  H   UNL     1     152.524 166.914 191.877  0.00  0.00    +0.023 HD
ENDBRANCH   4  56
BRANCH  25  60
ATOM     60  C   UNL     1     144.307 172.196 188.308  0.00  0.00    -0.053 C 
ATOM     61  H   UNL     1     145.368 172.057 188.073  0.00  0.00    +0.024 HD
ATOM     62  H   UNL     1     144.019 173.187 187.948  0.00  0.00    +0.024 HD
ATOM     63  H   UNL     1     143.746 171.449 187.739  0.00  0.00    +0.024 HD
ENDBRANCH  25  60
BRANCH  31  64
ATOM     64  O   UNL     1     149.627 172.740 193.286  0.00  0.00    -0.391 OA
ATOM     65  H   UNL     1     149.227 172.839 194.171  0.00  0.00    +0.210 HD
ENDBRANCH  31  64
BRANCH  24  66
ATOM     66  O   UNL     1     142.508 171.497 191.567  0.00  0.00    -0.373 OA
BRANCH  66  67
ATOM     67  C   UNL     1     141.383 172.184 192.098  0.00  0.00    +0.037 C 
ATOM     68  H   UNL     1     140.457 171.847 191.628  0.00  0.00    +0.052 HD
ATOM     69  H   UNL     1     141.503 173.265 191.973  0.00  0.00    +0.052 HD
ATOM     70  H   UNL     1     141.325 171.969 193.168  0.00  0.00    +0.052 HD
ENDBRANCH  66  67
ENDBRANCH  24  66
BRANCH   5  71
ATOM     71  O   UNL     1     148.821 166.445 194.422  0.00  0.00    -0.379 OA
BRANCH  71  72
ATOM     72  C   UNL     1     148.649 166.191 195.808  0.00  0.00    +0.037 C 
ATOM     73  H   UNL     1     148.070 167.015 196.236  0.00  0.00    +0.052 HD
ATOM     74  H   UNL     1     148.094 165.261 195.969  0.00  0.00    +0.052 HD
ATOM     75  H   UNL     1     149.606 166.150 196.329  0.00  0.00    +0.052 HD
ENDBRANCH  71  72
ENDBRANCH   5  71
ENDBRANCH   1  36
BRANCH   1  76
ATOM     76  C   UNL     1     150.046 167.214 189.119  0.00  0.00    +0.064 C 
ATOM     77  H   UNL     1     150.378 168.209 188.798  0.00  0.00    +0.060 HD
BRANCH  76  78
ATOM     78  C   UNL     1     150.353 166.224 187.958  0.00  0.00    -0.017 C 
ATOM     79  H   UNL     1     149.460 166.127 187.332  0.00  0.00    +0.032 HD
BRANCH  78  80
ATOM     80  C   UNL     1     151.527 166.694 187.083  0.00  0.00    -0.060 C 
ATOM     81  H   UNL     1     151.178 167.347 186.278  0.00  0.00    +0.023 HD
ATOM     82  H   UNL     1     152.048 165.846 186.628  0.00  0.00    +0.023 HD
ATOM     83  H   UNL     1     152.260 167.271 187.652  0.00  0.00    +0.023 HD
ENDBRANCH  78  80
BRANCH  78  84
ATOM     84  C   UNL     1     150.657 164.830 188.566  0.00  0.00    -0.045 C 
ATOM     85  H   UNL     1     150.576 164.921 189.650  0.00  0.00    +0.027 HD
ATOM     86  H   UNL     1     149.883 164.121 188.245  0.00  0.00    +0.027 HD
BRANCH  84  87
ATOM     87  C   UNL     1     152.029 164.249 188.226  0.00  0.00    -0.015 C 
ATOM     88  H   UNL     1     152.512 164.820 187.426  0.00  0.00    +0.030 HD
ATOM     89  H   UNL     1     151.895 163.241 187.808  0.00  0.00    +0.030 HD
BRANCH  87  90
ATOM     90  C   UNL     1     152.990 164.151 189.429  0.00  0.00    +0.109 C 
ATOM     91  H   UNL     1     152.459 164.534 190.309  0.00  0.00    +0.074 HD
BRANCH  90  92
ATOM     92  C   UNL     1     154.374 164.879 189.320  0.00  0.00    +0.031 C 
ATOM     93  H   UNL     1     154.969 164.486 190.155  0.00  0.00    +0.037 HD
BRANCH  92  94
ATOM     94  C   UNL     1     154.223 166.384 189.575  0.00  0.00    -0.056 C 
ATOM     95  H   UNL     1     154.205 166.974 188.658  0.00  0.00    +0.023 HD
ATOM     96  H   UNL     1     153.307 166.603 190.132  0.00  0.00    +0.023 HD
ATOM     97  H   UNL     1     155.047 166.757 190.189  0.00  0.00    +0.023 HD
ENDBRANCH  92  94
BRANCH  92  98
ATOM     98  C   UNL     1     155.156 164.531 188.014  0.00  0.00    +0.115 C 
ATOM     99  H   UNL     1     154.714 163.626 187.584  0.00  0.00    +0.074 HD
BRANCH  98 100
ATOM    100  C   UNL     1     155.216 165.616 186.896  0.00  0.00    +0.013 C 
ATOM    101  H   UNL     1     154.576 166.451 187.221  0.00  0.00    +0.038 HD
BRANCH 100 102
ATOM    102  C   UNL     1     154.592 165.170 185.569  0.00  0.00    -0.056 C 
ATOM    103  H   UNL     1     155.314 165.175 184.746  0.00  0.00    +0.024 HD
ATOM    104  H   UNL     1     154.183 164.159 185.653  0.00  0.00    +0.024 HD
ATOM    105  H   UNL     1     153.769 165.836 185.286  0.00  0.00    +0.024 HD
ENDBRANCH 100 102
BRANCH 100 106
ATOM    106  C   UNL     1     156.604 166.188 186.696  0.00  0.00    -0.064 C 
ATOM    107  C   UNL     1     156.947 166.826 185.567  0.00  0.00    -0.005 C 
ATOM    108  H   UNL     1     157.306 166.053 187.510  0.00  0.00    +0.059 HD
ATOM    109  H   UNL     1     156.195 166.930 184.780  0.00  0.00    +0.078 HD
BRANCH 107 110
ATOM    110  N   UNL     1     158.169 167.405 185.258  0.00  0.00    -0.284 N 
ATOM    111  C   UNL     1     159.386 166.740 185.231  0.00  0.00    +0.206 C 
ATOM    112  O   UNL     1     160.479 167.236 184.962  0.00  0.00    -0.279 OA
ATOM    113  H   UNL     1     159.319 165.676 185.492  0.00  0.00    +0.126 HD
BRANCH 110 114
ATOM    114  C   UNL     1     158.168 168.836 184.964  0.00  0.00    +0.007 C 
ATOM    115  H   UNL     1     158.391 169.435 185.851  0.00  0.00    +0.043 HD
ATOM    116  H   UNL     1     158.920 169.052 184.201  0.00  0.00    +0.043 HD
ATOM    117  H   UNL     1     157.178 169.115 184.592  0.00  0.00    +0.043 HD
ENDBRANCH 110 114
ENDBRANCH 107 110
ENDBRANCH 100 106
ENDBRANCH  98 100
BRANCH  98 118
ATOM    118  O   UNL     1     156.527 164.232 188.399  0.00  0.00    -0.461 OA
BRANCH 118 119
ATOM    119  C   UNL     1     156.773 162.987 188.893  0.00  0.00    +0.304 C 
ATOM    120  O   UNL     1     156.311 161.946 188.453  0.00  0.00    -0.251 OA
BRANCH 119 121
ATOM    121  C   UNL     1     157.706 163.077 190.062  0.00  0.00    +0.033 C 
ATOM    122  H   UNL     1     158.655 163.512 189.743  0.00  0.00    +0.034 HD
ATOM    123  H   UNL     1     157.898 162.072 190.448  0.00  0.00    +0.034 HD
ATOM    124  H   UNL     1     157.254 163.676 190.856  0.00  0.00    +0.034 HD
ENDBRANCH 119 121
ENDBRANCH 118 119
ENDBRANCH  98 118
ENDBRANCH  92  98
ENDBRANCH  90  92
BRANCH  90 125
ATOM    125  O   UNL     1     153.287 162.741 189.604  0.00  0.00    -0.459 OA
BRANCH 125 126
ATOM    126  C   UNL     1     152.476 162.021 190.440  0.00  0.00    +0.339 C 
ATOM    127  O   UNL     1     151.983 162.445 191.478  0.00  0.00    -0.248 OA
BRANCH 126 128
ATOM    128  C   UNL     1     152.246 160.620 189.838  0.00  0.00    +0.178 C 
ATOM    129  H   UNL     1     153.221 160.114 189.801  0.00  0.00    +0.074 HD
BRANCH 128 130
ATOM    130  C   UNL     1     151.325 159.821 190.777  0.00  0.00    +0.084 C 
ATOM    131  H   UNL     1     150.576 159.259 190.207  0.00  0.00    +0.059 HD
ATOM    132  H   UNL     1     150.802 160.516 191.445  0.00  0.00    +0.059 HD
BRANCH 130 133
ATOM    133  O   UNL     1     152.082 158.897 191.568  0.00  0.00    -0.380 OA
BRANCH 133 134
ATOM    134  C   UNL     1     152.761 157.942 190.764  0.00  0.00    +0.037 C 
ATOM    135  H   UNL     1     152.245 156.978 190.801  0.00  0.00    +0.052 HD
ATOM    136  H   UNL     1     152.834 158.292 189.730  0.00  0.00    +0.052 HD
ATOM    137  H   UNL     1     153.771 157.813 191.165  0.00  0.00    +0.052 HD
ENDBRANCH 133 134
ENDBRANCH 130 133
ENDBRANCH 128 130
BRANCH 128 138
ATOM    138  O   UNL     1     151.672 160.556 188.529  0.00  0.00    -0.366 OA
BRANCH 138 139
ATOM    139  C   UNL     1     150.297 160.909 188.497  0.00  0.00    +0.038 C 
ATOM    140  H   UNL     1     149.672 160.033 188.295  0.00  0.00    +0.052 HD
ATOM    141  H   UNL     1     150.112 161.688 187.753  0.00  0.00    +0.052 HD
ATOM    142  H   UNL     1     150.025 161.307 189.480  0.00  0.00    +0.052 HD
ENDBRANCH 138 139
ENDBRANCH 128 138
ENDBRANCH 126 128
ENDBRANCH 125 126
ENDBRANCH  90 125
ENDBRANCH  87  90
ENDBRANCH  84  87
ENDBRANCH  78  84
ENDBRANCH  76  78
BRANCH  76 143
ATOM    143  O   UNL     1     148.613 167.219 189.299  0.00  0.00    -0.379 OA
BRANCH 143 144
ATOM    144  C   UNL     1     147.889 167.508 188.111  0.00  0.00    +0.037 C 
ATOM    145  H   UNL     1     147.399 168.478 188.236  0.00  0.00    +0.052 HD
ATOM    146  H   UNL     1     148.562 167.567 187.251  0.00  0.00    +0.052 HD
ATOM    147  H   UNL     1     147.116 166.750 187.941  0.00  0.00    +0.052 HD
ENDBRANCH 143 144
ENDBRANCH  76 143
ENDBRANCH   1  76
TORSDOF 35
ENDMDL
MODEL 3
REMARK VINA RESULT:      -5.7      1.973      5.240
REMARK  Name = Mycalolide B_conf1
REMARK  35 active torsions:
REMARK  status: ('A' for Active; 'I' for Inactive)
REMARK    1  A    between atoms: C_1  and  C_2
REMARK    2  A    between atoms: C_3  and  O_72
REMARK    3  A    between atoms: C_22  and  O_70
REMARK    4  A    between atoms: C_23  and  C_69
REMARK    5  A    between atoms: C_29  and  O_68
REMARK    6  A    between atoms: C_34  and  C_35
REMARK    7  A    between atoms: C_35  and  C_36
REMARK    8  A    between atoms: C_36  and  C_37
REMARK    9  A    between atoms: C_36  and  O_66
REMARK   10  A    between atoms: C_37  and  C_38
REMARK   11  A    between atoms: C_37  and  C_39
REMARK   12  A    between atoms: C_39  and  C_40
REMARK   13  A    between atoms: C_40  and  C_41
REMARK   14  A    between atoms: C_41  and  C_42
REMARK   15  A    between atoms: C_41  and  O_57
REMARK   16  A    between atoms: C_42  and  C_43
REMARK   17  A    between atoms: C_42  and  C_44
REMARK   18  A    between atoms: C_44  and  C_45
REMARK   19  A    between atoms: C_44  and  O_53
REMARK   20  A    between atoms: C_45  and  C_46
REMARK   21  A    between atoms: C_45  and  C_47
REMARK   22  A    between atoms: C_48  and  N_49
REMARK   23  A    between atoms: N_49  and  C_50
REMARK   24  A    between atoms: O_53  and  C_54
REMARK   25  A    between atoms: C_54  and  C_56
REMARK   26  A    between atoms: O_57  and  C_58
REMARK   27  A    between atoms: C_58  and  C_60
REMARK   28  A    between atoms: C_60  and  C_61
REMARK   29  A    between atoms: C_60  and  O_64
REMARK   30  A    between atoms: C_61  and  O_62
REMARK   31  A    between atoms: O_62  and  C_63
REMARK   32  A    between atoms: O_64  and  C_65
REMARK   33  A    between atoms: O_66  and  C_67
REMARK   34  A    between atoms: O_70  and  C_71
REMARK   35  A    between atoms: O_72  and  C_73
REMARK                            x       y       z     vdW  Elec       q    Type
REMARK                         _______ _______ _______ _____ _____    ______ ____
ROOT
ATOM      1  C   UNL     1     150.336 167.001 190.222  0.00  0.00    +0.011 C 
ATOM      2  H   UNL     1     151.383 167.304 190.089  0.00  0.00    +0.033 HD
ATOM      3  H   UNL     1     150.372 165.916 190.365  0.00  0.00    +0.033 HD
ENDROOT
BRANCH   1  36
ATOM      4  C   UNL     1     150.511 167.318 192.793  0.00  0.00    +0.020 C 
ATOM      5  C   UNL     1     149.918 166.149 193.637  0.00  0.00    +0.068 C 
ATOM      6  C   UNL     1     149.724 164.778 192.932  0.00  0.00    -0.008 C 
ATOM      7  C   UNL     1     148.533 164.687 192.019  0.00  0.00    -0.077 C 
ATOM      8  C   UNL     1     148.366 163.789 191.035  0.00  0.00    -0.003 C 
ATOM      9  C   UNL     1     147.197 163.842 190.223  0.00  0.00    +0.220 A 
ATOM     10  N   UNL     1     146.377 164.877 190.123  0.00  0.00    -0.205 NA
ATOM     11  C   UNL     1     145.393 164.492 189.250  0.00  0.00    +0.164 A 
ATOM     12  C   UNL     1     145.647 163.222 188.811  0.00  0.00    +0.125 A 
ATOM     13  O   UNL     1     146.800 162.799 189.402  0.00  0.00    -0.443 OA
ATOM     14  C   UNL     1     144.184 165.389 188.850  0.00  0.00    +0.250 A 
ATOM     15  N   UNL     1     144.038 166.621 189.299  0.00  0.00    -0.203 NA
ATOM     16  C   UNL     1     142.865 167.057 188.738  0.00  0.00    +0.164 A 
ATOM     17  C   UNL     1     142.330 166.066 187.957  0.00  0.00    +0.125 A 
ATOM     18  O   UNL     1     143.167 164.990 188.011  0.00  0.00    -0.442 OA
ATOM     19  C   UNL     1     142.242 168.469 188.964  0.00  0.00    +0.249 A 
ATOM     20  N   UNL     1     142.812 169.399 189.715  0.00  0.00    -0.210 NA
ATOM     21  C   UNL     1     141.975 170.489 189.628  0.00  0.00    +0.109 A 
ATOM     22  C   UNL     1     140.904 170.166 188.825  0.00  0.00    +0.118 A 
ATOM     23  O   UNL     1     141.058 168.883 188.397  0.00  0.00    -0.442 OA
ATOM     24  C   UNL     1     142.315 171.791 190.292  0.00  0.00    +0.113 C 
ATOM     25  C   UNL     1     143.742 172.243 189.915  0.00  0.00    +0.051 C 
ATOM     26  C   UNL     1     144.018 173.597 190.554  0.00  0.00    +0.161 C 
ATOM     27  O   UNL     1     143.205 174.519 190.506  0.00  0.00    -0.292 OA
ATOM     28  C   UNL     1     145.333 173.859 191.212  0.00  0.00    -0.023 C 
ATOM     29  C   UNL     1     146.472 173.202 190.934  0.00  0.00    -0.078 C 
ATOM     30  C   UNL     1     147.791 173.520 191.586  0.00  0.00    -0.008 C 
ATOM     31  C   UNL     1     148.423 172.316 192.311  0.00  0.00    +0.069 C 
ATOM     32  C   UNL     1     149.038 171.301 191.339  0.00  0.00    +0.071 C 
ATOM     33  C   UNL     1     148.922 169.890 191.865  0.00  0.00    +0.310 C 
ATOM     34  O   UNL     1     148.071 169.502 192.651  0.00  0.00    -0.251 OA
ATOM     35  O   UNL     1     149.855 169.100 191.261  0.00  0.00    -0.461 OA
ATOM     36  C   UNL     1     149.745 167.667 191.480  0.00  0.00    +0.110 C 
ATOM     37  H   UNL     1     150.452 168.214 193.425  0.00  0.00    +0.036 HD
ATOM     38  H   UNL     1     150.614 165.958 194.465  0.00  0.00    +0.060 HD
ATOM     39  H   UNL     1     150.642 164.483 192.414  0.00  0.00    +0.033 HD
ATOM     40  H   UNL     1     149.553 164.037 193.726  0.00  0.00    +0.033 HD
ATOM     41  H   UNL     1     147.732 165.405 192.214  0.00  0.00    +0.057 HD
ATOM     42  H   UNL     1     149.097 163.015 190.835  0.00  0.00    +0.067 HD
ATOM     43  H   UNL     1     145.164 162.531 188.136  0.00  0.00    +0.105 HD
ATOM     44  H   UNL     1     141.445 165.967 187.351  0.00  0.00    +0.105 HD
ATOM     45  H   UNL     1     140.028 170.687 188.470  0.00  0.00    +0.105 HD
ATOM     46  H   UNL     1     141.594 172.560 189.985  0.00  0.00    +0.067 HD
ATOM     47  H   UNL     1     144.456 171.511 190.309  0.00  0.00    +0.041 HD
ATOM     48  H   UNL     1     145.312 174.683 191.920  0.00  0.00    +0.065 HD
ATOM     49  H   UNL     1     146.486 172.412 190.187  0.00  0.00    +0.057 HD
ATOM     50  H   UNL     1     148.486 173.897 190.825  0.00  0.00    +0.033 HD
ATOM     51  H   UNL     1     147.670 174.344 192.301  0.00  0.00    +0.033 HD
ATOM     52  H   UNL     1     147.676 171.858 192.969  0.00  0.00    +0.060 HD
ATOM     53  H   UNL     1     150.096 171.530 191.175  0.00  0.00    +0.040 HD
ATOM     54  H   UNL     1     148.526 171.301 190.371  0.00  0.00    +0.040 HD
ATOM     55  H   UNL     1     148.685 167.413 191.563  0.00  0.00    +0.074 HD
BRANCH   4  56
ATOM     56  C   UNL     1     152.020 167.115 192.586  0.00  0.00    -0.057 C 
ATOM     57  H   UNL     1     152.610 167.451 193.444  0.00  0.00    +0.023 HD
ATOM     58  H   UNL     1     152.251 166.062 192.398  0.00  0.00    +0.023 HD
ATOM     59  H   UNL     1     152.366 167.683 191.713  0.00  0.00    +0.023 HD
ENDBRANCH   4  56
BRANCH  25  60
ATOM     60  C   UNL     1     143.940 172.398 188.404  0.00  0.00    -0.053 C 
ATOM     61  H   UNL     1     144.631 173.216 188.172  0.00  0.00    +0.024 HD
ATOM     62  H   UNL     1     142.992 172.619 187.907  0.00  0.00    +0.024 HD
ATOM     63  H   UNL     1     144.354 171.487 187.962  0.00  0.00    +0.024 HD
ENDBRANCH  25  60
BRANCH  31  64
ATOM     64  O   UNL     1     149.480 172.803 193.149  0.00  0.00    -0.391 OA
ATOM     65  H   UNL     1     149.176 173.640 193.547  0.00  0.00    +0.210 HD
ENDBRANCH  31  64
BRANCH  24  66
ATOM     66  O   UNL     1     142.278 171.666 191.728  0.00  0.00    -0.373 OA
BRANCH  66  67
ATOM     67  C   UNL     1     141.190 172.363 192.320  0.00  0.00    +0.037 C 
ATOM     68  H   UNL     1     141.535 173.033 193.111  0.00  0.00    +0.052 HD
ATOM     69  H   UNL     1     140.453 171.655 192.714  0.00  0.00    +0.052 HD
ATOM     70  H   UNL     1     140.707 172.964 191.545  0.00  0.00    +0.052 HD
ENDBRANCH  66  67
ENDBRANCH  24  66
BRANCH   5  71
ATOM     71  O   UNL     1     148.652 166.499 194.221  0.00  0.00    -0.379 OA
BRANCH  71  72
ATOM     72  C   UNL     1     148.510 166.155 195.590  0.00  0.00    +0.037 C 
ATOM     73  H   UNL     1     149.504 166.172 196.051  0.00  0.00    +0.052 HD
ATOM     74  H   UNL     1     147.877 166.880 196.112  0.00  0.00    +0.052 HD
ATOM     75  H   UNL     1     148.104 165.150 195.711  0.00  0.00    +0.052 HD
ENDBRANCH  71  72
ENDBRANCH   5  71
ENDBRANCH   1  36
BRANCH   1  76
ATOM     76  C   UNL     1     149.590 167.260 188.896  0.00  0.00    +0.064 C 
ATOM     77  H   UNL     1     149.963 168.196 188.462  0.00  0.00    +0.060 HD
BRANCH  76  78
ATOM     78  C   UNL     1     149.695 166.163 187.797  0.00  0.00    -0.017 C 
ATOM     79  H   UNL     1     148.689 165.933 187.431  0.00  0.00    +0.032 HD
BRANCH  78  80
ATOM     80  C   UNL     1     150.568 166.604 186.611  0.00  0.00    -0.060 C 
ATOM     81  H   UNL     1     151.220 167.436 186.893  0.00  0.00    +0.023 HD
ATOM     82  H   UNL     1     149.955 166.928 185.764  0.00  0.00    +0.023 HD
ATOM     83  H   UNL     1     151.224 165.804 186.261  0.00  0.00    +0.023 HD
ENDBRANCH  78  80
BRANCH  78  84
ATOM     84  C   UNL     1     150.269 164.874 188.440  0.00  0.00    -0.045 C 
ATOM     85  H   UNL     1     150.465 165.091 189.491  0.00  0.00    +0.027 HD
ATOM     86  H   UNL     1     149.505 164.087 188.413  0.00  0.00    +0.027 HD
BRANCH  84  87
ATOM     87  C   UNL     1     151.551 164.337 187.806  0.00  0.00    -0.015 C 
ATOM     88  H   UNL     1     152.254 165.149 187.591  0.00  0.00    +0.030 HD
ATOM     89  H   UNL     1     151.310 163.908 186.823  0.00  0.00    +0.030 HD
BRANCH  87  90
ATOM     90  C   UNL     1     152.267 163.257 188.644  0.00  0.00    +0.109 C 
ATOM     91  H   UNL     1     152.692 162.525 187.948  0.00  0.00    +0.074 HD
BRANCH  90  92
ATOM     92  C   UNL     1     151.425 162.495 189.725  0.00  0.00    +0.031 C 
ATOM     93  H   UNL     1     150.479 163.050 189.792  0.00  0.00    +0.037 HD
BRANCH  92  94
ATOM     94  C   UNL     1     152.081 162.604 191.107  0.00  0.00    -0.056 C 
ATOM     95  H   UNL     1     152.081 161.661 191.656  0.00  0.00    +0.023 HD
ATOM     96  H   UNL     1     153.118 162.946 191.030  0.00  0.00    +0.023 HD
ATOM     97  H   UNL     1     151.564 163.342 191.724  0.00  0.00    +0.023 HD
ENDBRANCH  92  94
BRANCH  92  98
ATOM     98  C   UNL     1     151.056 161.036 189.309  0.00  0.00    +0.115 C 
ATOM     99  H   UNL     1     151.959 160.554 188.921  0.00  0.00    +0.074 HD
BRANCH  98 100
ATOM    100  C   UNL     1     150.444 160.106 190.400  0.00  0.00    +0.013 C 
ATOM    101  H   UNL     1     150.756 160.504 191.377  0.00  0.00    +0.038 HD
BRANCH 100 102
ATOM    102  C   UNL     1     151.009 158.681 190.384  0.00  0.00    -0.056 C 
ATOM    103  H   UNL     1     151.346 158.376 189.389  0.00  0.00    +0.024 HD
ATOM    104  H   UNL     1     151.857 158.593 191.070  0.00  0.00    +0.024 HD
ATOM    105  H   UNL     1     150.248 157.961 190.707  0.00  0.00    +0.024 HD
ENDBRANCH 100 102
BRANCH 100 106
ATOM    106  C   UNL     1     148.928 160.105 190.398  0.00  0.00    -0.064 C 
ATOM    107  C   UNL     1     148.225 158.998 190.117  0.00  0.00    -0.005 C 
ATOM    108  H   UNL     1     148.443 161.045 190.633  0.00  0.00    +0.059 HD
ATOM    109  H   UNL     1     148.772 158.080 189.886  0.00  0.00    +0.078 HD
BRANCH 107 110
ATOM    110  N   UNL     1     146.846 158.853 190.092  0.00  0.00    -0.284 N 
ATOM    111  C   UNL     1     146.088 158.240 191.079  0.00  0.00    +0.206 C 
ATOM    112  O   UNL     1     144.866 158.098 191.074  0.00  0.00    -0.279 OA
ATOM    113  H   UNL     1     146.678 157.849 191.918  0.00  0.00    +0.126 HD
BRANCH 110 114
ATOM    114  C   UNL     1     146.148 159.364 188.916  0.00  0.00    +0.007 C 
ATOM    115  H   UNL     1     146.616 160.271 188.525  0.00  0.00    +0.043 HD
ATOM    116  H   UNL     1     146.152 158.605 188.130  0.00  0.00    +0.043 HD
ATOM    117  H   UNL     1     145.116 159.595 189.197  0.00  0.00    +0.043 HD
ENDBRANCH 110 114
ENDBRANCH 107 110
ENDBRANCH 100 106
ENDBRANCH  98 100
BRANCH  98 118
ATOM    118  O   UNL     1     150.087 161.129 188.227  0.00  0.00    -0.461 OA
BRANCH 118 119
ATOM    119  C   UNL     1     150.375 160.455 187.080  0.00  0.00    +0.304 C 
ATOM    120  O   UNL     1     151.472 160.398 186.546  0.00  0.00    -0.251 OA
BRANCH 119 121
ATOM    121  C   UNL     1     149.142 159.780 186.561  0.00  0.00    +0.033 C 
ATOM    122  H   UNL     1     149.070 159.922 185.482  0.00  0.00    +0.034 HD
ATOM    123  H   UNL     1     148.261 160.229 187.030  0.00  0.00    +0.034 HD
ATOM    124  H   UNL     1     149.166 158.716 186.809  0.00  0.00    +0.034 HD
ENDBRANCH 119 121
ENDBRANCH 118 119
ENDBRANCH  98 118
ENDBRANCH  92  98
ENDBRANCH  90  92
BRANCH  90 125
ATOM    125  O   UNL     1     153.331 163.934 189.364  0.00  0.00    -0.459 OA
BRANCH 125 126
ATOM    126  C   UNL     1     154.603 163.820 188.869  0.00  0.00    +0.339 C 
ATOM    127  O   UNL     1     155.204 162.764 188.716  0.00  0.00    -0.248 OA
BRANCH 126 128
ATOM    128  C   UNL     1     155.127 165.220 188.494  0.00  0.00    +0.178 C 
ATOM    129  H   UNL     1     154.842 165.409 187.449  0.00  0.00    +0.074 HD
BRANCH 128 130
ATOM    130  C   UNL     1     154.427 166.266 189.381  0.00  0.00    +0.084 C 
ATOM    131  H   UNL     1     155.158 166.838 189.963  0.00  0.00    +0.059 HD
ATOM    132  H   UNL     1     153.753 165.754 190.077  0.00  0.00    +0.059 HD
BRANCH 130 133
ATOM    133  O   UNL     1     153.665 167.181 188.583  0.00  0.00    -0.380 OA
BRANCH 133 134
ATOM    134  C   UNL     1     154.072 167.166 187.223  0.00  0.00    +0.037 C 
ATOM    135  H   UNL     1     155.082 166.757 187.132  0.00  0.00    +0.052 HD
ATOM    136  H   UNL     1     153.372 166.582 186.617  0.00  0.00    +0.052 HD
ATOM    137  H   UNL     1     154.079 168.197 186.855  0.00  0.00    +0.052 HD
ENDBRANCH 133 134
ENDBRANCH 130 133
ENDBRANCH 128 130
BRANCH 128 138
ATOM    138  O   UNL     1     156.535 165.445 188.608  0.00  0.00    -0.366 OA
BRANCH 138 139
ATOM    139  C   UNL     1     157.230 165.309 187.378  0.00  0.00    +0.038 C 
ATOM    140  H   UNL     1     158.100 164.652 187.490  0.00  0.00    +0.052 HD
ATOM    141  H   UNL     1     157.540 166.285 186.995  0.00  0.00    +0.052 HD
ATOM    142  H   UNL     1     156.549 164.860 186.650  0.00  0.00    +0.052 HD
ENDBRANCH 138 139
ENDBRANCH 128 138
ENDBRANCH 126 128
ENDBRANCH 125 126
ENDBRANCH  90 125
ENDBRANCH  87  90
ENDBRANCH  84  87
ENDBRANCH  78  84
ENDBRANCH  76  78
BRANCH  76 143
ATOM    143  O   UNL     1     148.189 167.401 189.217  0.00  0.00    -0.379 OA
BRANCH 143 144
ATOM    144  C   UNL     1     147.474 168.222 188.304  0.00  0.00    +0.037 C 
ATOM    145  H   UNL     1     148.198 168.804 187.727  0.00  0.00    +0.052 HD
ATOM    146  H   UNL     1     146.887 167.613 187.611  0.00  0.00    +0.052 HD
ATOM    147  H   UNL     1     146.823 168.919 188.845  0.00  0.00    +0.052 HD
ENDBRANCH 143 144
ENDBRANCH  76 143
ENDBRANCH   1  76
TORSDOF 35
ENDMDL
MODEL 4
REMARK VINA RESULT:      -5.6      2.763     10.386
REMARK  Name = Mycalolide B_conf1
REMARK  35 active torsions:
REMARK  status: ('A' for Active; 'I' for Inactive)
REMARK    1  A    between atoms: C_1  and  C_2
REMARK    2  A    between atoms: C_3  and  O_72
REMARK    3  A    between atoms: C_22  and  O_70
REMARK    4  A    between atoms: C_23  and  C_69
REMARK    5  A    between atoms: C_29  and  O_68
REMARK    6  A    between atoms: C_34  and  C_35
REMARK    7  A    between atoms: C_35  and  C_36
REMARK    8  A    between atoms: C_36  and  C_37
REMARK    9  A    between atoms: C_36  and  O_66
REMARK   10  A    between atoms: C_37  and  C_38
REMARK   11  A    between atoms: C_37  and  C_39
REMARK   12  A    between atoms: C_39  and  C_40
REMARK   13  A    between atoms: C_40  and  C_41
REMARK   14  A    between atoms: C_41  and  C_42
REMARK   15  A    between atoms: C_41  and  O_57
REMARK   16  A    between atoms: C_42  and  C_43
REMARK   17  A    between atoms: C_42  and  C_44
REMARK   18  A    between atoms: C_44  and  C_45
REMARK   19  A    between atoms: C_44  and  O_53
REMARK   20  A    between atoms: C_45  and  C_46
REMARK   21  A    between atoms: C_45  and  C_47
REMARK   22  A    between atoms: C_48  and  N_49
REMARK   23  A    between atoms: N_49  and  C_50
REMARK   24  A    between atoms: O_53  and  C_54
REMARK   25  A    between atoms: C_54  and  C_56
REMARK   26  A    between atoms: O_57  and  C_58
REMARK   27  A    between atoms: C_58  and  C_60
REMARK   28  A    between atoms: C_60  and  C_61
REMARK   29  A    between atoms: C_60  and  O_64
REMARK   30  A    between atoms: C_61  and  O_62
REMARK   31  A    between atoms: O_62  and  C_63
REMARK   32  A    between atoms: O_64  and  C_65
REMARK   33  A    between atoms: O_66  and  C_67
REMARK   34  A    between atoms: O_70  and  C_71
REMARK   35  A    between atoms: O_72  and  C_73
REMARK                            x       y       z     vdW  Elec       q    Type
REMARK                         _______ _______ _______ _____ _____    ______ ____
ROOT
ATOM      1  C   UNL     1     150.673 166.020 190.237  0.00  0.00    +0.011 C 
ATOM      2  H   UNL     1     150.801 167.044 189.865  0.00  0.00    +0.033 HD
ATOM      3  H   UNL     1     149.589 165.860 190.256  0.00  0.00    +0.033 HD
ENDROOT
BRANCH   1  36
ATOM      4  C   UNL     1     152.579 165.576 188.530  0.00  0.00    +0.020 C 
ATOM      5  C   UNL     1     152.330 166.160 187.107  0.00  0.00    +0.068 C 
ATOM      6  C   UNL     1     151.269 167.287 186.965  0.00  0.00    -0.008 C 
ATOM      7  C   UNL     1     149.838 166.829 186.999  0.00  0.00    -0.077 C 
ATOM      8  C   UNL     1     148.774 167.600 187.277  0.00  0.00    -0.003 C 
ATOM      9  C   UNL     1     147.472 167.022 187.306  0.00  0.00    +0.220 A 
ATOM     10  N   UNL     1     147.208 165.727 187.390  0.00  0.00    -0.205 NA
ATOM     11  C   UNL     1     145.842 165.623 187.377  0.00  0.00    +0.164 A 
ATOM     12  C   UNL     1     145.291 166.873 187.309  0.00  0.00    +0.125 A 
ATOM     13  O   UNL     1     146.311 167.777 187.284  0.00  0.00    -0.443 OA
ATOM     14  C   UNL     1     145.071 164.269 187.428  0.00  0.00    +0.250 A 
ATOM     15  N   UNL     1     145.688 163.108 187.528  0.00  0.00    -0.203 NA
ATOM     16  C   UNL     1     144.679 162.179 187.526  0.00  0.00    +0.164 A 
ATOM     17  C   UNL     1     143.468 162.812 187.424  0.00  0.00    +0.125 A 
ATOM     18  O   UNL     1     143.700 164.156 187.367  0.00  0.00    -0.442 OA
ATOM     19  C   UNL     1     144.890 160.636 187.623  0.00  0.00    +0.249 A 
ATOM     20  N   UNL     1     146.083 160.076 187.741  0.00  0.00    -0.210 NA
ATOM     21  C   UNL     1     145.835 158.724 187.827  0.00  0.00    +0.109 A 
ATOM     22  C   UNL     1     144.477 158.515 187.744  0.00  0.00    +0.118 A 
ATOM     23  O   UNL     1     143.862 159.722 187.610  0.00  0.00    -0.442 OA
ATOM     24  C   UNL     1     146.945 157.738 188.046  0.00  0.00    +0.113 C 
ATOM     25  C   UNL     1     147.816 158.150 189.252  0.00  0.00    +0.051 C 
ATOM     26  C   UNL     1     148.884 157.089 189.478  0.00  0.00    +0.161 C 
ATOM     27  O   UNL     1     148.619 155.887 189.478  0.00  0.00    -0.292 OA
ATOM     28  C   UNL     1     150.291 157.494 189.770  0.00  0.00    -0.023 C 
ATOM     29  C   UNL     1     150.653 158.679 190.292  0.00  0.00    -0.078 C 
ATOM     30  C   UNL     1     152.079 159.040 190.614  0.00  0.00    -0.008 C 
ATOM     31  C   UNL     1     152.566 160.313 189.896  0.00  0.00    +0.069 C 
ATOM     32  C   UNL     1     151.999 161.594 190.518  0.00  0.00    +0.071 C 
ATOM     33  C   UNL     1     151.781 162.667 189.478  0.00  0.00    +0.310 C 
ATOM     34  O   UNL     1     151.587 162.462 188.290  0.00  0.00    -0.251 OA
ATOM     35  O   UNL     1     151.746 163.889 190.083  0.00  0.00    -0.461 OA
ATOM     36  C   UNL     1     151.324 165.015 189.266  0.00  0.00    +0.110 C 
ATOM     37  H   UNL     1     153.259 164.725 188.399  0.00  0.00    +0.036 HD
ATOM     38  H   UNL     1     153.276 166.602 186.765  0.00  0.00    +0.060 HD
ATOM     39  H   UNL     1     151.449 168.074 187.704  0.00  0.00    +0.033 HD
ATOM     40  H   UNL     1     151.419 167.737 185.974  0.00  0.00    +0.033 HD
ATOM     41  H   UNL     1     149.670 165.780 186.739  0.00  0.00    +0.057 HD
ATOM     42  H   UNL     1     148.872 168.659 187.482  0.00  0.00    +0.067 HD
ATOM     43  H   UNL     1     144.287 167.270 187.280  0.00  0.00    +0.105 HD
ATOM     44  H   UNL     1     142.441 162.492 187.382  0.00  0.00    +0.105 HD
ATOM     45  H   UNL     1     143.831 157.649 187.776  0.00  0.00    +0.105 HD
ATOM     46  H   UNL     1     146.520 156.741 188.225  0.00  0.00    +0.067 HD
ATOM     47  H   UNL     1     148.304 159.103 189.019  0.00  0.00    +0.041 HD
ATOM     48  H   UNL     1     151.022 156.716 189.571  0.00  0.00    +0.065 HD
ATOM     49  H   UNL     1     149.905 159.430 190.531  0.00  0.00    +0.057 HD
ATOM     50  H   UNL     1     152.179 159.169 191.699  0.00  0.00    +0.033 HD
ATOM     51  H   UNL     1     152.746 158.207 190.358  0.00  0.00    +0.033 HD
ATOM     52  H   UNL     1     152.335 160.235 188.828  0.00  0.00    +0.060 HD
ATOM     53  H   UNL     1     152.685 161.977 191.282  0.00  0.00    +0.040 HD
ATOM     54  H   UNL     1     151.021 161.425 190.981  0.00  0.00    +0.040 HD
ATOM     55  H   UNL     1     150.575 164.660 188.552  0.00  0.00    +0.074 HD
BRANCH   4  56
ATOM     56  C   UNL     1     153.393 166.566 189.379  0.00  0.00    -0.057 C 
ATOM     57  H   UNL     1     154.470 166.376 189.328  0.00  0.00    +0.023 HD
ATOM     58  H   UNL     1     153.209 167.598 189.061  0.00  0.00    +0.023 HD
ATOM     59  H   UNL     1     153.102 166.496 190.434  0.00  0.00    +0.023 HD
ENDBRANCH   4  56
BRANCH  25  60
ATOM     60  C   UNL     1     147.015 158.282 190.551  0.00  0.00    -0.053 C 
ATOM     61  H   UNL     1     145.975 157.968 190.413  0.00  0.00    +0.024 HD
ATOM     62  H   UNL     1     147.001 159.319 190.897  0.00  0.00    +0.024 HD
ATOM     63  H   UNL     1     147.441 157.663 191.345  0.00  0.00    +0.024 HD
ENDBRANCH  25  60
BRANCH  31  64
ATOM     64  O   UNL     1     153.995 160.374 190.014  0.00  0.00    -0.391 OA
ATOM     65  H   UNL     1     154.344 160.723 189.172  0.00  0.00    +0.210 HD
ENDBRANCH  31  64
BRANCH  24  66
ATOM     66  O   UNL     1     147.815 157.673 186.899  0.00  0.00    -0.373 OA
BRANCH  66  67
ATOM     67  C   UNL     1     147.359 156.767 185.904  0.00  0.00    +0.037 C 
ATOM     68  H   UNL     1     146.279 156.847 185.764  0.00  0.00    +0.052 HD
ATOM     69  H   UNL     1     147.635 155.741 186.167  0.00  0.00    +0.052 HD
ATOM     70  H   UNL     1     147.849 157.021 184.960  0.00  0.00    +0.052 HD
ENDBRANCH  66  67
ENDBRANCH  24  66
BRANCH   5  71
ATOM     71  O   UNL     1     151.977 165.135 186.163  0.00  0.00    -0.379 OA
BRANCH  71  72
ATOM     72  C   UNL     1     152.656 165.209 184.919  0.00  0.00    +0.037 C 
ATOM     73  H   UNL     1     151.908 165.336 184.129  0.00  0.00    +0.052 HD
ATOM     74  H   UNL     1     153.332 166.070 184.893  0.00  0.00    +0.052 HD
ATOM     75  H   UNL     1     153.209 164.293 184.709  0.00  0.00    +0.052 HD
ENDBRANCH  71  72
ENDBRANCH   5  71
ENDBRANCH   1  36
BRANCH   1  76
ATOM     76  C   UNL     1     151.165 165.974 191.699  0.00  0.00    +0.064 C 
ATOM     77  H   UNL     1     152.109 165.416 191.734  0.00  0.00    +0.060 HD
BRANCH  76  78
ATOM     78  C   UNL     1     151.404 167.338 192.410  0.00  0.00    -0.017 C 
ATOM     79  H   UNL     1     150.695 167.433 193.238  0.00  0.00    +0.032 HD
BRANCH  78  80
ATOM     80  C   UNL     1     152.834 167.468 192.961  0.00  0.00    -0.060 C 
ATOM     81  H   UNL     1     153.540 167.718 192.163  0.00  0.00    +0.023 HD
ATOM     82  H   UNL     1     153.168 166.534 193.424  0.00  0.00    +0.023 HD
ATOM     83  H   UNL     1     152.919 168.261 193.708  0.00  0.00    +0.023 HD
ENDBRANCH  78  80
BRANCH  78  84
ATOM     84  C   UNL     1     151.108 168.478 191.401  0.00  0.00    -0.045 C 
ATOM     85  H   UNL     1     152.017 169.073 191.303  0.00  0.00    +0.027 HD
ATOM     86  H   UNL     1     150.902 168.042 190.416  0.00  0.00    +0.027 HD
BRANCH  84  87
ATOM     87  C   UNL     1     149.955 169.408 191.779  0.00  0.00    -0.015 C 
ATOM     88  H   UNL     1     150.110 170.413 191.372  0.00  0.00    +0.030 HD
ATOM     89  H   UNL     1     149.952 169.546 192.870  0.00  0.00    +0.030 HD
BRANCH  87  90
ATOM     90  C   UNL     1     148.565 168.897 191.349  0.00  0.00    +0.109 C 
ATOM     91  H   UNL     1     148.693 168.326 190.422  0.00  0.00    +0.074 HD
BRANCH  90  92
ATOM     92  C   UNL     1     147.431 169.958 191.134  0.00  0.00    +0.031 C 
ATOM     93  H   UNL     1     146.663 169.708 191.879  0.00  0.00    +0.037 HD
BRANCH  92  94
ATOM     94  C   UNL     1     146.767 169.780 189.763  0.00  0.00    -0.056 C 
ATOM     95  H   UNL     1     147.472 169.490 188.982  0.00  0.00    +0.023 HD
ATOM     96  H   UNL     1     145.976 169.024 189.798  0.00  0.00    +0.023 HD
ATOM     97  H   UNL     1     146.286 170.708 189.442  0.00  0.00    +0.023 HD
ENDBRANCH  92  94
BRANCH  92  98
ATOM     98  C   UNL     1     147.885 171.421 191.437  0.00  0.00    +0.115 C 
ATOM     99  H   UNL     1     148.959 171.492 191.236  0.00  0.00    +0.074 HD
BRANCH  98 100
ATOM    100  C   UNL     1     147.172 172.573 190.665  0.00  0.00    +0.013 C 
ATOM    101  H   UNL     1     147.015 172.222 189.634  0.00  0.00    +0.038 HD
BRANCH 100 102
ATOM    102  C   UNL     1     148.034 173.830 190.499  0.00  0.00    -0.056 C 
ATOM    103  H   UNL     1     148.577 173.842 189.549  0.00  0.00    +0.024 HD
ATOM    104  H   UNL     1     147.418 174.732 190.548  0.00  0.00    +0.024 HD
ATOM    105  H   UNL     1     148.778 173.895 191.301  0.00  0.00    +0.024 HD
ENDBRANCH 100 102
BRANCH 100 106
ATOM    106  C   UNL     1     145.803 172.905 191.222  0.00  0.00    -0.064 C 
ATOM    107  C   UNL     1     144.765 173.182 190.420  0.00  0.00    -0.005 C 
ATOM    108  H   UNL     1     145.707 172.909 192.301  0.00  0.00    +0.059 HD
ATOM    109  H   UNL     1     144.924 173.163 189.338  0.00  0.00    +0.078 HD
BRANCH 107 110
ATOM    110  N   UNL     1     143.464 173.488 190.792  0.00  0.00    -0.284 N 
ATOM    111  C   UNL     1     143.088 174.050 192.003  0.00  0.00    +0.206 C 
ATOM    112  O   UNL     1     141.942 174.325 192.352  0.00  0.00    -0.279 OA
ATOM    113  H   UNL     1     143.927 174.240 192.686  0.00  0.00    +0.126 HD
BRANCH 110 114
ATOM    114  C   UNL     1     142.408 173.162 189.836  0.00  0.00    +0.007 C 
ATOM    115  H   UNL     1     141.535 173.808 189.957  0.00  0.00    +0.043 HD
ATOM    116  H   UNL     1     142.789 173.279 188.818  0.00  0.00    +0.043 HD
ATOM    117  H   UNL     1     142.103 172.124 189.995  0.00  0.00    +0.043 HD
ENDBRANCH 110 114
ENDBRANCH 107 110
ENDBRANCH 100 106
ENDBRANCH  98 100
BRANCH  98 118
ATOM    118  O   UNL     1     147.669 171.654 192.857  0.00  0.00    -0.461 OA
BRANCH 118 119
ATOM    119  C   UNL     1     148.508 172.531 193.474  0.00  0.00    +0.304 C 
ATOM    120  O   UNL     1     149.727 172.479 193.454  0.00  0.00    -0.251 OA
BRANCH 119 121
ATOM    121  C   UNL     1     147.713 173.584 194.184  0.00  0.00    +0.033 C 
ATOM    122  H   UNL     1     147.986 173.602 195.241  0.00  0.00    +0.034 HD
ATOM    123  H   UNL     1     146.648 173.346 194.106  0.00  0.00    +0.034 HD
ATOM    124  H   UNL     1     147.887 174.559 193.723  0.00  0.00    +0.034 HD
ENDBRANCH 119 121
ENDBRANCH 118 119
ENDBRANCH  98 118
ENDBRANCH  92  98
ENDBRANCH  90  92
BRANCH  90 125
ATOM    125  O   UNL     1     148.103 168.021 192.411  0.00  0.00    -0.459 OA
BRANCH 125 126
ATOM    126  C   UNL     1     147.362 166.926 192.053  0.00  0.00    +0.339 C 
ATOM    127  O   UNL     1     147.295 166.464 190.921  0.00  0.00    -0.248 OA
BRANCH 126 128
ATOM    128  C   UNL     1     146.677 166.347 193.307  0.00  0.00    +0.178 C 
ATOM    129  H   UNL     1     146.708 165.251 193.223  0.00  0.00    +0.074 HD
BRANCH 128 130
ATOM    130  C   UNL     1     147.486 166.759 194.550  0.00  0.00    +0.084 C 
ATOM    131  H   UNL     1     146.902 167.425 195.195  0.00  0.00    +0.059 HD
ATOM    132  H   UNL     1     148.390 167.290 194.230  0.00  0.00    +0.059 HD
BRANCH 130 133
ATOM    133  O   UNL     1     147.868 165.607 195.312  0.00  0.00    -0.380 OA
BRANCH 133 134
ATOM    134  C   UNL     1     148.863 165.916 196.277  0.00  0.00    +0.037 C 
ATOM    135  H   UNL     1     149.662 166.510 195.824  0.00  0.00    +0.052 HD
ATOM    136  H   UNL     1     148.426 166.454 197.124  0.00  0.00    +0.052 HD
ATOM    137  H   UNL     1     149.292 164.976 196.641  0.00  0.00    +0.052 HD
ENDBRANCH 133 134
ENDBRANCH 130 133
ENDBRANCH 128 130
BRANCH 128 138
ATOM    138  O   UNL     1     145.318 166.726 193.544  0.00  0.00    -0.366 OA
BRANCH 138 139
ATOM    139  C   UNL     1     144.449 166.420 192.464  0.00  0.00    +0.038 C 
ATOM    140  H   UNL     1     144.801 166.881 191.535  0.00  0.00    +0.052 HD
ATOM    141  H   UNL     1     143.427 166.741 192.683  0.00  0.00    +0.052 HD
ATOM    142  H   UNL     1     144.442 165.334 192.330  0.00  0.00    +0.052 HD
ENDBRANCH 138 139
ENDBRANCH 128 138
ENDBRANCH 126 128
ENDBRANCH 125 126
ENDBRANCH  90 125
ENDBRANCH  87  90
ENDBRANCH  84  87
ENDBRANCH  78  84
ENDBRANCH  76  78
BRANCH  76 143
ATOM    143  O   UNL     1     150.161 165.272 192.464  0.00  0.00    -0.379 OA
BRANCH 143 144
ATOM    144  C   UNL     1     150.699 164.396 193.445  0.00  0.00    +0.037 C 
ATOM    145  H   UNL     1     151.675 164.784 193.751  0.00  0.00    +0.052 HD
ATOM    146  H   UNL     1     150.051 164.353 194.325  0.00  0.00    +0.052 HD
ATOM    147  H   UNL     1     150.841 163.394 193.025  0.00  0.00    +0.052 HD
ENDBRANCH 143 144
ENDBRANCH  76 143
ENDBRANCH   1  76
TORSDOF 35
ENDMDL
MODEL 5
REMARK VINA RESULT:      -5.5      1.760      4.452
REMARK  Name = Mycalolide B_conf1
REMARK  35 active torsions:
REMARK  status: ('A' for Active; 'I' for Inactive)
REMARK    1  A    between atoms: C_1  and  C_2
REMARK    2  A    between atoms: C_3  and  O_72
REMARK    3  A    between atoms: C_22  and  O_70
REMARK    4  A    between atoms: C_23  and  C_69
REMARK    5  A    between atoms: C_29  and  O_68
REMARK    6  A    between atoms: C_34  and  C_35
REMARK    7  A    between atoms: C_35  and  C_36
REMARK    8  A    between atoms: C_36  and  C_37
REMARK    9  A    between atoms: C_36  and  O_66
REMARK   10  A    between atoms: C_37  and  C_38
REMARK   11  A    between atoms: C_37  and  C_39
REMARK   12  A    between atoms: C_39  and  C_40
REMARK   13  A    between atoms: C_40  and  C_41
REMARK   14  A    between atoms: C_41  and  C_42
REMARK   15  A    between atoms: C_41  and  O_57
REMARK   16  A    between atoms: C_42  and  C_43
REMARK   17  A    between atoms: C_42  and  C_44
REMARK   18  A    between atoms: C_44  and  C_45
REMARK   19  A    between atoms: C_44  and  O_53
REMARK   20  A    between atoms: C_45  and  C_46
REMARK   21  A    between atoms: C_45  and  C_47
REMARK   22  A    between atoms: C_48  and  N_49
REMARK   23  A    between atoms: N_49  and  C_50
REMARK   24  A    between atoms: O_53  and  C_54
REMARK   25  A    between atoms: C_54  and  C_56
REMARK   26  A    between atoms: O_57  and  C_58
REMARK   27  A    between atoms: C_58  and  C_60
REMARK   28  A    between atoms: C_60  and  C_61
REMARK   29  A    between atoms: C_60  and  O_64
REMARK   30  A    between atoms: C_61  and  O_62
REMARK   31  A    between atoms: O_62  and  C_63
REMARK   32  A    between atoms: O_64  and  C_65
REMARK   33  A    between atoms: O_66  and  C_67
REMARK   34  A    between atoms: O_70  and  C_71
REMARK   35  A    between atoms: O_72  and  C_73
REMARK                            x       y       z     vdW  Elec       q    Type
REMARK                         _______ _______ _______ _____ _____    ______ ____
ROOT
ATOM      1  C   UNL     1     150.741 166.828 190.594  0.00  0.00    +0.011 C 
ATOM      2  H   UNL     1     151.830 166.954 190.641  0.00  0.00    +0.033 HD
ATOM      3  H   UNL     1     150.579 165.746 190.650  0.00  0.00    +0.033 HD
ENDROOT
BRANCH   1  36
ATOM      4  C   UNL     1     150.759 167.183 193.167  0.00  0.00    +0.020 C 
ATOM      5  C   UNL     1     150.118 166.026 193.990  0.00  0.00    +0.068 C 
ATOM      6  C   UNL     1     149.968 164.643 193.295  0.00  0.00    -0.008 C 
ATOM      7  C   UNL     1     148.834 164.537 192.314  0.00  0.00    -0.077 C 
ATOM      8  C   UNL     1     148.727 163.625 191.334  0.00  0.00    -0.003 C 
ATOM      9  C   UNL     1     147.609 163.664 190.453  0.00  0.00    +0.220 A 
ATOM     10  N   UNL     1     146.796 164.696 190.288  0.00  0.00    -0.205 NA
ATOM     11  C   UNL     1     145.867 164.296 189.364  0.00  0.00    +0.164 A 
ATOM     12  C   UNL     1     146.148 163.021 188.959  0.00  0.00    +0.125 A 
ATOM     13  O   UNL     1     147.264 162.608 189.624  0.00  0.00    -0.443 OA
ATOM     14  C   UNL     1     144.683 165.186 188.878  0.00  0.00    +0.250 A 
ATOM     15  N   UNL     1     144.509 166.424 189.299  0.00  0.00    -0.203 NA
ATOM     16  C   UNL     1     143.372 166.849 188.662  0.00  0.00    +0.164 A 
ATOM     17  C   UNL     1     142.886 165.846 187.866  0.00  0.00    +0.125 A 
ATOM     18  O   UNL     1     143.719 164.773 187.986  0.00  0.00    -0.442 OA
ATOM     19  C   UNL     1     142.735 168.264 188.830  0.00  0.00    +0.249 A 
ATOM     20  N   UNL     1     143.259 169.206 189.599  0.00  0.00    -0.210 NA
ATOM     21  C   UNL     1     142.427 170.293 189.447  0.00  0.00    +0.109 A 
ATOM     22  C   UNL     1     141.407 169.956 188.586  0.00  0.00    +0.118 A 
ATOM     23  O   UNL     1     141.588 168.667 188.187  0.00  0.00    -0.442 OA
ATOM     24  C   UNL     1     142.726 171.604 190.111  0.00  0.00    +0.113 C 
ATOM     25  C   UNL     1     144.173 172.054 189.813  0.00  0.00    +0.051 C 
ATOM     26  C   UNL     1     144.409 173.417 190.448  0.00  0.00    +0.161 C 
ATOM     27  O   UNL     1     143.599 174.338 190.338  0.00  0.00    -0.292 OA
ATOM     28  C   UNL     1     145.681 173.691 191.181  0.00  0.00    -0.023 C 
ATOM     29  C   UNL     1     146.835 173.032 190.981  0.00  0.00    -0.078 C 
ATOM     30  C   UNL     1     148.113 173.362 191.707  0.00  0.00    -0.008 C 
ATOM     31  C   UNL     1     148.701 172.170 192.486  0.00  0.00    +0.069 C 
ATOM     32  C   UNL     1     149.374 171.141 191.568  0.00  0.00    +0.071 C 
ATOM     33  C   UNL     1     149.228 169.738 192.106  0.00  0.00    +0.310 C 
ATOM     34  O   UNL     1     148.331 169.360 192.845  0.00  0.00    -0.251 OA
ATOM     35  O   UNL     1     150.196 168.941 191.572  0.00  0.00    -0.461 OA
ATOM     36  C   UNL     1     150.074 167.511 191.805  0.00  0.00    +0.110 C 
ATOM     37  H   UNL     1     150.662 168.088 193.780  0.00  0.00    +0.036 HD
ATOM     38  H   UNL     1     150.763 165.848 194.862  0.00  0.00    +0.060 HD
ATOM     39  H   UNL     1     150.916 164.343 192.837  0.00  0.00    +0.033 HD
ATOM     40  H   UNL     1     149.750 163.914 194.088  0.00  0.00    +0.033 HD
ATOM     41  H   UNL     1     148.022 165.257 192.450  0.00  0.00    +0.057 HD
ATOM     42  H   UNL     1     149.470 162.849 191.190  0.00  0.00    +0.067 HD
ATOM     43  H   UNL     1     145.707 162.320 188.266  0.00  0.00    +0.105 HD
ATOM     44  H   UNL     1     142.039 165.737 187.208  0.00  0.00    +0.105 HD
ATOM     45  H   UNL     1     140.553 170.471 188.170  0.00  0.00    +0.105 HD
ATOM     46  H   UNL     1     142.024 172.368 189.749  0.00  0.00    +0.067 HD
ATOM     47  H   UNL     1     144.862 171.328 190.261  0.00  0.00    +0.041 HD
ATOM     48  H   UNL     1     145.617 174.525 191.874  0.00  0.00    +0.065 HD
ATOM     49  H   UNL     1     146.895 172.232 190.248  0.00  0.00    +0.057 HD
ATOM     50  H   UNL     1     148.852 173.728 190.983  0.00  0.00    +0.033 HD
ATOM     51  H   UNL     1     147.947 174.196 192.401  0.00  0.00    +0.033 HD
ATOM     52  H   UNL     1     147.915 171.720 193.104  0.00  0.00    +0.060 HD
ATOM     53  H   UNL     1     150.440 171.370 191.465  0.00  0.00    +0.040 HD
ATOM     54  H   UNL     1     148.921 171.126 190.571  0.00  0.00    +0.040 HD
ATOM     55  H   UNL     1     149.011 167.256 191.827  0.00  0.00    +0.074 HD
BRANCH   4  56
ATOM     56  C   UNL     1     152.278 166.980 193.053  0.00  0.00    -0.057 C 
ATOM     57  H   UNL     1     152.636 167.056 192.022  0.00  0.00    +0.023 HD
ATOM     58  H   UNL     1     152.818 167.712 193.662  0.00  0.00    +0.023 HD
ATOM     59  H   UNL     1     152.560 165.984 193.420  0.00  0.00    +0.023 HD
ENDBRANCH   4  56
BRANCH  25  60
ATOM     60  C   UNL     1     144.461 172.187 188.315  0.00  0.00    -0.053 C 
ATOM     61  H   UNL     1     144.588 173.235 188.023  0.00  0.00    +0.024 HD
ATOM     62  H   UNL     1     143.639 171.778 187.722  0.00  0.00    +0.024 HD
ATOM     63  H   UNL     1     145.378 171.658 188.038  0.00  0.00    +0.024 HD
ENDBRANCH  25  60
BRANCH  31  64
ATOM     64  O   UNL     1     149.705 172.670 193.379  0.00  0.00    -0.391 OA
ATOM     65  H   UNL     1     149.504 172.324 194.269  0.00  0.00    +0.210 HD
ENDBRANCH  31  64
BRANCH  24  66
ATOM     66  O   UNL     1     142.602 171.501 191.544  0.00  0.00    -0.373 OA
BRANCH  66  67
ATOM     67  C   UNL     1     141.461 172.176 192.055  0.00  0.00    +0.037 C 
ATOM     68  H   UNL     1     141.523 173.251 191.870  0.00  0.00    +0.052 HD
ATOM     69  H   UNL     1     141.349 171.978 193.126  0.00  0.00    +0.052 HD
ATOM     70  H   UNL     1     140.577 171.788 191.542  0.00  0.00    +0.052 HD
ENDBRANCH  66  67
ENDBRANCH  24  66
BRANCH   5  71
ATOM     71  O   UNL     1     148.819 166.382 194.491  0.00  0.00    -0.379 OA
BRANCH  71  72
ATOM     72  C   UNL     1     148.644 166.191 195.887  0.00  0.00    +0.037 C 
ATOM     73  H   UNL     1     147.571 166.113 196.089  0.00  0.00    +0.052 HD
ATOM     74  H   UNL     1     149.124 165.264 196.217  0.00  0.00    +0.052 HD
ATOM     75  H   UNL     1     149.030 167.036 196.458  0.00  0.00    +0.052 HD
ENDBRANCH  71  72
ENDBRANCH   5  71
ENDBRANCH   1  36
BRANCH   1  76
ATOM     76  C   UNL     1     150.263 167.288 189.200  0.00  0.00    +0.064 C 
ATOM     77  H   UNL     1     150.289 168.385 189.166  0.00  0.00    +0.060 HD
BRANCH  76  78
ATOM     78  C   UNL     1     151.059 166.764 187.969  0.00  0.00    -0.017 C 
ATOM     79  H   UNL     1     151.214 165.687 188.083  0.00  0.00    +0.032 HD
BRANCH  78  80
ATOM     80  C   UNL     1     150.324 167.026 186.644  0.00  0.00    -0.060 C 
ATOM     81  H   UNL     1     150.783 166.465 185.824  0.00  0.00    +0.023 HD
ATOM     82  H   UNL     1     150.346 168.087 186.380  0.00  0.00    +0.023 HD
ATOM     83  H   UNL     1     149.278 166.713 186.683  0.00  0.00    +0.023 HD
ENDBRANCH  78  80
BRANCH  78  84
ATOM     84  C   UNL     1     152.452 167.444 187.958  0.00  0.00    -0.045 C 
ATOM     85  H   UNL     1     152.295 168.513 187.809  0.00  0.00    +0.027 HD
ATOM     86  H   UNL     1     152.920 167.322 188.942  0.00  0.00    +0.027 HD
BRANCH  84  87
ATOM     87  C   UNL     1     153.421 166.941 186.887  0.00  0.00    -0.015 C 
ATOM     88  H   UNL     1     154.042 167.758 186.503  0.00  0.00    +0.030 HD
ATOM     89  H   UNL     1     152.843 166.597 186.018  0.00  0.00    +0.030 HD
BRANCH  87  90
ATOM     90  C   UNL     1     154.333 165.787 187.352  0.00  0.00    +0.109 C 
ATOM     91  H   UNL     1     153.963 164.865 186.890  0.00  0.00    +0.074 HD
BRANCH  90  92
ATOM     92  C   UNL     1     154.484 165.552 188.895  0.00  0.00    +0.031 C 
ATOM     93  H   UNL     1     153.733 166.208 189.357  0.00  0.00    +0.037 HD
BRANCH  92  94
ATOM     94  C   UNL     1     155.847 166.047 189.394  0.00  0.00    -0.056 C 
ATOM     95  H   UNL     1     156.631 165.293 189.314  0.00  0.00    +0.023 HD
ATOM     96  H   UNL     1     156.176 166.932 188.841  0.00  0.00    +0.023 HD
ATOM     97  H   UNL     1     155.789 166.349 190.443  0.00  0.00    +0.023 HD
ENDBRANCH  92  94
BRANCH  92  98
ATOM     98  C   UNL     1     154.135 164.096 189.337  0.00  0.00    +0.115 C 
ATOM     99  H   UNL     1     154.698 163.872 190.249  0.00  0.00    +0.074 HD
BRANCH  98 100
ATOM    100  C   UNL     1     152.635 163.761 189.603  0.00  0.00    +0.013 C 
ATOM    101  H   UNL     1     152.140 164.702 189.887  0.00  0.00    +0.038 HD
BRANCH 100 102
ATOM    102  C   UNL     1     152.412 162.847 190.813  0.00  0.00    -0.056 C 
ATOM    103  H   UNL     1     153.352 162.514 191.263  0.00  0.00    +0.024 HD
ATOM    104  H   UNL     1     151.831 163.360 191.585  0.00  0.00    +0.024 HD
ATOM    105  H   UNL     1     151.853 161.950 190.521  0.00  0.00    +0.024 HD
ENDBRANCH 100 102
BRANCH 100 106
ATOM    106  C   UNL     1     151.913 163.246 188.374  0.00  0.00    -0.064 C 
ATOM    107  C   UNL     1     150.574 163.235 188.297  0.00  0.00    -0.005 C 
ATOM    108  H   UNL     1     152.534 162.886 187.563  0.00  0.00    +0.059 HD
ATOM    109  H   UNL     1     150.002 163.610 189.150  0.00  0.00    +0.078 HD
BRANCH 107 110
ATOM    110  N   UNL     1     149.789 162.807 187.237  0.00  0.00    -0.284 N 
ATOM    111  C   UNL     1     148.882 163.595 186.543  0.00  0.00    +0.206 C 
ATOM    112  O   UNL     1     148.176 163.233 185.604  0.00  0.00    -0.279 OA
ATOM    113  H   UNL     1     148.816 164.627 186.910  0.00  0.00    +0.126 HD
BRANCH 110 114
ATOM    114  C   UNL     1     149.914 161.405 186.844  0.00  0.00    +0.007 C 
ATOM    115  H   UNL     1     149.658 161.252 185.793  0.00  0.00    +0.043 HD
ATOM    116  H   UNL     1     150.943 161.072 187.004  0.00  0.00    +0.043 HD
ATOM    117  H   UNL     1     149.236 160.809 187.462  0.00  0.00    +0.043 HD
ENDBRANCH 110 114
ENDBRANCH 107 110
ENDBRANCH 100 106
ENDBRANCH  98 100
BRANCH  98 118
ATOM    118  O   UNL     1     154.596 163.203 188.284  0.00  0.00    -0.461 OA
BRANCH 118 119
ATOM    119  C   UNL     1     155.337 162.128 188.666  0.00  0.00    +0.304 C 
ATOM    120  O   UNL     1     155.401 161.063 188.072  0.00  0.00    -0.251 OA
BRANCH 119 121
ATOM    121  C   UNL     1     156.077 162.441 189.931  0.00  0.00    +0.033 C 
ATOM    122  H   UNL     1     155.368 162.718 190.713  0.00  0.00    +0.034 HD
ATOM    123  H   UNL     1     156.748 163.287 189.756  0.00  0.00    +0.034 HD
ATOM    124  H   UNL     1     156.674 161.579 190.238  0.00  0.00    +0.034 HD
ENDBRANCH 119 121
ENDBRANCH 118 119
ENDBRANCH  98 118
ENDBRANCH  92  98
ENDBRANCH  90  92
BRANCH  90 125
ATOM    125  O   UNL     1     155.664 166.091 186.858  0.00  0.00    -0.459 OA
BRANCH 125 126
ATOM    126  C   UNL     1     156.054 165.501 185.685  0.00  0.00    +0.339 C 
ATOM    127  O   UNL     1     155.754 164.366 185.336  0.00  0.00    -0.248 OA
BRANCH 126 128
ATOM    128  C   UNL     1     156.882 166.510 184.864  0.00  0.00    +0.178 C 
ATOM    129  H   UNL     1     157.410 165.943 184.083  0.00  0.00    +0.074 HD
BRANCH 128 130
ATOM    130  C   UNL     1     155.922 167.497 184.176  0.00  0.00    +0.084 C 
ATOM    131  H   UNL     1     154.879 167.187 184.309  0.00  0.00    +0.059 HD
ATOM    132  H   UNL     1     156.142 167.522 183.102  0.00  0.00    +0.059 HD
BRANCH 130 133
ATOM    133  O   UNL     1     156.077 168.816 184.714  0.00  0.00    -0.380 OA
BRANCH 133 134
ATOM    134  C   UNL     1     156.208 169.794 183.693  0.00  0.00    +0.037 C 
ATOM    135  H   UNL     1     156.696 170.691 184.085  0.00  0.00    +0.052 HD
ATOM    136  H   UNL     1     156.774 169.395 182.846  0.00  0.00    +0.052 HD
ATOM    137  H   UNL     1     155.205 170.066 183.348  0.00  0.00    +0.052 HD
ENDBRANCH 133 134
ENDBRANCH 130 133
ENDBRANCH 128 130
BRANCH 128 138
ATOM    138  O   UNL     1     157.853 167.288 185.569  0.00  0.00    -0.366 OA
BRANCH 138 139
ATOM    139  C   UNL     1     159.189 166.869 185.338  0.00  0.00    +0.038 C 
ATOM    140  H   UNL     1     159.841 167.160 186.169  0.00  0.00    +0.052 HD
ATOM    141  H   UNL     1     159.569 167.277 184.397  0.00  0.00    +0.052 HD
ATOM    142  H   UNL     1     159.195 165.777 185.260  0.00  0.00    +0.052 HD
ENDBRANCH 138 139
ENDBRANCH 128 138
ENDBRANCH 126 128
ENDBRANCH 125 126
ENDBRANCH  90 125
ENDBRANCH  87  90
ENDBRANCH  84  87
ENDBRANCH  78  84
ENDBRANCH  76  78
BRANCH  76 143
ATOM    143  O   UNL     1     148.901 166.833 189.046  0.00  0.00    -0.379 OA
BRANCH 143 144
ATOM    144  C   UNL     1     147.944 167.883 189.044  0.00  0.00    +0.037 C 
ATOM    145  H   UNL     1     148.299 168.668 188.369  0.00  0.00    +0.052 HD
ATOM    146  H   UNL     1     146.976 167.526 188.683  0.00  0.00    +0.052 HD
ATOM    147  H   UNL     1     147.844 168.310 190.048  0.00  0.00    +0.052 HD
ENDBRANCH 143 144
ENDBRANCH  76 143
ENDBRANCH   1  76
TORSDOF 35
ENDMDL
MODEL 6
REMARK VINA RESULT:      -5.4      1.909      4.351
REMARK  Name = Mycalolide B_conf1
REMARK  35 active torsions:
REMARK  status: ('A' for Active; 'I' for Inactive)
REMARK    1  A    between atoms: C_1  and  C_2
REMARK    2  A    between atoms: C_3  and  O_72
REMARK    3  A    between atoms: C_22  and  O_70
REMARK    4  A    between atoms: C_23  and  C_69
REMARK    5  A    between atoms: C_29  and  O_68
REMARK    6  A    between atoms: C_34  and  C_35
REMARK    7  A    between atoms: C_35  and  C_36
REMARK    8  A    between atoms: C_36  and  C_37
REMARK    9  A    between atoms: C_36  and  O_66
REMARK   10  A    between atoms: C_37  and  C_38
REMARK   11  A    between atoms: C_37  and  C_39
REMARK   12  A    between atoms: C_39  and  C_40
REMARK   13  A    between atoms: C_40  and  C_41
REMARK   14  A    between atoms: C_41  and  C_42
REMARK   15  A    between atoms: C_41  and  O_57
REMARK   16  A    between atoms: C_42  and  C_43
REMARK   17  A    between atoms: C_42  and  C_44
REMARK   18  A    between atoms: C_44  and  C_45
REMARK   19  A    between atoms: C_44  and  O_53
REMARK   20  A    between atoms: C_45  and  C_46
REMARK   21  A    between atoms: C_45  and  C_47
REMARK   22  A    between atoms: C_48  and  N_49
REMARK   23  A    between atoms: N_49  and  C_50
REMARK   24  A    between atoms: O_53  and  C_54
REMARK   25  A    between atoms: C_54  and  C_56
REMARK   26  A    between atoms: O_57  and  C_58
REMARK   27  A    between atoms: C_58  and  C_60
REMARK   28  A    between atoms: C_60  and  C_61
REMARK   29  A    between atoms: C_60  and  O_64
REMARK   30  A    between atoms: C_61  and  O_62
REMARK   31  A    between atoms: O_62  and  C_63
REMARK   32  A    between atoms: O_64  and  C_65
REMARK   33  A    between atoms: O_66  and  C_67
REMARK   34  A    between atoms: O_70  and  C_71
REMARK   35  A    between atoms: O_72  and  C_73
REMARK                            x       y       z     vdW  Elec       q    Type
REMARK                         _______ _______ _______ _____ _____    ______ ____
ROOT
ATOM      1  C   UNL     1     150.606 167.002 190.399  0.00  0.00    +0.011 C 
ATOM      2  H   UNL     1     151.613 167.419 190.267  0.00  0.00    +0.033 HD
ATOM      3  H   UNL     1     150.766 165.935 190.588  0.00  0.00    +0.033 HD
ENDROOT
BRANCH   1  36
ATOM      4  C   UNL     1     150.600 167.295 192.979  0.00  0.00    +0.020 C 
ATOM      5  C   UNL     1     149.972 166.109 193.770  0.00  0.00    +0.068 C 
ATOM      6  C   UNL     1     149.850 164.741 193.041  0.00  0.00    -0.008 C 
ATOM      7  C   UNL     1     148.725 164.640 192.048  0.00  0.00    -0.077 C 
ATOM      8  C   UNL     1     148.640 163.749 191.047  0.00  0.00    -0.003 C 
ATOM      9  C   UNL     1     147.528 163.791 190.158  0.00  0.00    +0.220 A 
ATOM     10  N   UNL     1     146.700 164.814 190.011  0.00  0.00    -0.205 NA
ATOM     11  C   UNL     1     145.784 164.421 189.071  0.00  0.00    +0.164 A 
ATOM     12  C   UNL     1     146.089 163.160 188.638  0.00  0.00    +0.125 A 
ATOM     13  O   UNL     1     147.207 162.750 189.302  0.00  0.00    -0.443 OA
ATOM     14  C   UNL     1     144.590 165.302 188.597  0.00  0.00    +0.250 A 
ATOM     15  N   UNL     1     144.392 166.527 189.046  0.00  0.00    -0.203 NA
ATOM     16  C   UNL     1     143.253 166.949 188.411  0.00  0.00    +0.164 A 
ATOM     17  C   UNL     1     142.789 165.957 187.587  0.00  0.00    +0.125 A 
ATOM     18  O   UNL     1     143.639 164.895 187.687  0.00  0.00    -0.442 OA
ATOM     19  C   UNL     1     142.592 168.348 188.607  0.00  0.00    +0.249 A 
ATOM     20  N   UNL     1     143.093 169.280 189.403  0.00  0.00    -0.210 NA
ATOM     21  C   UNL     1     142.245 170.357 189.270  0.00  0.00    +0.109 A 
ATOM     22  C   UNL     1     141.238 170.024 188.393  0.00  0.00    +0.118 A 
ATOM     23  O   UNL     1     141.442 168.748 187.965  0.00  0.00    -0.442 OA
ATOM     24  C   UNL     1     142.518 171.657 189.967  0.00  0.00    +0.113 C 
ATOM     25  C   UNL     1     143.959 172.137 189.691  0.00  0.00    +0.051 C 
ATOM     26  C   UNL     1     144.167 173.489 190.360  0.00  0.00    +0.161 C 
ATOM     27  O   UNL     1     143.343 174.398 190.266  0.00  0.00    -0.292 OA
ATOM     28  C   UNL     1     145.430 173.765 191.109  0.00  0.00    -0.023 C 
ATOM     29  C   UNL     1     146.596 173.131 190.903  0.00  0.00    -0.078 C 
ATOM     30  C   UNL     1     147.862 173.464 191.646  0.00  0.00    -0.008 C 
ATOM     31  C   UNL     1     148.464 172.263 192.401  0.00  0.00    +0.069 C 
ATOM     32  C   UNL     1     149.161 171.268 191.464  0.00  0.00    +0.071 C 
ATOM     33  C   UNL     1     149.034 169.850 191.968  0.00  0.00    +0.310 C 
ATOM     34  O   UNL     1     148.139 169.440 192.690  0.00  0.00    -0.251 OA
ATOM     35  O   UNL     1     150.019 169.082 191.422  0.00  0.00    -0.461 OA
ATOM     36  C   UNL     1     149.919 167.645 191.620  0.00  0.00    +0.110 C 
ATOM     37  H   UNL     1     150.483 168.184 193.613  0.00  0.00    +0.036 HD
ATOM     38  H   UNL     1     150.613 165.921 194.642  0.00  0.00    +0.060 HD
ATOM     39  H   UNL     1     150.806 164.467 192.583  0.00  0.00    +0.033 HD
ATOM     40  H   UNL     1     149.638 163.989 193.815  0.00  0.00    +0.033 HD
ATOM     41  H   UNL     1     147.900 165.343 192.195  0.00  0.00    +0.057 HD
ATOM     42  H   UNL     1     149.397 162.990 190.890  0.00  0.00    +0.067 HD
ATOM     43  H   UNL     1     145.665 162.469 187.925  0.00  0.00    +0.105 HD
ATOM     44  H   UNL     1     141.949 165.850 186.920  0.00  0.00    +0.105 HD
ATOM     45  H   UNL     1     140.378 170.535 187.983  0.00  0.00    +0.105 HD
ATOM     46  H   UNL     1     141.806 172.417 189.618  0.00  0.00    +0.067 HD
ATOM     47  H   UNL     1     144.656 171.412 190.127  0.00  0.00    +0.041 HD
ATOM     48  H   UNL     1     145.347 174.582 191.821  0.00  0.00    +0.065 HD
ATOM     49  H   UNL     1     146.675 172.349 190.152  0.00  0.00    +0.057 HD
ATOM     50  H   UNL     1     148.601 173.859 190.937  0.00  0.00    +0.033 HD
ATOM     51  H   UNL     1     147.678 174.278 192.359  0.00  0.00    +0.033 HD
ATOM     52  H   UNL     1     147.682 171.786 193.002  0.00  0.00    +0.060 HD
ATOM     53  H   UNL     1     150.224 171.517 191.375  0.00  0.00    +0.040 HD
ATOM     54  H   UNL     1     148.716 171.269 190.464  0.00  0.00    +0.040 HD
ATOM     55  H   UNL     1     148.860 167.372 191.628  0.00  0.00    +0.074 HD
BRANCH   4  56
ATOM     56  C   UNL     1     152.123 167.120 192.873  0.00  0.00    -0.057 C 
ATOM     57  H   UNL     1     152.416 166.507 192.015  0.00  0.00    +0.023 HD
ATOM     58  H   UNL     1     152.625 168.090 192.792  0.00  0.00    +0.023 HD
ATOM     59  H   UNL     1     152.516 166.627 193.771  0.00  0.00    +0.023 HD
ENDBRANCH   4  56
BRANCH  25  60
ATOM     60  C   UNL     1     144.256 172.310 188.199  0.00  0.00    -0.053 C 
ATOM     61  H   UNL     1     143.627 171.655 187.587  0.00  0.00    +0.024 HD
ATOM     62  H   UNL     1     145.298 172.064 187.977  0.00  0.00    +0.024 HD
ATOM     63  H   UNL     1     144.070 173.338 187.873  0.00  0.00    +0.024 HD
ENDBRANCH  25  60
BRANCH  31  64
ATOM     64  O   UNL     1     149.453 172.758 193.314  0.00  0.00    -0.391 OA
ATOM     65  H   UNL     1     149.958 173.453 192.850  0.00  0.00    +0.210 HD
ENDBRANCH  31  64
BRANCH  24  66
ATOM     66  O   UNL     1     142.385 171.517 191.396  0.00  0.00    -0.373 OA
BRANCH  66  67
ATOM     67  C   UNL     1     141.227 172.158 191.913  0.00  0.00    +0.037 C 
ATOM     68  H   UNL     1     141.192 172.088 193.003  0.00  0.00    +0.052 HD
ATOM     69  H   UNL     1     140.323 171.724 191.474  0.00  0.00    +0.052 HD
ATOM     70  H   UNL     1     141.268 173.214 191.636  0.00  0.00    +0.052 HD
ENDBRANCH  66  67
ENDBRANCH  24  66
BRANCH   5  71
ATOM     71  O   UNL     1     148.663 166.432 194.269  0.00  0.00    -0.379 OA
BRANCH  71  72
ATOM     72  C   UNL     1     148.474 166.182 195.654  0.00  0.00    +0.037 C 
ATOM     73  H   UNL     1     148.959 166.988 196.215  0.00  0.00    +0.052 HD
ATOM     74  H   UNL     1     147.409 166.179 195.908  0.00  0.00    +0.052 HD
ATOM     75  H   UNL     1     148.934 165.241 195.957  0.00  0.00    +0.052 HD
ENDBRANCH  71  72
ENDBRANCH   5  71
ENDBRANCH   1  36
BRANCH   1  76
ATOM     76  C   UNL     1     149.858 167.117 189.054  0.00  0.00    +0.064 C 
ATOM     77  H   UNL     1     150.157 168.054 188.566  0.00  0.00    +0.060 HD
BRANCH  76  78
ATOM     78  C   UNL     1     150.068 165.969 188.024  0.00  0.00    -0.017 C 
ATOM     79  H   UNL     1     149.146 165.382 187.959  0.00  0.00    +0.032 HD
BRANCH  78  80
ATOM     80  C   UNL     1     150.424 166.496 186.624  0.00  0.00    -0.060 C 
ATOM     81  H   UNL     1     150.027 165.838 185.845  0.00  0.00    +0.023 HD
ATOM     82  H   UNL     1     151.507 166.563 186.488  0.00  0.00    +0.023 HD
ATOM     83  H   UNL     1     150.001 167.486 186.436  0.00  0.00    +0.023 HD
ENDBRANCH  78  80
BRANCH  78  84
ATOM     84  C   UNL     1     151.188 165.034 188.551  0.00  0.00    -0.045 C 
ATOM     85  H   UNL     1     152.067 165.649 188.738  0.00  0.00    +0.027 HD
ATOM     86  H   UNL     1     150.880 164.612 189.515  0.00  0.00    +0.027 HD
BRANCH  84  87
ATOM     87  C   UNL     1     151.583 163.890 187.616  0.00  0.00    -0.015 C 
ATOM     88  H   UNL     1     152.121 164.266 186.740  0.00  0.00    +0.030 HD
ATOM     89  H   UNL     1     150.671 163.431 187.209  0.00  0.00    +0.030 HD
BRANCH  87  90
ATOM     90  C   UNL     1     152.424 162.786 188.290  0.00  0.00    +0.109 C 
ATOM     91  H   UNL     1     152.763 162.101 187.504  0.00  0.00    +0.074 HD
BRANCH  90  92
ATOM     92  C   UNL     1     151.749 161.948 189.431  0.00  0.00    +0.031 C 
ATOM     93  H   UNL     1     150.669 162.083 189.281  0.00  0.00    +0.037 HD
BRANCH  92  94
ATOM     94  C   UNL     1     152.065 162.545 190.808  0.00  0.00    -0.056 C 
ATOM     95  H   UNL     1     151.527 162.054 191.621  0.00  0.00    +0.023 HD
ATOM     96  H   UNL     1     153.135 162.487 191.032  0.00  0.00    +0.023 HD
ATOM     97  H   UNL     1     151.807 163.607 190.839  0.00  0.00    +0.023 HD
ENDBRANCH  92  94
BRANCH  92  98
ATOM     98  C   UNL     1     152.027 160.416 189.322  0.00  0.00    +0.115 C 
ATOM     99  H   UNL     1     151.091 159.919 189.048  0.00  0.00    +0.074 HD
BRANCH  98 100
ATOM    100  C   UNL     1     153.130 159.951 188.323  0.00  0.00    +0.013 C 
ATOM    101  H   UNL     1     153.278 160.768 187.602  0.00  0.00    +0.038 HD
BRANCH 100 102
ATOM    102  C   UNL     1     152.711 158.761 187.453  0.00  0.00    -0.056 C 
ATOM    103  H   UNL     1     153.569 158.184 187.093  0.00  0.00    +0.024 HD
ATOM    104  H   UNL     1     152.059 158.083 188.010  0.00  0.00    +0.024 HD
ATOM    105  H   UNL     1     152.156 159.104 186.572  0.00  0.00    +0.024 HD
ENDBRANCH 100 102
BRANCH 100 106
ATOM    106  C   UNL     1     154.471 159.712 188.987  0.00  0.00    -0.064 C 
ATOM    107  C   UNL     1     154.998 158.483 189.088  0.00  0.00    -0.005 C 
ATOM    108  H   UNL     1     154.981 160.585 189.377  0.00  0.00    +0.059 HD
ATOM    109  H   UNL     1     154.435 157.641 188.677  0.00  0.00    +0.078 HD
BRANCH 107 110
ATOM    110  N   UNL     1     156.212 158.125 189.655  0.00  0.00    -0.284 N 
ATOM    111  C   UNL     1     157.437 158.706 189.358  0.00  0.00    +0.206 C 
ATOM    112  O   UNL     1     158.523 158.401 189.846  0.00  0.00    -0.279 OA
ATOM    113  H   UNL     1     157.382 159.500 188.602  0.00  0.00    +0.126 HD
BRANCH 110 114
ATOM    114  C   UNL     1     156.195 157.029 190.620  0.00  0.00    +0.007 C 
ATOM    115  H   UNL     1     155.180 156.670 190.813  0.00  0.00    +0.043 HD
ATOM    116  H   UNL     1     156.791 156.196 190.236  0.00  0.00    +0.043 HD
ATOM    117  H   UNL     1     156.627 157.385 191.559  0.00  0.00    +0.043 HD
ENDBRANCH 110 114
ENDBRANCH 107 110
ENDBRANCH 100 106
ENDBRANCH  98 100
BRANCH  98 118
ATOM    118  O   UNL     1     152.420 159.954 190.645  0.00  0.00    -0.461 OA
BRANCH 118 119
ATOM    119  C   UNL     1     151.789 158.848 191.127  0.00  0.00    +0.304 C 
ATOM    120  O   UNL     1     152.201 158.131 192.025  0.00  0.00    -0.251 OA
BRANCH 119 121
ATOM    121  C   UNL     1     150.499 158.637 190.393  0.00  0.00    +0.033 C 
ATOM    122  H   UNL     1     149.684 159.120 190.934  0.00  0.00    +0.034 HD
ATOM    123  H   UNL     1     150.290 157.565 190.334  0.00  0.00    +0.034 HD
ATOM    124  H   UNL     1     150.578 159.034 189.378  0.00  0.00    +0.034 HD
ENDBRANCH 119 121
ENDBRANCH 118 119
ENDBRANCH  98 118
ENDBRANCH  92  98
ENDBRANCH  90  92
BRANCH  90 125
ATOM    125  O   UNL     1     153.564 163.450 188.896  0.00  0.00    -0.459 OA
BRANCH 125 126
ATOM    126  C   UNL     1     154.731 163.484 188.181  0.00  0.00    +0.339 C 
ATOM    127  O   UNL     1     154.957 162.824 187.174  0.00  0.00    -0.248 OA
BRANCH 126 128
ATOM    128  C   UNL     1     155.683 164.517 188.816  0.00  0.00    +0.178 C 
ATOM    129  H   UNL     1     155.437 164.576 189.887  0.00  0.00    +0.074 HD
BRANCH 128 130
ATOM    130  C   UNL     1     157.130 164.007 188.682  0.00  0.00    +0.084 C 
ATOM    131  H   UNL     1     157.759 164.745 188.171  0.00  0.00    +0.059 HD
ATOM    132  H   UNL     1     157.132 163.082 188.094  0.00  0.00    +0.059 HD
BRANCH 130 133
ATOM    133  O   UNL     1     157.697 163.741 189.971  0.00  0.00    -0.380 OA
BRANCH 133 134
ATOM    134  C   UNL     1     157.534 162.382 190.353  0.00  0.00    +0.037 C 
ATOM    135  H   UNL     1     158.319 162.087 191.055  0.00  0.00    +0.052 HD
ATOM    136  H   UNL     1     156.548 162.223 190.800  0.00  0.00    +0.052 HD
ATOM    137  H   UNL     1     157.618 161.762 189.455  0.00  0.00    +0.052 HD
ENDBRANCH 133 134
ENDBRANCH 130 133
ENDBRANCH 128 130
BRANCH 128 138
ATOM    138  O   UNL     1     155.654 165.846 188.289  0.00  0.00    -0.366 OA
BRANCH 138 139
ATOM    139  C   UNL     1     154.571 166.624 188.776  0.00  0.00    +0.038 C 
ATOM    140  H   UNL     1     154.839 167.685 188.822  0.00  0.00    +0.052 HD
ATOM    141  H   UNL     1     154.249 166.271 189.760  0.00  0.00    +0.052 HD
ATOM    142  H   UNL     1     153.731 166.509 188.084  0.00  0.00    +0.052 HD
ENDBRANCH 138 139
ENDBRANCH 128 138
ENDBRANCH 126 128
ENDBRANCH 125 126
ENDBRANCH  90 125
ENDBRANCH  87  90
ENDBRANCH  84  87
ENDBRANCH  78  84
ENDBRANCH  76  78
BRANCH  76 143
ATOM    143  O   UNL     1     148.446 167.160 189.354  0.00  0.00    -0.379 OA
BRANCH 143 144
ATOM    144  C   UNL     1     147.726 168.111 188.582  0.00  0.00    +0.037 C 
ATOM    145  H   UNL     1     148.132 168.106 187.567  0.00  0.00    +0.052 HD
ATOM    146  H   UNL     1     146.665 167.849 188.533  0.00  0.00    +0.052 HD
ATOM    147  H   UNL     1     147.853 169.116 189.000  0.00  0.00    +0.052 HD
ENDBRANCH 143 144
ENDBRANCH  76 143
ENDBRANCH   1  76
TORSDOF 35
ENDMDL
MODEL 7
REMARK VINA RESULT:      -5.4      0.826      1.487
REMARK  Name = Mycalolide B_conf1
REMARK  35 active torsions:
REMARK  status: ('A' for Active; 'I' for Inactive)
REMARK    1  A    between atoms: C_1  and  C_2
REMARK    2  A    between atoms: C_3  and  O_72
REMARK    3  A    between atoms: C_22  and  O_70
REMARK    4  A    between atoms: C_23  and  C_69
REMARK    5  A    between atoms: C_29  and  O_68
REMARK    6  A    between atoms: C_34  and  C_35
REMARK    7  A    between atoms: C_35  and  C_36
REMARK    8  A    between atoms: C_36  and  C_37
REMARK    9  A    between atoms: C_36  and  O_66
REMARK   10  A    between atoms: C_37  and  C_38
REMARK   11  A    between atoms: C_37  and  C_39
REMARK   12  A    between atoms: C_39  and  C_40
REMARK   13  A    between atoms: C_40  and  C_41
REMARK   14  A    between atoms: C_41  and  C_42
REMARK   15  A    between atoms: C_41  and  O_57
REMARK   16  A    between atoms: C_42  and  C_43
REMARK   17  A    between atoms: C_42  and  C_44
REMARK   18  A    between atoms: C_44  and  C_45
REMARK   19  A    between atoms: C_44  and  O_53
REMARK   20  A    between atoms: C_45  and  C_46
REMARK   21  A    between atoms: C_45  and  C_47
REMARK   22  A    between atoms: C_48  and  N_49
REMARK   23  A    between atoms: N_49  and  C_50
REMARK   24  A    between atoms: O_53  and  C_54
REMARK   25  A    between atoms: C_54  and  C_56
REMARK   26  A    between atoms: O_57  and  C_58
REMARK   27  A    between atoms: C_58  and  C_60
REMARK   28  A    between atoms: C_60  and  C_61
REMARK   29  A    between atoms: C_60  and  O_64
REMARK   30  A    between atoms: C_61  and  O_62
REMARK   31  A    between atoms: O_62  and  C_63
REMARK   32  A    between atoms: O_64  and  C_65
REMARK   33  A    between atoms: O_66  and  C_67
REMARK   34  A    between atoms: O_70  and  C_71
REMARK   35  A    between atoms: O_72  and  C_73
REMARK                            x       y       z     vdW  Elec       q    Type
REMARK                         _______ _______ _______ _____ _____    ______ ____
ROOT
ATOM      1  C   UNL     1     150.814 167.066 190.499  0.00  0.00    +0.011 C 
ATOM      2  H   UNL     1     151.792 167.527 190.311  0.00  0.00    +0.033 HD
ATOM      3  H   UNL     1     151.036 166.018 190.729  0.00  0.00    +0.033 HD
ENDROOT
BRANCH   1  36
ATOM      4  C   UNL     1     150.864 167.443 193.068  0.00  0.00    +0.020 C 
ATOM      5  C   UNL     1     150.293 166.265 193.913  0.00  0.00    +0.068 C 
ATOM      6  C   UNL     1     150.195 164.871 193.232  0.00  0.00    -0.008 C 
ATOM      7  C   UNL     1     149.049 164.704 192.273  0.00  0.00    -0.077 C 
ATOM      8  C   UNL     1     148.966 163.779 191.303  0.00  0.00    -0.003 C 
ATOM      9  C   UNL     1     147.831 163.758 190.442  0.00  0.00    +0.220 A 
ATOM     10  N   UNL     1     146.968 164.750 190.285  0.00  0.00    -0.205 NA
ATOM     11  C   UNL     1     146.041 164.300 189.382  0.00  0.00    +0.164 A 
ATOM     12  C   UNL     1     146.374 163.035 188.982  0.00  0.00    +0.125 A 
ATOM     13  O   UNL     1     147.520 162.680 189.629  0.00  0.00    -0.443 OA
ATOM     14  C   UNL     1     144.809 165.129 188.912  0.00  0.00    +0.250 A 
ATOM     15  N   UNL     1     144.585 166.361 189.327  0.00  0.00    -0.203 NA
ATOM     16  C   UNL     1     143.418 166.728 188.709  0.00  0.00    +0.164 A 
ATOM     17  C   UNL     1     142.963 165.697 187.929  0.00  0.00    +0.125 A 
ATOM     18  O   UNL     1     143.848 164.664 188.042  0.00  0.00    -0.442 OA
ATOM     19  C   UNL     1     142.719 168.113 188.877  0.00  0.00    +0.249 A 
ATOM     20  N   UNL     1     143.212 169.084 189.630  0.00  0.00    -0.210 NA
ATOM     21  C   UNL     1     142.328 170.130 189.485  0.00  0.00    +0.109 A 
ATOM     22  C   UNL     1     141.309 169.739 188.646  0.00  0.00    +0.118 A 
ATOM     23  O   UNL     1     141.542 168.456 188.253  0.00  0.00    -0.442 OA
ATOM     24  C   UNL     1     142.578 171.460 190.133  0.00  0.00    +0.113 C 
ATOM     25  C   UNL     1     143.996 171.974 189.804  0.00  0.00    +0.051 C 
ATOM     26  C   UNL     1     144.180 173.352 190.424  0.00  0.00    +0.161 C 
ATOM     27  O   UNL     1     143.326 174.233 190.322  0.00  0.00    -0.292 OA
ATOM     28  C   UNL     1     145.452 173.691 191.129  0.00  0.00    -0.023 C 
ATOM     29  C   UNL     1     146.632 173.085 190.913  0.00  0.00    -0.078 C 
ATOM     30  C   UNL     1     147.906 173.480 191.612  0.00  0.00    -0.008 C 
ATOM     31  C   UNL     1     148.563 172.323 192.388  0.00  0.00    +0.069 C 
ATOM     32  C   UNL     1     149.266 171.319 191.466  0.00  0.00    +0.071 C 
ATOM     33  C   UNL     1     149.196 169.915 192.018  0.00  0.00    +0.310 C 
ATOM     34  O   UNL     1     148.332 169.503 192.776  0.00  0.00    -0.251 OA
ATOM     35  O   UNL     1     150.190 169.159 191.471  0.00  0.00    -0.461 OA
ATOM     36  C   UNL     1     150.139 167.727 191.717  0.00  0.00    +0.110 C 
ATOM     37  H   UNL     1     150.736 168.348 193.676  0.00  0.00    +0.036 HD
ATOM     38  H   UNL     1     150.962 166.124 194.773  0.00  0.00    +0.060 HD
ATOM     39  H   UNL     1     151.147 164.611 192.758  0.00  0.00    +0.033 HD
ATOM     40  H   UNL     1     150.026 164.139 194.034  0.00  0.00    +0.033 HD
ATOM     41  H   UNL     1     148.207 165.386 192.419  0.00  0.00    +0.057 HD
ATOM     42  H   UNL     1     149.742 163.038 191.150  0.00  0.00    +0.067 HD
ATOM     43  H   UNL     1     145.953 162.308 188.303  0.00  0.00    +0.105 HD
ATOM     44  H   UNL     1     142.111 165.542 187.289  0.00  0.00    +0.105 HD
ATOM     45  H   UNL     1     140.424 170.210 188.243  0.00  0.00    +0.105 HD
ATOM     46  H   UNL     1     141.834 172.187 189.778  0.00  0.00    +0.067 HD
ATOM     47  H   UNL     1     144.726 171.285 190.244  0.00  0.00    +0.041 HD
ATOM     48  H   UNL     1     145.362 174.527 191.817  0.00  0.00    +0.065 HD
ATOM     49  H   UNL     1     146.715 172.282 190.186  0.00  0.00    +0.057 HD
ATOM     50  H   UNL     1     148.613 173.874 190.871  0.00  0.00    +0.033 HD
ATOM     51  H   UNL     1     147.715 174.311 192.302  0.00  0.00    +0.033 HD
ATOM     52  H   UNL     1     147.811 171.843 193.025  0.00  0.00    +0.060 HD
ATOM     53  H   UNL     1     150.318 171.597 191.341  0.00  0.00    +0.040 HD
ATOM     54  H   UNL     1     148.796 171.275 190.478  0.00  0.00    +0.040 HD
ATOM     55  H   UNL     1     149.089 167.424 191.762  0.00  0.00    +0.074 HD
BRANCH   4  56
ATOM     56  C   UNL     1     152.389 167.310 192.928  0.00  0.00    -0.057 C 
ATOM     57  H   UNL     1     152.706 167.201 191.886  0.00  0.00    +0.023 HD
ATOM     58  H   UNL     1     152.899 168.179 193.356  0.00  0.00    +0.023 HD
ATOM     59  H   UNL     1     152.748 166.425 193.469  0.00  0.00    +0.023 HD
ENDBRANCH   4  56
BRANCH  25  60
ATOM     60  C   UNL     1     144.250 172.107 188.300  0.00  0.00    -0.053 C 
ATOM     61  H   UNL     1     144.818 173.014 188.068  0.00  0.00    +0.024 HD
ATOM     62  H   UNL     1     143.307 172.161 187.748  0.00  0.00    +0.024 HD
ATOM     63  H   UNL     1     144.822 171.257 187.916  0.00  0.00    +0.024 HD
ENDBRANCH  25  60
BRANCH  31  64
ATOM     64  O   UNL     1     149.559 172.877 193.258  0.00  0.00    -0.391 OA
ATOM     65  H   UNL     1     150.296 173.189 192.700  0.00  0.00    +0.210 HD
ENDBRANCH  31  64
BRANCH  24  66
ATOM     66  O   UNL     1     142.486 171.364 191.568  0.00  0.00    -0.373 OA
BRANCH  66  67
ATOM     67  C   UNL     1     141.349 172.029 192.100  0.00  0.00    +0.037 C 
ATOM     68  H   UNL     1     140.451 171.413 192.005  0.00  0.00    +0.052 HD
ATOM     69  H   UNL     1     141.204 172.993 191.602  0.00  0.00    +0.052 HD
ATOM     70  H   UNL     1     141.528 172.216 193.162  0.00  0.00    +0.052 HD
ENDBRANCH  66  67
ENDBRANCH  24  66
BRANCH   5  71
ATOM     71  O   UNL     1     148.988 166.564 194.436  0.00  0.00    -0.379 OA
BRANCH  71  72
ATOM     72  C   UNL     1     148.788 166.191 195.791  0.00  0.00    +0.037 C 
ATOM     73  H   UNL     1     148.714 167.106 196.389  0.00  0.00    +0.052 HD
ATOM     74  H   UNL     1     147.856 165.629 195.907  0.00  0.00    +0.052 HD
ATOM     75  H   UNL     1     149.627 165.609 196.174  0.00  0.00    +0.052 HD
ENDBRANCH  71  72
ENDBRANCH   5  71
ENDBRANCH   1  36
BRANCH   1  76
ATOM     76  C   UNL     1     150.013 167.082 189.180  0.00  0.00    +0.064 C 
ATOM     77  H   UNL     1     150.293 167.977 188.611  0.00  0.00    +0.060 HD
BRANCH  76  78
ATOM     78  C   UNL     1     150.179 165.857 188.234  0.00  0.00    -0.017 C 
ATOM     79  H   UNL     1     149.253 165.275 188.245  0.00  0.00    +0.032 HD
BRANCH  78  80
ATOM     80  C   UNL     1     150.490 166.274 186.787  0.00  0.00    -0.060 C 
ATOM     81  H   UNL     1     150.282 165.457 186.090  0.00  0.00    +0.023 HD
ATOM     82  H   UNL     1     151.540 166.557 186.671  0.00  0.00    +0.023 HD
ATOM     83  H   UNL     1     149.878 167.119 186.461  0.00  0.00    +0.023 HD
ENDBRANCH  78  80
BRANCH  78  84
ATOM     84  C   UNL     1     151.311 164.955 188.791  0.00  0.00    -0.045 C 
ATOM     85  H   UNL     1     152.261 165.432 188.548  0.00  0.00    +0.027 HD
ATOM     86  H   UNL     1     151.239 164.922 189.885  0.00  0.00    +0.027 HD
BRANCH  84  87
ATOM     87  C   UNL     1     151.334 163.523 188.256  0.00  0.00    -0.015 C 
ATOM     88  H   UNL     1     151.114 163.500 187.183  0.00  0.00    +0.030 HD
ATOM     89  H   UNL     1     150.516 162.955 188.721  0.00  0.00    +0.030 HD
BRANCH  87  90
ATOM     90  C   UNL     1     152.656 162.772 188.517  0.00  0.00    +0.109 C 
ATOM     91  H   UNL     1     153.191 163.309 189.309  0.00  0.00    +0.074 HD
BRANCH  90  92
ATOM     92  C   UNL     1     153.628 162.561 187.305  0.00  0.00    +0.031 C 
ATOM     93  H   UNL     1     152.972 162.432 186.434  0.00  0.00    +0.037 HD
BRANCH  92  94
ATOM     94  C   UNL     1     154.406 161.247 187.450  0.00  0.00    -0.056 C 
ATOM     95  H   UNL     1     153.787 160.363 187.290  0.00  0.00    +0.023 HD
ATOM     96  H   UNL     1     155.245 161.201 186.749  0.00  0.00    +0.023 HD
ATOM     97  H   UNL     1     154.842 161.164 188.449  0.00  0.00    +0.023 HD
ENDBRANCH  92  94
BRANCH  92  98
ATOM     98  C   UNL     1     154.526 163.803 187.007  0.00  0.00    +0.115 C 
ATOM     99  H   UNL     1     155.499 163.444 186.657  0.00  0.00    +0.074 HD
BRANCH  98 100
ATOM    100  C   UNL     1     153.997 164.845 185.975  0.00  0.00    +0.013 C 
ATOM    101  H   UNL     1     153.389 165.573 186.533  0.00  0.00    +0.038 HD
BRANCH 100 102
ATOM    102  C   UNL     1     153.020 164.258 184.950  0.00  0.00    -0.056 C 
ATOM    103  H   UNL     1     153.451 163.418 184.396  0.00  0.00    +0.024 HD
ATOM    104  H   UNL     1     152.108 163.906 185.441  0.00  0.00    +0.024 HD
ATOM    105  H   UNL     1     152.728 165.018 184.216  0.00  0.00    +0.024 HD
ENDBRANCH 100 102
BRANCH 100 106
ATOM    106  C   UNL     1     155.104 165.632 185.303  0.00  0.00    -0.064 C 
ATOM    107  C   UNL     1     155.433 166.868 185.705  0.00  0.00    -0.005 C 
ATOM    108  H   UNL     1     155.614 165.145 184.480  0.00  0.00    +0.059 HD
ATOM    109  H   UNL     1     154.881 167.307 186.541  0.00  0.00    +0.078 HD
BRANCH 107 110
ATOM    110  N   UNL     1     156.425 167.691 185.193  0.00  0.00    -0.284 N 
ATOM    111  C   UNL     1     156.207 168.836 184.440  0.00  0.00    +0.206 C 
ATOM    112  O   UNL     1     157.072 169.575 183.975  0.00  0.00    -0.279 OA
ATOM    113  H   UNL     1     155.147 169.055 184.259  0.00  0.00    +0.126 HD
BRANCH 110 114
ATOM    114  C   UNL     1     157.809 167.297 185.448  0.00  0.00    +0.007 C 
ATOM    115  H   UNL     1     158.453 168.162 185.626  0.00  0.00    +0.043 HD
ATOM    116  H   UNL     1     157.847 166.648 186.327  0.00  0.00    +0.043 HD
ATOM    117  H   UNL     1     158.183 166.754 184.576  0.00  0.00    +0.043 HD
ENDBRANCH 110 114
ENDBRANCH 107 110
ENDBRANCH 100 106
ENDBRANCH  98 100
BRANCH  98 118
ATOM    118  O   UNL     1     154.723 164.504 188.266  0.00  0.00    -0.461 OA
BRANCH 118 119
ATOM    119  C   UNL     1     156.003 164.625 188.712  0.00  0.00    +0.304 C 
ATOM    120  O   UNL     1     156.866 163.765 188.633  0.00  0.00    -0.251 OA
BRANCH 119 121
ATOM    121  C   UNL     1     156.207 165.981 189.318  0.00  0.00    +0.033 C 
ATOM    122  H   UNL     1     157.146 166.407 188.961  0.00  0.00    +0.034 HD
ATOM    123  H   UNL     1     156.261 165.885 190.407  0.00  0.00    +0.034 HD
ATOM    124  H   UNL     1     155.367 166.632 189.066  0.00  0.00    +0.034 HD
ENDBRANCH 119 121
ENDBRANCH 118 119
ENDBRANCH  98 118
ENDBRANCH  92  98
ENDBRANCH  90  92
BRANCH  90 125
ATOM    125  O   UNL     1     152.290 161.444 188.978  0.00  0.00    -0.459 OA
BRANCH 125 126
ATOM    126  C   UNL     1     151.901 161.312 190.284  0.00  0.00    +0.339 C 
ATOM    127  O   UNL     1     152.224 162.067 191.193  0.00  0.00    -0.248 OA
BRANCH 126 128
ATOM    128  C   UNL     1     150.959 160.098 190.410  0.00  0.00    +0.178 C 
ATOM    129  H   UNL     1     149.972 160.478 190.713  0.00  0.00    +0.074 HD
BRANCH 128 130
ATOM    130  C   UNL     1     150.816 159.434 189.029  0.00  0.00    +0.084 C 
ATOM    131  H   UNL     1     151.195 158.406 189.047  0.00  0.00    +0.059 HD
ATOM    132  H   UNL     1     151.397 160.005 188.295  0.00  0.00    +0.059 HD
BRANCH 130 133
ATOM    133  O   UNL     1     149.444 159.407 188.616  0.00  0.00    -0.380 OA
BRANCH 133 134
ATOM    134  C   UNL     1     149.184 160.337 187.575  0.00  0.00    +0.037 C 
ATOM    135  H   UNL     1     148.615 159.859 186.771  0.00  0.00    +0.052 HD
ATOM    136  H   UNL     1     148.638 161.204 187.960  0.00  0.00    +0.052 HD
ATOM    137  H   UNL     1     150.143 160.676 187.170  0.00  0.00    +0.052 HD
ENDBRANCH 133 134
ENDBRANCH 130 133
ENDBRANCH 128 130
BRANCH 128 138
ATOM    138  O   UNL     1     151.332 159.072 191.334  0.00  0.00    -0.366 OA
BRANCH 138 139
ATOM    139  C   UNL     1     152.457 158.316 190.914  0.00  0.00    +0.038 C 
ATOM    140  H   UNL     1     153.046 157.978 191.774  0.00  0.00    +0.052 HD
ATOM    141  H   UNL     1     153.083 158.895 190.230  0.00  0.00    +0.052 HD
ATOM    142  H   UNL     1     152.094 157.434 190.377  0.00  0.00    +0.052 HD
ENDBRANCH 138 139
ENDBRANCH 128 138
ENDBRANCH 126 128
ENDBRANCH 125 126
ENDBRANCH  90 125
ENDBRANCH  87  90
ENDBRANCH  84  87
ENDBRANCH  78  84
ENDBRANCH  76  78
BRANCH  76 143
ATOM    143  O   UNL     1     148.614 167.153 189.533  0.00  0.00    -0.379 OA
BRANCH 143 144
ATOM    144  C   UNL     1     147.870 168.066 188.738  0.00  0.00    +0.037 C 
ATOM    145  H   UNL     1     148.136 167.902 187.690  0.00  0.00    +0.052 HD
ATOM    146  H   UNL     1     146.796 167.897 188.854  0.00  0.00    +0.052 HD
ATOM    147  H   UNL     1     148.125 169.099 189.002  0.00  0.00    +0.052 HD
ENDBRANCH 143 144
ENDBRANCH  76 143
ENDBRANCH   1  76
TORSDOF 35
ENDMDL
MODEL 8
REMARK VINA RESULT:      -5.4      1.650      4.890
REMARK  Name = Mycalolide B_conf1
REMARK  35 active torsions:
REMARK  status: ('A' for Active; 'I' for Inactive)
REMARK    1  A    between atoms: C_1  and  C_2
REMARK    2  A    between atoms: C_3  and  O_72
REMARK    3  A    between atoms: C_22  and  O_70
REMARK    4  A    between atoms: C_23  and  C_69
REMARK    5  A    between atoms: C_29  and  O_68
REMARK    6  A    between atoms: C_34  and  C_35
REMARK    7  A    between atoms: C_35  and  C_36
REMARK    8  A    between atoms: C_36  and  C_37
REMARK    9  A    between atoms: C_36  and  O_66
REMARK   10  A    between atoms: C_37  and  C_38
REMARK   11  A    between atoms: C_37  and  C_39
REMARK   12  A    between atoms: C_39  and  C_40
REMARK   13  A    between atoms: C_40  and  C_41
REMARK   14  A    between atoms: C_41  and  C_42
REMARK   15  A    between atoms: C_41  and  O_57
REMARK   16  A    between atoms: C_42  and  C_43
REMARK   17  A    between atoms: C_42  and  C_44
REMARK   18  A    between atoms: C_44  and  C_45
REMARK   19  A    between atoms: C_44  and  O_53
REMARK   20  A    between atoms: C_45  and  C_46
REMARK   21  A    between atoms: C_45  and  C_47
REMARK   22  A    between atoms: C_48  and  N_49
REMARK   23  A    between atoms: N_49  and  C_50
REMARK   24  A    between atoms: O_53  and  C_54
REMARK   25  A    between atoms: C_54  and  C_56
REMARK   26  A    between atoms: O_57  and  C_58
REMARK   27  A    between atoms: C_58  and  C_60
REMARK   28  A    between atoms: C_60  and  C_61
REMARK   29  A    between atoms: C_60  and  O_64
REMARK   30  A    between atoms: C_61  and  O_62
REMARK   31  A    between atoms: O_62  and  C_63
REMARK   32  A    between atoms: O_64  and  C_65
REMARK   33  A    between atoms: O_66  and  C_67
REMARK   34  A    between atoms: O_70  and  C_71
REMARK   35  A    between atoms: O_72  and  C_73
REMARK                            x       y       z     vdW  Elec       q    Type
REMARK                         _______ _______ _______ _____ _____    ______ ____
ROOT
ATOM      1  C   UNL     1     150.847 166.956 190.621  0.00  0.00    +0.011 C 
ATOM      2  H   UNL     1     151.870 167.342 190.519  0.00  0.00    +0.033 HD
ATOM      3  H   UNL     1     150.969 165.885 190.815  0.00  0.00    +0.033 HD
ENDROOT
BRANCH   1  36
ATOM      4  C   UNL     1     150.820 167.315 193.193  0.00  0.00    +0.020 C 
ATOM      5  C   UNL     1     150.203 166.140 194.010  0.00  0.00    +0.068 C 
ATOM      6  C   UNL     1     150.104 164.753 193.315  0.00  0.00    -0.008 C 
ATOM      7  C   UNL     1     148.987 164.612 192.319  0.00  0.00    -0.077 C 
ATOM      8  C   UNL     1     148.921 163.695 191.340  0.00  0.00    -0.003 C 
ATOM      9  C   UNL     1     147.814 163.699 190.443  0.00  0.00    +0.220 A 
ATOM     10  N   UNL     1     146.973 164.706 190.265  0.00  0.00    -0.205 NA
ATOM     11  C   UNL     1     146.069 164.277 189.329  0.00  0.00    +0.164 A 
ATOM     12  C   UNL     1     146.394 163.010 188.931  0.00  0.00    +0.125 A 
ATOM     13  O   UNL     1     147.513 162.632 189.612  0.00  0.00    -0.443 OA
ATOM     14  C   UNL     1     144.866 165.130 188.826  0.00  0.00    +0.250 A 
ATOM     15  N   UNL     1     144.649 166.363 189.242  0.00  0.00    -0.203 NA
ATOM     16  C   UNL     1     143.509 166.753 188.589  0.00  0.00    +0.164 A 
ATOM     17  C   UNL     1     143.063 165.735 187.788  0.00  0.00    +0.125 A 
ATOM     18  O   UNL     1     143.927 164.686 187.921  0.00  0.00    -0.442 OA
ATOM     19  C   UNL     1     142.828 168.148 188.745  0.00  0.00    +0.249 A 
ATOM     20  N   UNL     1     143.312 169.106 189.520  0.00  0.00    -0.210 NA
ATOM     21  C   UNL     1     142.450 170.167 189.354  0.00  0.00    +0.109 A 
ATOM     22  C   UNL     1     141.453 169.799 188.480  0.00  0.00    +0.118 A 
ATOM     23  O   UNL     1     141.677 168.515 188.086  0.00  0.00    -0.442 OA
ATOM     24  C   UNL     1     142.700 171.489 190.020  0.00  0.00    +0.113 C 
ATOM     25  C   UNL     1     144.137 171.981 189.741  0.00  0.00    +0.051 C 
ATOM     26  C   UNL     1     144.323 173.352 190.376  0.00  0.00    +0.161 C 
ATOM     27  O   UNL     1     143.487 174.247 190.253  0.00  0.00    -0.292 OA
ATOM     28  C   UNL     1     145.576 173.665 191.125  0.00  0.00    -0.023 C 
ATOM     29  C   UNL     1     146.753 173.041 190.943  0.00  0.00    -0.078 C 
ATOM     30  C   UNL     1     148.010 173.410 191.685  0.00  0.00    -0.008 C 
ATOM     31  C   UNL     1     148.622 172.237 192.474  0.00  0.00    +0.069 C 
ATOM     32  C   UNL     1     149.338 171.228 191.568  0.00  0.00    +0.071 C 
ATOM     33  C   UNL     1     149.227 169.822 192.107  0.00  0.00    +0.310 C 
ATOM     34  O   UNL     1     148.333 169.418 192.834  0.00  0.00    -0.251 OA
ATOM     35  O   UNL     1     150.226 169.053 191.587  0.00  0.00    -0.461 OA
ATOM     36  C   UNL     1     150.144 167.621 191.821  0.00  0.00    +0.110 C 
ATOM     37  H   UNL     1     150.687 168.217 193.803  0.00  0.00    +0.036 HD
ATOM     38  H   UNL     1     150.841 165.983 194.890  0.00  0.00    +0.060 HD
ATOM     39  H   UNL     1     151.066 164.481 192.871  0.00  0.00    +0.033 HD
ATOM     40  H   UNL     1     149.897 164.019 194.107  0.00  0.00    +0.033 HD
ATOM     41  H   UNL     1     148.152 165.307 192.442  0.00  0.00    +0.057 HD
ATOM     42  H   UNL     1     149.689 162.942 191.207  0.00  0.00    +0.067 HD
ATOM     43  H   UNL     1     145.984 162.295 188.233  0.00  0.00    +0.105 HD
ATOM     44  H   UNL     1     142.230 165.599 187.119  0.00  0.00    +0.105 HD
ATOM     45  H   UNL     1     140.589 170.287 188.052  0.00  0.00    +0.105 HD
ATOM     46  H   UNL     1     141.981 172.230 189.647  0.00  0.00    +0.067 HD
ATOM     47  H   UNL     1     144.841 171.277 190.199  0.00  0.00    +0.041 HD
ATOM     48  H   UNL     1     145.478 174.498 191.816  0.00  0.00    +0.065 HD
ATOM     49  H   UNL     1     146.847 172.241 190.213  0.00  0.00    +0.057 HD
ATOM     50  H   UNL     1     148.747 173.797 190.971  0.00  0.00    +0.033 HD
ATOM     51  H   UNL     1     147.810 174.239 192.376  0.00  0.00    +0.033 HD
ATOM     52  H   UNL     1     147.843 171.765 193.083  0.00  0.00    +0.060 HD
ATOM     53  H   UNL     1     150.398 171.489 191.479  0.00  0.00    +0.040 HD
ATOM     54  H   UNL     1     148.900 171.198 190.565  0.00  0.00    +0.040 HD
ATOM     55  H   UNL     1     149.089 167.334 191.829  0.00  0.00    +0.074 HD
BRANCH   4  56
ATOM     56  C   UNL     1     152.346 167.157 193.100  0.00  0.00    -0.057 C 
ATOM     57  H   UNL     1     152.649 166.128 192.883  0.00  0.00    +0.023 HD
ATOM     58  H   UNL     1     152.762 167.812 192.327  0.00  0.00    +0.023 HD
ATOM     59  H   UNL     1     152.819 167.439 194.050  0.00  0.00    +0.023 HD
ENDBRANCH   4  56
BRANCH  25  60
ATOM     60  C   UNL     1     144.441 172.120 188.246  0.00  0.00    -0.053 C 
ATOM     61  H   UNL     1     145.335 172.731 188.075  0.00  0.00    +0.024 HD
ATOM     62  H   UNL     1     143.611 172.600 187.722  0.00  0.00    +0.024 HD
ATOM     63  H   UNL     1     144.620 171.144 187.784  0.00  0.00    +0.024 HD
ENDBRANCH  25  60
BRANCH  31  64
ATOM     64  O   UNL     1     149.599 172.769 193.380  0.00  0.00    -0.391 OA
ATOM     65  H   UNL     1     150.123 173.430 192.891  0.00  0.00    +0.210 HD
ENDBRANCH  31  64
BRANCH  24  66
ATOM     66  O   UNL     1     142.560 171.384 191.451  0.00  0.00    -0.373 OA
BRANCH  66  67
ATOM     67  C   UNL     1     141.388 172.017 191.944  0.00  0.00    +0.037 C 
ATOM     68  H   UNL     1     140.866 172.554 191.148  0.00  0.00    +0.052 HD
ATOM     69  H   UNL     1     141.639 172.699 192.763  0.00  0.00    +0.052 HD
ATOM     70  H   UNL     1     140.721 171.245 192.335  0.00  0.00    +0.052 HD
ENDBRANCH  66  67
ENDBRANCH  24  66
BRANCH   5  71
ATOM     71  O   UNL     1     148.887 166.458 194.492  0.00  0.00    -0.379 OA
BRANCH  71  72
ATOM     72  C   UNL     1     148.675 166.191 195.870  0.00  0.00    +0.037 C 
ATOM     73  H   UNL     1     148.221 165.199 195.960  0.00  0.00    +0.052 HD
ATOM     74  H   UNL     1     149.624 166.185 196.417  0.00  0.00    +0.052 HD
ATOM     75  H   UNL     1     147.991 166.913 196.318  0.00  0.00    +0.052 HD
ENDBRANCH  71  72
ENDBRANCH   5  71
ENDBRANCH   1  36
BRANCH   1  76
ATOM     76  C   UNL     1     150.144 167.093 189.254  0.00  0.00    +0.064 C 
ATOM     77  H   UNL     1     150.348 168.094 188.854  0.00  0.00    +0.060 HD
BRANCH  76  78
ATOM     78  C   UNL     1     150.529 166.063 188.151  0.00  0.00    -0.017 C 
ATOM     79  H   UNL     1     151.148 165.281 188.601  0.00  0.00    +0.032 HD
BRANCH  78  80
ATOM     80  C   UNL     1     149.296 165.413 187.502  0.00  0.00    -0.060 C 
ATOM     81  H   UNL     1     149.507 165.118 186.470  0.00  0.00    +0.023 HD
ATOM     82  H   UNL     1     148.445 166.101 187.489  0.00  0.00    +0.023 HD
ATOM     83  H   UNL     1     148.985 164.506 188.024  0.00  0.00    +0.023 HD
ENDBRANCH  78  80
BRANCH  78  84
ATOM     84  C   UNL     1     151.386 166.787 187.080  0.00  0.00    -0.045 C 
ATOM     85  H   UNL     1     151.075 166.413 186.104  0.00  0.00    +0.027 HD
ATOM     86  H   UNL     1     151.157 167.859 187.100  0.00  0.00    +0.027 HD
BRANCH  84  87
ATOM     87  C   UNL     1     152.898 166.603 187.213  0.00  0.00    -0.015 C 
ATOM     88  H   UNL     1     153.171 166.317 188.234  0.00  0.00    +0.030 HD
ATOM     89  H   UNL     1     153.390 167.573 187.053  0.00  0.00    +0.030 HD
BRANCH  87  90
ATOM     90  C   UNL     1     153.500 165.583 186.224  0.00  0.00    +0.109 C 
ATOM     91  H   UNL     1     152.941 165.663 185.284  0.00  0.00    +0.074 HD
BRANCH  90  92
ATOM     92  C   UNL     1     153.539 164.078 186.661  0.00  0.00    +0.031 C 
ATOM     93  H   UNL     1     154.393 163.648 186.120  0.00  0.00    +0.037 HD
BRANCH  92  94
ATOM     94  C   UNL     1     152.298 163.330 186.159  0.00  0.00    -0.056 C 
ATOM     95  H   UNL     1     152.205 163.336 185.072  0.00  0.00    +0.023 HD
ATOM     96  H   UNL     1     152.300 162.287 186.490  0.00  0.00    +0.023 HD
ATOM     97  H   UNL     1     151.386 163.776 186.567  0.00  0.00    +0.023 HD
ENDBRANCH  92  94
BRANCH  92  98
ATOM     98  C   UNL     1     153.830 163.881 188.182  0.00  0.00    +0.115 C 
ATOM     99  H   UNL     1     153.962 164.869 188.634  0.00  0.00    +0.074 HD
BRANCH  98 100
ATOM    100  C   UNL     1     152.774 163.103 189.024  0.00  0.00    +0.013 C 
ATOM    101  H   UNL     1     151.822 163.151 188.475  0.00  0.00    +0.038 HD
BRANCH 100 102
ATOM    102  C   UNL     1     152.455 163.759 190.373  0.00  0.00    -0.056 C 
ATOM    103  H   UNL     1     152.246 164.829 190.277  0.00  0.00    +0.024 HD
ATOM    104  H   UNL     1     151.587 163.285 190.839  0.00  0.00    +0.024 HD
ATOM    105  H   UNL     1     153.300 163.652 191.063  0.00  0.00    +0.024 HD
ENDBRANCH 100 102
BRANCH 100 106
ATOM    106  C   UNL     1     153.106 161.633 189.184  0.00  0.00    -0.064 C 
ATOM    107  C   UNL     1     152.348 160.817 189.932  0.00  0.00    -0.005 C 
ATOM    108  H   UNL     1     153.988 161.276 188.665  0.00  0.00    +0.059 HD
ATOM    109  H   UNL     1     151.472 161.236 190.433  0.00  0.00    +0.078 HD
BRANCH 107 110
ATOM    110  N   UNL     1     152.527 159.459 190.153  0.00  0.00    -0.284 N 
ATOM    111  C   UNL     1     153.399 158.642 189.449  0.00  0.00    +0.206 C 
ATOM    112  O   UNL     1     153.570 157.437 189.627  0.00  0.00    -0.279 OA
ATOM    113  H   UNL     1     153.960 159.161 188.661  0.00  0.00    +0.126 HD
BRANCH 110 114
ATOM    114  C   UNL     1     151.707 158.844 191.193  0.00  0.00    +0.007 C 
ATOM    115  H   UNL     1     151.174 157.964 190.825  0.00  0.00    +0.043 HD
ATOM    116  H   UNL     1     152.344 158.541 192.028  0.00  0.00    +0.043 HD
ATOM    117  H   UNL     1     150.975 159.579 191.540  0.00  0.00    +0.043 HD
ENDBRANCH 110 114
ENDBRANCH 107 110
ENDBRANCH 100 106
ENDBRANCH  98 100
BRANCH  98 118
ATOM    118  O   UNL     1     155.088 163.157 188.290  0.00  0.00    -0.461 OA
BRANCH 118 119
ATOM    119  C   UNL     1     155.972 163.591 189.229  0.00  0.00    +0.304 C 
ATOM    120  O   UNL     1     156.520 162.891 190.066  0.00  0.00    -0.251 OA
BRANCH 119 121
ATOM    121  C   UNL     1     156.186 165.067 189.084  0.00  0.00    +0.033 C 
ATOM    122  H   UNL     1     156.201 165.536 190.069  0.00  0.00    +0.034 HD
ATOM    123  H   UNL     1     155.360 165.496 188.509  0.00  0.00    +0.034 HD
ATOM    124  H   UNL     1     157.120 165.259 188.550  0.00  0.00    +0.034 HD
ENDBRANCH 119 121
ENDBRANCH 118 119
ENDBRANCH  98 118
ENDBRANCH  92  98
ENDBRANCH  90  92
BRANCH  90 125
ATOM    125  O   UNL     1     154.881 165.980 186.015  0.00  0.00    -0.459 OA
BRANCH 125 126
ATOM    126  C   UNL     1     155.257 166.323 184.744  0.00  0.00    +0.339 C 
ATOM    127  O   UNL     1     154.628 166.050 183.728  0.00  0.00    -0.248 OA
BRANCH 126 128
ATOM    128  C   UNL     1     156.560 167.145 184.806  0.00  0.00    +0.178 C 
ATOM    129  H   UNL     1     157.143 166.905 183.905  0.00  0.00    +0.074 HD
BRANCH 128 130
ATOM    130  C   UNL     1     156.205 168.642 184.766  0.00  0.00    +0.084 C 
ATOM    131  H   UNL     1     155.539 168.909 185.594  0.00  0.00    +0.059 HD
ATOM    132  H   UNL     1     155.693 168.865 183.823  0.00  0.00    +0.059 HD
BRANCH 130 133
ATOM    133  O   UNL     1     157.387 169.447 184.856  0.00  0.00    -0.380 OA
BRANCH 133 134
ATOM    134  C   UNL     1     157.088 170.835 184.818  0.00  0.00    +0.037 C 
ATOM    135  H   UNL     1     157.222 171.281 185.809  0.00  0.00    +0.052 HD
ATOM    136  H   UNL     1     157.721 171.347 184.086  0.00  0.00    +0.052 HD
ATOM    137  H   UNL     1     156.041 170.952 184.522  0.00  0.00    +0.052 HD
ENDBRANCH 133 134
ENDBRANCH 130 133
ENDBRANCH 128 130
BRANCH 128 138
ATOM    138  O   UNL     1     157.408 166.943 185.941  0.00  0.00    -0.366 OA
BRANCH 138 139
ATOM    139  C   UNL     1     158.453 166.012 185.705  0.00  0.00    +0.038 C 
ATOM    140  H   UNL     1     158.970 165.758 186.638  0.00  0.00    +0.052 HD
ATOM    141  H   UNL     1     159.164 166.401 184.972  0.00  0.00    +0.052 HD
ATOM    142  H   UNL     1     158.011 165.098 185.297  0.00  0.00    +0.052 HD
ENDBRANCH 138 139
ENDBRANCH 128 138
ENDBRANCH 126 128
ENDBRANCH 125 126
ENDBRANCH  90 125
ENDBRANCH  87  90
ENDBRANCH  84  87
ENDBRANCH  78  84
ENDBRANCH  76  78
BRANCH  76 143
ATOM    143  O   UNL     1     148.726 166.947 189.488  0.00  0.00    -0.379 OA
BRANCH 143 144
ATOM    144  C   UNL     1     147.958 168.063 189.057  0.00  0.00    +0.037 C 
ATOM    145  H   UNL     1     147.555 168.562 189.943  0.00  0.00    +0.052 HD
ATOM    146  H   UNL     1     148.582 168.776 188.510  0.00  0.00    +0.052 HD
ATOM    147  H   UNL     1     147.120 167.731 188.435  0.00  0.00    +0.052 HD
ENDBRANCH 143 144
ENDBRANCH  76 143
ENDBRANCH   1  76
TORSDOF 35
ENDMDL
MODEL 9
REMARK VINA RESULT:      -5.3      3.288      8.001
REMARK  Name = Mycalolide B_conf1
REMARK  35 active torsions:
REMARK  status: ('A' for Active; 'I' for Inactive)
REMARK    1  A    between atoms: C_1  and  C_2
REMARK    2  A    between atoms: C_3  and  O_72
REMARK    3  A    between atoms: C_22  and  O_70
REMARK    4  A    between atoms: C_23  and  C_69
REMARK    5  A    between atoms: C_29  and  O_68
REMARK    6  A    between atoms: C_34  and  C_35
REMARK    7  A    between atoms: C_35  and  C_36
REMARK    8  A    between atoms: C_36  and  C_37
REMARK    9  A    between atoms: C_36  and  O_66
REMARK   10  A    between atoms: C_37  and  C_38
REMARK   11  A    between atoms: C_37  and  C_39
REMARK   12  A    between atoms: C_39  and  C_40
REMARK   13  A    between atoms: C_40  and  C_41
REMARK   14  A    between atoms: C_41  and  C_42
REMARK   15  A    between atoms: C_41  and  O_57
REMARK   16  A    between atoms: C_42  and  C_43
REMARK   17  A    between atoms: C_42  and  C_44
REMARK   18  A    between atoms: C_44  and  C_45
REMARK   19  A    between atoms: C_44  and  O_53
REMARK   20  A    between atoms: C_45  and  C_46
REMARK   21  A    between atoms: C_45  and  C_47
REMARK   22  A    between atoms: C_48  and  N_49
REMARK   23  A    between atoms: N_49  and  C_50
REMARK   24  A    between atoms: O_53  and  C_54
REMARK   25  A    between atoms: C_54  and  C_56
REMARK   26  A    between atoms: O_57  and  C_58
REMARK   27  A    between atoms: C_58  and  C_60
REMARK   28  A    between atoms: C_60  and  C_61
REMARK   29  A    between atoms: C_60  and  O_64
REMARK   30  A    between atoms: C_61  and  O_62
REMARK   31  A    between atoms: O_62  and  C_63
REMARK   32  A    between atoms: O_64  and  C_65
REMARK   33  A    between atoms: O_66  and  C_67
REMARK   34  A    between atoms: O_70  and  C_71
REMARK   35  A    between atoms: O_72  and  C_73
REMARK                            x       y       z     vdW  Elec       q    Type
REMARK                         _______ _______ _______ _____ _____    ______ ____
ROOT
ATOM      1  C   UNL     1     145.704 170.948 190.567  0.00  0.00    +0.011 C 
ATOM      2  H   UNL     1     145.713 171.633 191.424  0.00  0.00    +0.033 HD
ATOM      3  H   UNL     1     145.200 170.047 190.931  0.00  0.00    +0.033 HD
ENDROOT
BRANCH   1  36
ATOM      4  C   UNL     1     144.178 172.895 189.775  0.00  0.00    +0.020 C 
ATOM      5  C   UNL     1     142.686 172.773 190.208  0.00  0.00    +0.068 C 
ATOM      6  C   UNL     1     142.355 171.824 191.394  0.00  0.00    -0.008 C 
ATOM      7  C   UNL     1     142.350 170.357 191.061  0.00  0.00    -0.077 C 
ATOM      8  C   UNL     1     142.475 169.352 191.943  0.00  0.00    -0.003 C 
ATOM      9  C   UNL     1     142.488 168.005 191.481  0.00  0.00    +0.220 A 
ATOM     10  N   UNL     1     142.698 167.624 190.230  0.00  0.00    -0.205 NA
ATOM     11  C   UNL     1     142.612 166.257 190.236  0.00  0.00    +0.164 A 
ATOM     12  C   UNL     1     142.372 165.823 191.511  0.00  0.00    +0.125 A 
ATOM     13  O   UNL     1     142.310 166.917 192.320  0.00  0.00    -0.443 OA
ATOM     14  C   UNL     1     142.765 165.368 188.965  0.00  0.00    +0.250 A 
ATOM     15  N   UNL     1     143.031 165.875 187.777  0.00  0.00    -0.203 NA
ATOM     16  C   UNL     1     143.070 164.789 186.940  0.00  0.00    +0.164 A 
ATOM     17  C   UNL     1     142.823 163.646 187.653  0.00  0.00    +0.125 A 
ATOM     18  O   UNL     1     142.632 163.997 188.958  0.00  0.00    -0.442 OA
ATOM     19  C   UNL     1     143.350 164.858 185.406  0.00  0.00    +0.249 A 
ATOM     20  N   UNL     1     143.602 165.990 184.768  0.00  0.00    -0.210 NA
ATOM     21  C   UNL     1     143.823 165.620 183.460  0.00  0.00    +0.109 A 
ATOM     22  C   UNL     1     143.679 164.255 183.353  0.00  0.00    +0.118 A 
ATOM     23  O   UNL     1     143.375 163.756 184.583  0.00  0.00    -0.442 OA
ATOM     24  C   UNL     1     144.218 166.626 182.419  0.00  0.00    +0.113 C 
ATOM     25  C   UNL     1     145.422 167.466 182.895  0.00  0.00    +0.051 C 
ATOM     26  C   UNL     1     145.830 168.423 181.784  0.00  0.00    +0.161 C 
ATOM     27  O   UNL     1     145.947 168.054 180.615  0.00  0.00    -0.292 OA
ATOM     28  C   UNL     1     146.161 169.843 182.104  0.00  0.00    -0.023 C 
ATOM     29  C   UNL     1     146.571 170.280 183.307  0.00  0.00    -0.078 C 
ATOM     30  C   UNL     1     146.939 171.714 183.586  0.00  0.00    -0.008 C 
ATOM     31  C   UNL     1     146.115 172.348 184.723  0.00  0.00    +0.069 C 
ATOM     32  C   UNL     1     146.555 171.863 186.110  0.00  0.00    +0.071 C 
ATOM     33  C   UNL     1     145.391 171.796 187.070  0.00  0.00    +0.310 C 
ATOM     34  O   UNL     1     144.223 171.647 186.745  0.00  0.00    -0.251 OA
ATOM     35  O   UNL     1     145.853 171.836 188.352  0.00  0.00    -0.461 OA
ATOM     36  C   UNL     1     144.892 171.558 189.407  0.00  0.00    +0.110 C 
ATOM     37  H   UNL     1     144.185 173.503 188.862  0.00  0.00    +0.036 HD
ATOM     38  H   UNL     1     142.356 173.770 190.530  0.00  0.00    +0.060 HD
ATOM     39  H   UNL     1     143.012 172.033 192.244  0.00  0.00    +0.033 HD
ATOM     40  H   UNL     1     141.331 172.064 191.714  0.00  0.00    +0.033 HD
ATOM     41  H   UNL     1     142.198 170.112 190.006  0.00  0.00    +0.057 HD
ATOM     42  H   UNL     1     142.567 169.532 193.008  0.00  0.00    +0.067 HD
ATOM     43  H   UNL     1     142.237 164.860 191.982  0.00  0.00    +0.105 HD
ATOM     44  H   UNL     1     142.754 162.598 187.415  0.00  0.00    +0.105 HD
ATOM     45  H   UNL     1     143.767 163.535 182.553  0.00  0.00    +0.105 HD
ATOM     46  H   UNL     1     144.480 166.106 181.487  0.00  0.00    +0.067 HD
ATOM     47  H   UNL     1     145.116 168.047 183.772  0.00  0.00    +0.041 HD
ATOM     48  H   UNL     1     146.096 170.512 181.251  0.00  0.00    +0.065 HD
ATOM     49  H   UNL     1     146.678 169.589 184.140  0.00  0.00    +0.057 HD
ATOM     50  H   UNL     1     148.006 171.768 183.832  0.00  0.00    +0.033 HD
ATOM     51  H   UNL     1     146.818 172.317 182.678  0.00  0.00    +0.033 HD
ATOM     52  H   UNL     1     145.050 172.167 184.541  0.00  0.00    +0.060 HD
ATOM     53  H   UNL     1     147.313 172.540 186.522  0.00  0.00    +0.040 HD
ATOM     54  H   UNL     1     146.972 170.851 186.076  0.00  0.00    +0.040 HD
ATOM     55  H   UNL     1     144.177 170.819 189.034  0.00  0.00    +0.074 HD
BRANCH   4  56
ATOM     56  C   UNL     1     144.960 173.747 190.787  0.00  0.00    -0.057 C 
ATOM     57  H   UNL     1     144.915 174.817 190.559  0.00  0.00    +0.023 HD
ATOM     58  H   UNL     1     144.583 173.594 191.803  0.00  0.00    +0.023 HD
ATOM     59  H   UNL     1     146.020 173.462 190.790  0.00  0.00    +0.023 HD
ENDBRANCH   4  56
BRANCH  25  60
ATOM     60  C   UNL     1     146.646 166.613 183.241  0.00  0.00    -0.053 C 
ATOM     61  H   UNL     1     146.363 165.579 183.467  0.00  0.00    +0.024 HD
ATOM     62  H   UNL     1     147.163 167.010 184.119  0.00  0.00    +0.024 HD
ATOM     63  H   UNL     1     147.357 166.582 182.410  0.00  0.00    +0.024 HD
ENDBRANCH  25  60
BRANCH  31  64
ATOM     64  O   UNL     1     146.313 173.768 184.681  0.00  0.00    -0.391 OA
ATOM     65  H   UNL     1     146.967 173.993 185.370  0.00  0.00    +0.210 HD
ENDBRANCH  31  64
BRANCH  24  66
ATOM     66  O   UNL     1     143.141 167.546 182.151  0.00  0.00    -0.373 OA
BRANCH  66  67
ATOM     67  C   UNL     1     142.208 167.051 181.200  0.00  0.00    +0.037 C 
ATOM     68  H   UNL     1     142.714 166.706 180.295  0.00  0.00    +0.052 HD
ATOM     69  H   UNL     1     141.469 167.821 180.955  0.00  0.00    +0.052 HD
ATOM     70  H   UNL     1     141.682 166.203 181.647  0.00  0.00    +0.052 HD
ENDBRANCH  66  67
ENDBRANCH  24  66
BRANCH   5  71
ATOM     71  O   UNL     1     141.842 172.380 189.114  0.00  0.00    -0.379 OA
BRANCH  71  72
ATOM     72  C   UNL     1     140.603 173.070 189.038  0.00  0.00    +0.037 C 
ATOM     73  H   UNL     1     140.191 172.922 188.034  0.00  0.00    +0.052 HD
ATOM     74  H   UNL     1     139.889 172.670 189.765  0.00  0.00    +0.052 HD
ATOM     75  H   UNL     1     140.732 174.142 189.190  0.00  0.00    +0.052 HD
ENDBRANCH  71  72
ENDBRANCH   5  71
ENDBRANCH   1  36
BRANCH   1  76
ATOM     76  C   UNL     1     147.163 170.556 190.249  0.00  0.00    +0.064 C 
ATOM     77  H   UNL     1     147.440 170.995 189.282  0.00  0.00    +0.060 HD
BRANCH  76  78
ATOM     78  C   UNL     1     148.251 170.975 191.280  0.00  0.00    -0.017 C 
ATOM     79  H   UNL     1     149.076 171.457 190.745  0.00  0.00    +0.032 HD
BRANCH  78  80
ATOM     80  C   UNL     1     147.708 171.947 192.341  0.00  0.00    -0.060 C 
ATOM     81  H   UNL     1     146.615 171.966 192.331  0.00  0.00    +0.023 HD
ATOM     82  H   UNL     1     148.065 172.966 192.165  0.00  0.00    +0.023 HD
ATOM     83  H   UNL     1     148.003 171.660 193.353  0.00  0.00    +0.023 HD
ENDBRANCH  78  80
BRANCH  78  84
ATOM     84  C   UNL     1     148.809 169.695 191.955  0.00  0.00    -0.045 C 
ATOM     85  H   UNL     1     148.702 169.819 193.032  0.00  0.00    +0.027 HD
ATOM     86  H   UNL     1     148.189 168.837 191.667  0.00  0.00    +0.027 HD
BRANCH  84  87
ATOM     87  C   UNL     1     150.271 169.372 191.644  0.00  0.00    -0.015 C 
ATOM     88  H   UNL     1     150.947 169.970 192.265  0.00  0.00    +0.030 HD
ATOM     89  H   UNL     1     150.492 169.680 190.612  0.00  0.00    +0.030 HD
BRANCH  87  90
ATOM     90  C   UNL     1     150.633 167.880 191.794  0.00  0.00    +0.109 C 
ATOM     91  H   UNL     1     149.879 167.299 191.249  0.00  0.00    +0.074 HD
BRANCH  90  92
ATOM     92  C   UNL     1     150.763 167.302 193.245  0.00  0.00    +0.031 C 
ATOM     93  H   UNL     1     150.881 168.182 193.892  0.00  0.00    +0.037 HD
BRANCH  92  94
ATOM     94  C   UNL     1     152.054 166.487 193.396  0.00  0.00    -0.056 C 
ATOM     95  H   UNL     1     152.616 166.401 192.465  0.00  0.00    +0.023 HD
ATOM     96  H   UNL     1     152.716 166.926 194.149  0.00  0.00    +0.023 HD
ATOM     97  H   UNL     1     151.834 165.473 193.741  0.00  0.00    +0.023 HD
ENDBRANCH  92  94
BRANCH  92  98
ATOM     98  C   UNL     1     149.480 166.558 193.733  0.00  0.00    +0.115 C 
ATOM     99  H   UNL     1     148.824 167.291 194.214  0.00  0.00    +0.074 HD
BRANCH  98 100
ATOM    100  C   UNL     1     148.642 165.788 192.668  0.00  0.00    +0.013 C 
ATOM    101  H   UNL     1     148.817 166.281 191.700  0.00  0.00    +0.038 HD
BRANCH 100 102
ATOM    102  C   UNL     1     147.127 165.904 192.873  0.00  0.00    -0.056 C 
ATOM    103  H   UNL     1     146.800 166.941 192.992  0.00  0.00    +0.024 HD
ATOM    104  H   UNL     1     146.587 165.474 192.024  0.00  0.00    +0.024 HD
ATOM    105  H   UNL     1     146.817 165.358 193.772  0.00  0.00    +0.024 HD
ENDBRANCH 100 102
BRANCH 100 106
ATOM    106  C   UNL     1     149.074 164.345 192.501  0.00  0.00    -0.064 C 
ATOM    107  C   UNL     1     149.001 163.721 191.316  0.00  0.00    -0.005 C 
ATOM    108  H   UNL     1     149.441 163.843 193.388  0.00  0.00    +0.059 HD
ATOM    109  H   UNL     1     148.620 164.280 190.457  0.00  0.00    +0.078 HD
BRANCH 107 110
ATOM    110  N   UNL     1     149.371 162.417 191.020  0.00  0.00    -0.284 N 
ATOM    111  C   UNL     1     148.516 161.324 191.013  0.00  0.00    +0.206 C 
ATOM    112  O   UNL     1     148.824 160.162 190.756  0.00  0.00    -0.279 OA
ATOM    113  H   UNL     1     147.478 161.568 191.278  0.00  0.00    +0.126 HD
BRANCH 110 114
ATOM    114  C   UNL     1     150.780 162.180 190.720  0.00  0.00    +0.007 C 
ATOM    115  H   UNL     1     150.936 161.219 190.224  0.00  0.00    +0.043 HD
ATOM    116  H   UNL     1     151.152 162.973 190.065  0.00  0.00    +0.043 HD
ATOM    117  H   UNL     1     151.342 162.188 191.658  0.00  0.00    +0.043 HD
ENDBRANCH 110 114
ENDBRANCH 107 110
ENDBRANCH 100 106
ENDBRANCH  98 100
BRANCH  98 118
ATOM    118  O   UNL     1     149.898 165.590 194.736  0.00  0.00    -0.461 OA
BRANCH 118 119
ATOM    119  C   UNL     1     149.812 165.974 196.040  0.00  0.00    +0.304 C 
ATOM    120  O   UNL     1     150.757 166.126 196.798  0.00  0.00    -0.251 OA
BRANCH 119 121
ATOM    121  C   UNL     1     148.378 166.192 196.413  0.00  0.00    +0.033 C 
ATOM    122  H   UNL     1     148.042 167.161 196.038  0.00  0.00    +0.034 HD
ATOM    123  H   UNL     1     148.285 166.192 197.504  0.00  0.00    +0.034 HD
ATOM    124  H   UNL     1     147.760 165.387 196.010  0.00  0.00    +0.034 HD
ENDBRANCH 119 121
ENDBRANCH 118 119
ENDBRANCH  98 118
ENDBRANCH  92  98
ENDBRANCH  90  92
BRANCH  90 125
ATOM    125  O   UNL     1     151.935 167.709 191.172  0.00  0.00    -0.459 OA
BRANCH 125 126
ATOM    126  C   UNL     1     151.964 167.391 189.841  0.00  0.00    +0.339 C 
ATOM    127  O   UNL     1     152.495 168.067 188.969  0.00  0.00    -0.248 OA
BRANCH 126 128
ATOM    128  C   UNL     1     151.271 166.030 189.631  0.00  0.00    +0.178 C 
ATOM    129  H   UNL     1     150.974 165.656 190.622  0.00  0.00    +0.074 HD
BRANCH 128 130
ATOM    130  C   UNL     1     149.996 166.245 188.796  0.00  0.00    +0.084 C 
ATOM    131  H   UNL     1     149.588 167.249 188.956  0.00  0.00    +0.059 HD
ATOM    132  H   UNL     1     149.241 165.511 189.097  0.00  0.00    +0.059 HD
BRANCH 130 133
ATOM    133  O   UNL     1     150.270 166.083 187.398  0.00  0.00    -0.380 OA
BRANCH 133 134
ATOM    134  C   UNL     1     149.872 167.219 186.644  0.00  0.00    +0.037 C 
ATOM    135  H   UNL     1     149.438 167.979 187.301  0.00  0.00    +0.052 HD
ATOM    136  H   UNL     1     150.722 167.635 186.094  0.00  0.00    +0.052 HD
ATOM    137  H   UNL     1     149.108 166.902 185.926  0.00  0.00    +0.052 HD
ENDBRANCH 133 134
ENDBRANCH 130 133
ENDBRANCH 128 130
BRANCH 128 138
ATOM    138  O   UNL     1     152.028 165.001 188.987  0.00  0.00    -0.366 OA
BRANCH 138 139
ATOM    139  C   UNL     1     153.267 164.728 189.624  0.00  0.00    +0.038 C 
ATOM    140  H   UNL     1     154.051 165.404 189.263  0.00  0.00    +0.052 HD
ATOM    141  H   UNL     1     153.564 163.687 189.471  0.00  0.00    +0.052 HD
ATOM    142  H   UNL     1     153.140 164.890 190.699  0.00  0.00    +0.052 HD
ENDBRANCH 138 139
ENDBRANCH 128 138
ENDBRANCH 126 128
ENDBRANCH 125 126
ENDBRANCH  90 125
ENDBRANCH  87  90
ENDBRANCH  84  87
ENDBRANCH  78  84
ENDBRANCH  76  78
BRANCH  76 143
ATOM    143  O   UNL     1     147.205 169.115 190.155  0.00  0.00    -0.379 OA
BRANCH 143 144
ATOM    144  C   UNL     1     147.142 168.628 188.822  0.00  0.00    +0.037 C 
ATOM    145  H   UNL     1     147.142 169.486 188.143  0.00  0.00    +0.052 HD
ATOM    146  H   UNL     1     148.012 168.005 188.594  0.00  0.00    +0.052 HD
ATOM    147  H   UNL     1     146.216 168.063 188.665  0.00  0.00    +0.052 HD
ENDBRANCH 143 144
ENDBRANCH  76 143
ENDBRANCH   1  76
TORSDOF 35
ENDMDL
MODEL 10
REMARK VINA RESULT:      -5.3      1.612      3.732
REMARK  Name = Mycalolide B_conf1
REMARK  35 active torsions:
REMARK  status: ('A' for Active; 'I' for Inactive)
REMARK    1  A    between atoms: C_1  and  C_2
REMARK    2  A    between atoms: C_3  and  O_72
REMARK    3  A    between atoms: C_22  and  O_70
REMARK    4  A    between atoms: C_23  and  C_69
REMARK    5  A    between atoms: C_29  and  O_68
REMARK    6  A    between atoms: C_34  and  C_35
REMARK    7  A    between atoms: C_35  and  C_36
REMARK    8  A    between atoms: C_36  and  C_37
REMARK    9  A    between atoms: C_36  and  O_66
REMARK   10  A    between atoms: C_37  and  C_38
REMARK   11  A    between atoms: C_37  and  C_39
REMARK   12  A    between atoms: C_39  and  C_40
REMARK   13  A    between atoms: C_40  and  C_41
REMARK   14  A    between atoms: C_41  and  C_42
REMARK   15  A    between atoms: C_41  and  O_57
REMARK   16  A    between atoms: C_42  and  C_43
REMARK   17  A    between atoms: C_42  and  C_44
REMARK   18  A    between atoms: C_44  and  C_45
REMARK   19  A    between atoms: C_44  and  O_53
REMARK   20  A    between atoms: C_45  and  C_46
REMARK   21  A    between atoms: C_45  and  C_47
REMARK   22  A    between atoms: C_48  and  N_49
REMARK   23  A    between atoms: N_49  and  C_50
REMARK   24  A    between atoms: O_53  and  C_54
REMARK   25  A    between atoms: C_54  and  C_56
REMARK   26  A    between atoms: O_57  and  C_58
REMARK   27  A    between atoms: C_58  and  C_60
REMARK   28  A    between atoms: C_60  and  C_61
REMARK   29  A    between atoms: C_60  and  O_64
REMARK   30  A    between atoms: C_61  and  O_62
REMARK   31  A    between atoms: O_62  and  C_63
REMARK   32  A    between atoms: O_64  and  C_65
REMARK   33  A    between atoms: O_66  and  C_67
REMARK   34  A    between atoms: O_70  and  C_71
REMARK   35  A    between atoms: O_72  and  C_73
REMARK                            x       y       z     vdW  Elec       q    Type
REMARK                         _______ _______ _______ _____ _____    ______ ____
ROOT
ATOM      1  C   UNL     1     150.959 166.773 190.594  0.00  0.00    +0.011 C 
ATOM      2  H   UNL     1     152.044 166.765 190.758  0.00  0.00    +0.033 HD
ATOM      3  H   UNL     1     150.667 165.718 190.578  0.00  0.00    +0.033 HD
ENDROOT
BRANCH   1  36
ATOM      4  C   UNL     1     150.930 167.252 193.146  0.00  0.00    +0.020 C 
ATOM      5  C   UNL     1     150.325 166.111 194.018  0.00  0.00    +0.068 C 
ATOM      6  C   UNL     1     150.240 164.691 193.390  0.00  0.00    -0.008 C 
ATOM      7  C   UNL     1     149.124 164.492 192.402  0.00  0.00    -0.077 C 
ATOM      8  C   UNL     1     149.066 163.530 191.467  0.00  0.00    -0.003 C 
ATOM      9  C   UNL     1     147.959 163.480 190.572  0.00  0.00    +0.220 A 
ATOM     10  N   UNL     1     147.107 164.470 190.349  0.00  0.00    -0.205 NA
ATOM     11  C   UNL     1     146.207 163.988 189.435  0.00  0.00    +0.164 A 
ATOM     12  C   UNL     1     146.545 162.707 189.096  0.00  0.00    +0.125 A 
ATOM     13  O   UNL     1     147.668 162.373 189.793  0.00  0.00    -0.443 OA
ATOM     14  C   UNL     1     144.995 164.804 188.894  0.00  0.00    +0.250 A 
ATOM     15  N   UNL     1     144.766 166.053 189.253  0.00  0.00    -0.203 NA
ATOM     16  C   UNL     1     143.621 166.400 188.583  0.00  0.00    +0.164 A 
ATOM     17  C   UNL     1     143.185 165.341 187.831  0.00  0.00    +0.125 A 
ATOM     18  O   UNL     1     144.060 164.309 188.012  0.00  0.00    -0.442 OA
ATOM     19  C   UNL     1     142.925 167.794 188.674  0.00  0.00    +0.249 A 
ATOM     20  N   UNL     1     143.400 168.792 189.403  0.00  0.00    -0.210 NA
ATOM     21  C   UNL     1     142.527 169.836 189.189  0.00  0.00    +0.109 A 
ATOM     22  C   UNL     1     141.533 169.416 188.334  0.00  0.00    +0.118 A 
ATOM     23  O   UNL     1     141.771 168.118 188.000  0.00  0.00    -0.442 OA
ATOM     24  C   UNL     1     142.765 171.189 189.792  0.00  0.00    +0.113 C 
ATOM     25  C   UNL     1     144.196 171.682 189.488  0.00  0.00    +0.051 C 
ATOM     26  C   UNL     1     144.368 173.083 190.058  0.00  0.00    +0.161 C 
ATOM     27  O   UNL     1     143.523 173.963 189.895  0.00  0.00    -0.292 OA
ATOM     28  C   UNL     1     145.619 173.444 190.791  0.00  0.00    -0.023 C 
ATOM     29  C   UNL     1     146.802 172.824 190.636  0.00  0.00    -0.078 C 
ATOM     30  C   UNL     1     148.055 173.240 191.359  0.00  0.00    -0.008 C 
ATOM     31  C   UNL     1     148.680 172.112 192.201  0.00  0.00    +0.069 C 
ATOM     32  C   UNL     1     149.406 171.069 191.342  0.00  0.00    +0.071 C 
ATOM     33  C   UNL     1     149.310 169.689 191.946  0.00  0.00    +0.310 C 
ATOM     34  O   UNL     1     148.420 169.310 192.693  0.00  0.00    -0.251 OA
ATOM     35  O   UNL     1     150.316 168.907 191.461  0.00  0.00    -0.461 OA
ATOM     36  C   UNL     1     150.249 167.486 191.763  0.00  0.00    +0.110 C 
ATOM     37  H   UNL     1     150.788 168.181 193.714  0.00  0.00    +0.036 HD
ATOM     38  H   UNL     1     150.965 166.002 194.904  0.00  0.00    +0.060 HD
ATOM     39  H   UNL     1     151.205 164.408 192.957  0.00  0.00    +0.033 HD
ATOM     40  H   UNL     1     150.041 163.993 194.215  0.00  0.00    +0.033 HD
ATOM     41  H   UNL     1     148.282 165.184 192.494  0.00  0.00    +0.057 HD
ATOM     42  H   UNL     1     149.842 162.779 191.369  0.00  0.00    +0.067 HD
ATOM     43  H   UNL     1     146.141 161.956 188.433  0.00  0.00    +0.105 HD
ATOM     44  H   UNL     1     142.353 165.165 187.171  0.00  0.00    +0.105 HD
ATOM     45  H   UNL     1     140.664 169.875 187.885  0.00  0.00    +0.105 HD
ATOM     46  H   UNL     1     142.037 171.905 189.385  0.00  0.00    +0.067 HD
ATOM     47  H   UNL     1     144.908 171.008 189.978  0.00  0.00    +0.041 HD
ATOM     48  H   UNL     1     145.513 174.307 191.442  0.00  0.00    +0.065 HD
ATOM     49  H   UNL     1     146.903 171.992 189.944  0.00  0.00    +0.057 HD
ATOM     50  H   UNL     1     148.788 173.601 190.627  0.00  0.00    +0.033 HD
ATOM     51  H   UNL     1     147.847 174.099 192.010  0.00  0.00    +0.033 HD
ATOM     52  H   UNL     1     147.906 171.661 192.832  0.00  0.00    +0.060 HD
ATOM     53  H   UNL     1     150.464 171.336 191.239  0.00  0.00    +0.040 HD
ATOM     54  H   UNL     1     148.967 170.988 190.342  0.00  0.00    +0.040 HD
ATOM     55  H   UNL     1     149.197 167.189 191.786  0.00  0.00    +0.074 HD
BRANCH   4  56
ATOM     56  C   UNL     1     152.457 167.106 193.060  0.00  0.00    -0.057 C 
ATOM     57  H   UNL     1     152.764 166.131 192.666  0.00  0.00    +0.023 HD
ATOM     58  H   UNL     1     152.890 167.887 192.426  0.00  0.00    +0.023 HD
ATOM     59  H   UNL     1     152.909 167.209 194.054  0.00  0.00    +0.023 HD
ENDBRANCH   4  56
BRANCH  25  60
ATOM     60  C   UNL     1     144.498 171.755 187.988  0.00  0.00    -0.053 C 
ATOM     61  H   UNL     1     144.689 170.760 187.570  0.00  0.00    +0.024 HD
ATOM     62  H   UNL     1     145.384 172.366 187.798  0.00  0.00    +0.024 HD
ATOM     63  H   UNL     1     143.659 172.186 187.434  0.00  0.00    +0.024 HD
ENDBRANCH  25  60
BRANCH  31  64
ATOM     64  O   UNL     1     149.652 172.696 193.080  0.00  0.00    -0.391 OA
ATOM     65  H   UNL     1     150.178 171.967 193.461  0.00  0.00    +0.210 HD
ENDBRANCH  31  64
BRANCH  24  66
ATOM     66  O   UNL     1     142.627 171.150 191.226  0.00  0.00    -0.373 OA
BRANCH  66  67
ATOM     67  C   UNL     1     141.442 171.782 191.690  0.00  0.00    +0.037 C 
ATOM     68  H   UNL     1     140.955 172.343 190.888  0.00  0.00    +0.052 HD
ATOM     69  H   UNL     1     141.667 172.441 192.534  0.00  0.00    +0.052 HD
ATOM     70  H   UNL     1     140.754 171.006 192.035  0.00  0.00    +0.052 HD
ENDBRANCH  66  67
ENDBRANCH  24  66
BRANCH   5  71
ATOM     71  O   UNL     1     149.006 166.437 194.487  0.00  0.00    -0.379 OA
BRANCH  71  72
ATOM     72  C   UNL     1     148.785 166.192 195.868  0.00  0.00    +0.037 C 
ATOM     73  H   UNL     1     147.947 165.493 195.960  0.00  0.00    +0.052 HD
ATOM     74  H   UNL     1     149.667 165.734 196.329  0.00  0.00    +0.052 HD
ATOM     75  H   UNL     1     148.517 167.106 196.399  0.00  0.00    +0.052 HD
ENDBRANCH  71  72
ENDBRANCH   5  71
ENDBRANCH   1  36
BRANCH   1  76
ATOM     76  C   UNL     1     150.690 167.340 189.183  0.00  0.00    +0.064 C 
ATOM     77  H   UNL     1     150.363 168.382 189.281  0.00  0.00    +0.060 HD
BRANCH  76  78
ATOM     78  C   UNL     1     151.874 167.316 188.172  0.00  0.00    -0.017 C 
ATOM     79  H   UNL     1     151.836 168.226 187.565  0.00  0.00    +0.032 HD
BRANCH  78  80
ATOM     80  C   UNL     1     153.240 167.239 188.873  0.00  0.00    -0.060 C 
ATOM     81  H   UNL     1     153.138 167.404 189.950  0.00  0.00    +0.023 HD
ATOM     82  H   UNL     1     153.931 167.992 188.481  0.00  0.00    +0.023 HD
ATOM     83  H   UNL     1     153.711 166.260 188.754  0.00  0.00    +0.023 HD
ENDBRANCH  78  80
BRANCH  78  84
ATOM     84  C   UNL     1     151.685 166.105 187.222  0.00  0.00    -0.045 C 
ATOM     85  H   UNL     1     150.958 165.436 187.683  0.00  0.00    +0.027 HD
ATOM     86  H   UNL     1     151.247 166.454 186.278  0.00  0.00    +0.027 HD
BRANCH  84  87
ATOM     87  C   UNL     1     152.952 165.308 186.911  0.00  0.00    -0.015 C 
ATOM     88  H   UNL     1     153.850 165.893 187.139  0.00  0.00    +0.030 HD
ATOM     89  H   UNL     1     153.003 165.128 185.828  0.00  0.00    +0.030 HD
BRANCH  87  90
ATOM     90  C   UNL     1     153.036 163.948 187.635  0.00  0.00    +0.109 C 
ATOM     91  H   UNL     1     153.004 163.163 186.870  0.00  0.00    +0.074 HD
BRANCH  90  92
ATOM     92  C   UNL     1     151.956 163.633 188.726  0.00  0.00    +0.031 C 
ATOM     93  H   UNL     1     151.203 164.427 188.617  0.00  0.00    +0.037 HD
BRANCH  92  94
ATOM     94  C   UNL     1     152.539 163.790 190.136  0.00  0.00    -0.056 C 
ATOM     95  H   UNL     1     151.777 163.793 190.916  0.00  0.00    +0.023 HD
ATOM     96  H   UNL     1     153.250 162.990 190.364  0.00  0.00    +0.023 HD
ATOM     97  H   UNL     1     153.099 164.726 190.221  0.00  0.00    +0.023 HD
ENDBRANCH  92  94
BRANCH  92  98
ATOM     98  C   UNL     1     151.214 162.280 188.491  0.00  0.00    +0.115 C 
ATOM     99  H   UNL     1     150.633 162.050 189.390  0.00  0.00    +0.074 HD
BRANCH  98 100
ATOM    100  C   UNL     1     150.258 162.184 187.263  0.00  0.00    +0.013 C 
ATOM    101  H   UNL     1     149.545 161.373 187.471  0.00  0.00    +0.038 HD
BRANCH 100 102
ATOM    102  C   UNL     1     150.956 161.738 185.972  0.00  0.00    -0.056 C 
ATOM    103  H   UNL     1     150.553 162.237 185.086  0.00  0.00    +0.024 HD
ATOM    104  H   UNL     1     152.028 161.947 186.019  0.00  0.00    +0.024 HD
ATOM    105  H   UNL     1     150.837 160.659 185.823  0.00  0.00    +0.024 HD
ENDBRANCH 100 102
BRANCH 100 106
ATOM    106  C   UNL     1     149.436 163.438 187.048  0.00  0.00    -0.064 C 
ATOM    107  C   UNL     1     149.133 163.880 185.818  0.00  0.00    -0.005 C 
ATOM    108  H   UNL     1     149.109 163.961 187.939  0.00  0.00    +0.059 HD
ATOM    109  H   UNL     1     149.494 163.310 184.958  0.00  0.00    +0.078 HD
BRANCH 107 110
ATOM    110  N   UNL     1     148.385 164.997 185.479  0.00  0.00    -0.284 N 
ATOM    111  C   UNL     1     148.879 166.132 184.852  0.00  0.00    +0.206 C 
ATOM    112  O   UNL     1     148.233 167.132 184.546  0.00  0.00    -0.279 OA
ATOM    113  H   UNL     1     149.955 166.091 184.639  0.00  0.00    +0.126 HD
BRANCH 110 114
ATOM    114  C   UNL     1     146.969 164.980 185.839  0.00  0.00    +0.007 C 
ATOM    115  H   UNL     1     146.804 164.538 186.825  0.00  0.00    +0.043 HD
ATOM    116  H   UNL     1     146.583 166.003 185.848  0.00  0.00    +0.043 HD
ATOM    117  H   UNL     1     146.427 164.391 185.094  0.00  0.00    +0.043 HD
ENDBRANCH 110 114
ENDBRANCH 107 110
ENDBRANCH 100 106
ENDBRANCH  98 100
BRANCH  98 118
ATOM    118  O   UNL     1     152.232 161.253 188.328  0.00  0.00    -0.461 OA
BRANCH 118 119
ATOM    119  C   UNL     1     152.192 160.202 189.192  0.00  0.00    +0.304 C 
ATOM    120  O   UNL     1     152.937 159.234 189.166  0.00  0.00    -0.251 OA
BRANCH 119 121
ATOM    121  C   UNL     1     151.096 160.405 190.194  0.00  0.00    +0.033 C 
ATOM    122  H   UNL     1     150.166 160.651 189.678  0.00  0.00    +0.034 HD
ATOM    123  H   UNL     1     151.359 161.239 190.851  0.00  0.00    +0.034 HD
ATOM    124  H   UNL     1     150.974 159.505 190.802  0.00  0.00    +0.034 HD
ENDBRANCH 119 121
ENDBRANCH 118 119
ENDBRANCH  98 118
ENDBRANCH  92  98
ENDBRANCH  90  92
BRANCH  90 125
ATOM    125  O   UNL     1     154.318 163.925 188.317  0.00  0.00    -0.459 OA
BRANCH 125 126
ATOM    126  C   UNL     1     155.424 163.603 187.576  0.00  0.00    +0.339 C 
ATOM    127  O   UNL     1     155.445 162.786 186.664  0.00  0.00    -0.248 OA
BRANCH 126 128
ATOM    128  C   UNL     1     156.613 164.467 188.042  0.00  0.00    +0.178 C 
ATOM    129  H   UNL     1     156.244 165.136 188.832  0.00  0.00    +0.074 HD
BRANCH 128 130
ATOM    130  C   UNL     1     157.686 163.548 188.652  0.00  0.00    +0.084 C 
ATOM    131  H   UNL     1     158.692 163.942 188.466  0.00  0.00    +0.059 HD
ATOM    132  H   UNL     1     157.613 162.555 188.192  0.00  0.00    +0.059 HD
BRANCH 130 133
ATOM    133  O   UNL     1     157.502 163.420 190.068  0.00  0.00    -0.380 OA
BRANCH 133 134
ATOM    134  C   UNL     1     157.332 162.066 190.461  0.00  0.00    +0.037 C 
ATOM    135  H   UNL     1     157.438 161.402 189.597  0.00  0.00    +0.052 HD
ATOM    136  H   UNL     1     158.055 161.795 191.236  0.00  0.00    +0.052 HD
ATOM    137  H   UNL     1     156.321 161.951 190.866  0.00  0.00    +0.052 HD
ENDBRANCH 133 134
ENDBRANCH 130 133
ENDBRANCH 128 130
BRANCH 128 138
ATOM    138  O   UNL     1     157.262 165.275 187.055  0.00  0.00    -0.366 OA
BRANCH 138 139
ATOM    139  C   UNL     1     156.389 166.193 186.415  0.00  0.00    +0.038 C 
ATOM    140  H   UNL     1     156.236 165.921 185.365  0.00  0.00    +0.052 HD
ATOM    141  H   UNL     1     156.774 167.214 186.489  0.00  0.00    +0.052 HD
ATOM    142  H   UNL     1     155.422 166.157 186.925  0.00  0.00    +0.052 HD
ENDBRANCH 138 139
ENDBRANCH 128 138
ENDBRANCH 126 128
ENDBRANCH 125 126
ENDBRANCH  90 125
ENDBRANCH  87  90
ENDBRANCH  84  87
ENDBRANCH  78  84
ENDBRANCH  76  78
BRANCH  76 143
ATOM    143  O   UNL     1     149.627 166.553 188.604  0.00  0.00    -0.379 OA
BRANCH 143 144
ATOM    144  C   UNL     1     148.399 167.257 188.478  0.00  0.00    +0.037 C 
ATOM    145  H   UNL     1     148.264 167.522 187.425  0.00  0.00    +0.052 HD
ATOM    146  H   UNL     1     147.558 166.630 188.788  0.00  0.00    +0.052 HD
ATOM    147  H   UNL     1     148.426 168.180 189.067  0.00  0.00    +0.052 HD
ENDBRANCH 143 144
ENDBRANCH  76 143
ENDBRANCH   1  76
TORSDOF 35
ENDMDL
