########## rating : 0
########## RMSD l.b. : 0.000
########## RMSD u.b. : 0.000
########## Score : -6.5
@<TRIPOS>MOLECULE
Mycalolide_B_conf3_ligand_1_out.pdb
147 150 1 0 0
SMALL
NO_CHARGES


@<TRIPOS>ATOM
      1 C         151.1720  164.9370  188.1630 C.3       1 UNL    0.0000
      2 H         150.7210  164.1780  188.8120 H         1 UNL    0.0000
      3 H         150.4720  165.1420  187.3460 H         1 UNL    0.0000
      4 C         152.6440  162.8480  187.7070 C.3       1 UNL    0.0000
      5 C         152.8610  162.3510  189.1650 C.3       1 UNL    0.0000
      6 C         154.0030  163.0570  189.9410 C.3       1 UNL    0.0000
      7 C         155.2650  163.3410  189.1730 C.2       1 UNL    0.0000
      8 C         156.0690  162.4240  188.6130 C.2       1 UNL    0.0000
      9 C         157.2270  162.8450  187.9000 C.ar      1 UNL    0.0000
     10 N         157.4010  164.0310  187.3270 N.ar      1 UNL    0.0000
     11 C         158.7030  164.0390  186.8950 C.ar      1 UNL    0.0000
     12 C         159.2860  162.8330  187.1620 C.ar      1 UNL    0.0000
     13 O         158.3530  162.0420  187.7610 O.2       1 UNL    0.0000
     14 C         159.3920  165.2700  186.2450 C.ar      1 UNL    0.0000
     15 N         158.7350  166.3730  185.9230 N.ar      1 UNL    0.0000
     16 C         159.7120  167.2330  185.4860 C.ar      1 UNL    0.0000
     17 C         160.9280  166.6070  185.5120 C.ar      1 UNL    0.0000
     18 O         160.7390  165.3370  185.9740 O.2       1 UNL    0.0000
     19 C         159.4610  168.6960  185.0140 C.ar      1 UNL    0.0000
     20 N         158.2540  169.2190  184.8820 N.ar      1 UNL    0.0000
     21 C         158.4700  170.4810  184.3690 C.ar      1 UNL    0.0000
     22 C         159.8210  170.7010  184.2890 C.ar      1 UNL    0.0000
     23 O         160.4700  169.5580  184.6500 O.2       1 UNL    0.0000
     24 C         157.3280  171.3810  183.9950 C.3       1 UNL    0.0000
     25 C         156.8640  171.2350  182.5310 C.3       1 UNL    0.0000
     26 C         155.8110  170.1500  182.3880 C.2       1 UNL    0.0000
     27 O         154.6340  170.4520  182.1790 O.2       1 UNL    0.0000
     28 C         156.2080  168.7210  182.5370 C.2       1 UNL    0.0000
     29 C         155.2770  167.7560  182.5890 C.2       1 UNL    0.0000
     30 C         155.5930  166.3140  182.8790 C.3       1 UNL    0.0000
     31 C         155.0850  165.8720  184.2600 C.3       1 UNL    0.0000
     32 C         153.5620  165.7660  184.3200 C.3       1 UNL    0.0000
     33 C         153.1510  165.8140  185.7630 C.2       1 UNL    0.0000
     34 O         153.3760  166.7770  186.4840 O.2       1 UNL    0.0000
     35 O         152.5510  164.6600  186.1460 O.3       1 UNL    0.0000
     36 C         152.4870  164.3870  187.5710 C.3       1 UNL    0.0000
     37 H         153.5230  162.5470  187.1140 H         1 UNL    0.0000
     38 H         151.9290  162.4980  189.7250 H         1 UNL    0.0000
     39 H         153.6220  164.0140  190.3090 H         1 UNL    0.0000
     40 H         154.2730  162.4830  190.8350 H         1 UNL    0.0000
     41 H         155.5170  164.4000  189.0700 H         1 UNL    0.0000
     42 H         155.8750  161.3640  188.7070 H         1 UNL    0.0000
     43 H         160.2590  162.3940  187.0020 H         1 UNL    0.0000
     44 H         161.9440  166.8900  185.2650 H         1 UNL    0.0000
     45 H         160.4340  171.5310  183.9630 H         1 UNL    0.0000
     46 H         156.4980  171.1250  184.6680 H         1 UNL    0.0000
     47 H         156.3400  172.1650  182.2620 H         1 UNL    0.0000
     48 H         157.2580  168.4930  182.6720 H         1 UNL    0.0000
     49 H         154.2290  168.0160  182.4530 H         1 UNL    0.0000
     50 H         155.1620  165.6790  182.0950 H         1 UNL    0.0000
     51 H         156.6770  166.1440  182.8300 H         1 UNL    0.0000
     52 H         155.4660  166.5630  185.0220 H         1 UNL    0.0000
     53 H         153.0510  166.6040  183.8300 H         1 UNL    0.0000
     54 H         153.2030  164.8390  183.8550 H         1 UNL    0.0000
     55 H         153.3590  164.8490  188.0350 H         1 UNL    0.0000
     56 C         151.4700  162.1030  187.0450 C.3       1 UNL    0.0000
     57 H         151.6490  161.9570  185.9750 H         1 UNL    0.0000
     58 H         150.5360  162.6560  187.1580 H         1 UNL    0.0000
     59 H         151.3300  161.1100  187.4840 H         1 UNL    0.0000
     60 C         157.9760  171.1060  181.4910 C.3       1 UNL    0.0000
     61 H         158.9460  171.4520  181.8620 H         1 UNL    0.0000
     62 H         157.7270  171.6710  180.5850 H         1 UNL    0.0000
     63 H         158.1010  170.0530  181.2060 H         1 UNL    0.0000
     64 O         155.6270  164.5790  184.5470 O.3       1 UNL    0.0000
     65 H         156.5840  164.6210  184.3370 H         1 UNL    0.0000
     66 O         157.7030  172.7540  184.2250 O.3       1 UNL    0.0000
     67 C         156.6080  173.6460  184.0450 C.3       1 UNL    0.0000
     68 H         156.5650  174.0100  183.0140 H         1 UNL    0.0000
     69 H         155.6660  173.1520  184.3060 H         1 UNL    0.0000
     70 H         156.7480  174.5010  184.7110 H         1 UNL    0.0000
     71 O         153.1340  160.9340  189.1150 O.3       1 UNL    0.0000
     72 C         152.4420  160.2040  190.1200 C.3       1 UNL    0.0000
     73 H         151.9690  159.3060  189.7120 H         1 UNL    0.0000
     74 H         151.6620  160.8520  190.5320 H         1 UNL    0.0000
     75 H         153.1280  159.9300  190.9290 H         1 UNL    0.0000
     76 C         151.3540  166.2010  189.0190 C.3       1 UNL    0.0000
     77 H         152.2410  166.7500  188.6860 H         1 UNL    0.0000
     78 C         150.1240  167.1500  188.9790 C.3       1 UNL    0.0000
     79 H         150.4940  168.1670  189.1080 H         1 UNL    0.0000
     80 C         149.4880  167.0780  187.5700 C.3       1 UNL    0.0000
     81 H         149.5340  166.0570  187.1720 H         1 UNL    0.0000
     82 H         148.4320  167.3610  187.5910 H         1 UNL    0.0000
     83 H         150.0120  167.7370  186.8710 H         1 UNL    0.0000
     84 C         148.9970  166.8720  189.9880 C.3       1 UNL    0.0000
     85 H         148.3330  166.1040  189.5620 H         1 UNL    0.0000
     86 H         149.4290  166.4010  190.8870 H         1 UNL    0.0000
     87 C         148.0620  168.0060  190.4390 C.3       1 UNL    0.0000
     88 H         148.0230  168.6740  189.5710 H         1 UNL    0.0000
     89 H         147.0390  167.6270  190.5510 H         1 UNL    0.0000
     90 C         148.4170  168.8580  191.6810 C.3       1 UNL    0.0000
     91 H         147.4700  169.1600  192.1450 H         1 UNL    0.0000
     92 C         149.2490  170.1290  191.2800 C.3       1 UNL    0.0000
     93 H         149.5110  170.0260  190.2200 H         1 UNL    0.0000
     94 C         150.6150  170.1780  191.9920 C.3       1 UNL    0.0000
     95 H         150.5090  170.0280  193.0670 H         1 UNL    0.0000
     96 H         151.1270  171.1260  191.8110 H         1 UNL    0.0000
     97 H         151.2680  169.3700  191.6360 H         1 UNL    0.0000
     98 C         148.5520  171.5100  191.5110 C.3       1 UNL    0.0000
     99 H         149.2810  172.3060  191.2990 H         1 UNL    0.0000
    100 C         147.3460  171.8260  190.5760 C.3       1 UNL    0.0000
    101 H         147.4420  171.2650  189.6440 H         1 UNL    0.0000
    102 C         147.2600  173.3210  190.2350 C.3       1 UNL    0.0000
    103 H         148.0470  173.6200  189.5300 H         1 UNL    0.0000
    104 H         146.2910  173.5720  189.7770 H         1 UNL    0.0000
    105 H         147.3790  173.9410  191.1280 H         1 UNL    0.0000
    106 C         146.0320  171.4200  191.2250 C.2       1 UNL    0.0000
    107 C         144.9160  171.1560  190.5290 C.2       1 UNL    0.0000
    108 H         146.0370  171.3690  192.3110 H         1 UNL    0.0000
    109 H         144.9510  171.2540  189.4450 H         1 UNL    0.0000
    110 N         143.6780  170.7890  191.0310 N.am      1 UNL    0.0000
    111 C         143.3040  169.4940  191.3910 C.2       1 UNL    0.0000
    112 O         143.9630  168.4610  191.3470 O.2       1 UNL    0.0000
    113 H         142.2630  169.4520  191.7530 H         1 UNL    0.0000
    114 C         142.6900  171.8550  191.1860 C.3       1 UNL    0.0000
    115 H         143.1820  172.8210  191.0230 H         1 UNL    0.0000
    116 H         142.2480  171.8580  192.1880 H         1 UNL    0.0000
    117 H         141.8930  171.7190  190.4510 H         1 UNL    0.0000
    118 O         148.1070  171.6120  192.8840 O.3       1 UNL    0.0000
    119 C         148.5470  172.7000  193.5820 C.2       1 UNL    0.0000
    120 O         149.7000  172.9130  193.9250 O.2       1 UNL    0.0000
    121 C         147.4010  173.6060  193.9140 C.3       1 UNL    0.0000
    122 H         147.4680  174.5110  193.3060 H         1 UNL    0.0000
    123 H         147.4150  173.8510  194.9790 H         1 UNL    0.0000
    124 H         146.4590  173.0930  193.7020 H         1 UNL    0.0000
    125 O         149.1630  168.0400  192.6190 O.3       1 UNL    0.0000
    126 C         148.4190  167.3200  193.5250 C.2       1 UNL    0.0000
    127 O         147.3120  167.6590  193.9230 O.2       1 UNL    0.0000
    128 C         149.1590  166.0790  194.0530 C.3       1 UNL    0.0000
    129 H         150.1940  166.1540  193.6820 H         1 UNL    0.0000
    130 C         149.1910  166.1210  195.5820 C.3       1 UNL    0.0000
    131 H         149.7940  166.9660  195.9210 H         1 UNL    0.0000
    132 H         148.1760  166.2900  195.9620 H         1 UNL    0.0000
    133 O         149.6970  164.9040  196.1240 O.3       1 UNL    0.0000
    134 C         151.1160  164.8510  196.0580 C.3       1 UNL    0.0000
    135 H         151.5360  164.7990  197.0670 H         1 UNL    0.0000
    136 H         151.4030  163.9480  195.5130 H         1 UNL    0.0000
    137 H         151.5180  165.7230  195.5320 H         1 UNL    0.0000
    138 O         148.6070  164.8180  193.6650 O.3       1 UNL    0.0000
    139 C         149.3390  164.2100  192.6110 C.3       1 UNL    0.0000
    140 H         149.0760  163.1490  192.5790 H         1 UNL    0.0000
    141 H         150.4160  164.2900  192.7970 H         1 UNL    0.0000
    142 H         149.0900  164.6600  191.6460 H         1 UNL    0.0000
    143 O         151.4830  165.7740  190.3880 O.3       1 UNL    0.0000
    144 C         152.4070  166.5440  191.1480 C.3       1 UNL    0.0000
    145 H         151.8390  167.2500  191.7630 H         1 UNL    0.0000
    146 H         153.0920  167.1120  190.5090 H         1 UNL    0.0000
    147 H         152.9730  165.8990  191.8230 H         1 UNL    0.0000
@<TRIPOS>BOND
     1    1    2 1
     2    1    3 1
     3    1   36 1
     4    1   76 1
     5    4    5 1
     6    4   36 1
     7    4   37 1
     8    4   56 1
     9    5    6 1
    10    5   38 1
    11    5   71 1
    12    6    7 1
    13    6   39 1
    14    6   40 1
    15    7    8 2
    16    7   41 1
    17    8    9 1
    18    8   42 1
    19    9   10 ar
    20    9   13 ar
    21   10   11 ar
    22   11   12 ar
    23   11   14 1
    24   12   13 ar
    25   12   43 1
    26   14   15 ar
    27   14   18 ar
    28   15   16 ar
    29   16   17 ar
    30   16   19 1
    31   17   18 ar
    32   17   44 1
    33   19   20 ar
    34   19   23 ar
    35   20   21 ar
    36   21   22 ar
    37   21   24 1
    38   22   23 ar
    39   22   45 1
    40   24   25 1
    41   24   46 1
    42   24   66 1
    43   25   26 1
    44   25   47 1
    45   25   60 1
    46   26   27 2
    47   26   28 2
    48   28   29 2
    49   28   48 1
    50   29   30 1
    51   29   49 1
    52   30   31 1
    53   30   50 1
    54   30   51 1
    55   31   32 1
    56   31   52 1
    57   31   64 1
    58   32   33 1
    59   32   53 1
    60   32   54 1
    61   33   34 2
    62   33   35 1
    63   35   36 1
    64   36   55 1
    65   56   57 1
    66   56   58 1
    67   56   59 1
    68   60   61 1
    69   60   62 1
    70   60   63 1
    71   64   65 1
    72   66   67 1
    73   67   68 1
    74   67   69 1
    75   67   70 1
    76   71   72 1
    77   72   73 1
    78   72   74 1
    79   72   75 1
    80   76   77 1
    81   76   78 1
    82   76  143 1
    83   78   79 1
    84   78   80 1
    85   78   84 1
    86   80   81 1
    87   80   82 1
    88   80   83 1
    89   84   85 1
    90   84   86 1
    91   84   87 1
    92   87   88 1
    93   87   89 1
    94   87   90 1
    95   90   91 1
    96   90   92 1
    97   90  125 1
    98   92   93 1
    99   92   94 1
   100   92   98 1
   101   94   95 1
   102   94   96 1
   103   94   97 1
   104   98   99 1
   105   98  100 1
   106   98  118 1
   107  100  101 1
   108  100  102 1
   109  100  106 1
   110  102  103 1
   111  102  104 1
   112  102  105 1
   113  106  107 2
   114  106  108 1
   115  107  109 1
   116  107  110 1
   117  110  111 am
   118  110  114 1
   119  111  112 2
   120  111  113 1
   121  114  115 1
   122  114  116 1
   123  114  117 1
   124  118  119 1
   125  119  120 2
   126  119  121 1
   127  121  122 1
   128  121  123 1
   129  121  124 1
   130  125  126 1
   131  126  127 2
   132  126  128 1
   133  128  129 1
   134  128  130 1
   135  128  138 1
   136  130  131 1
   137  130  132 1
   138  130  133 1
   139  133  134 1
   140  134  135 1
   141  134  136 1
   142  134  137 1
   143  138  139 1
   144  139  140 1
   145  139  141 1
   146  139  142 1
   147  143  144 1
   148  144  145 1
   149  144  146 1
   150  144  147 1
@<TRIPOS>SUBSTRUCTURE
     1 UNL     1 RESIDUE           4 A     UNL     0 ROOT
########## rating : 0
########## RMSD l.b. : 2.181
########## RMSD u.b. : 4.627
########## Score : -6.2
@<TRIPOS>MOLECULE
Mycalolide_B_conf3_ligand_1_out.pdb
147 150 1 0 0
SMALL
NO_CHARGES


@<TRIPOS>ATOM
      1 C         153.1760  164.8500  187.7990 C.3       1 UNL    0.0000
      2 H         152.6550  163.9140  188.0330 H         1 UNL    0.0000
      3 H         152.5060  165.4650  187.1880 H         1 UNL    0.0000
      4 C         154.8050  163.0260  186.9280 C.3       1 UNL    0.0000
      5 C         155.2800  162.4250  188.2820 C.3       1 UNL    0.0000
      6 C         156.4290  163.1980  188.9810 C.3       1 UNL    0.0000
      7 C         157.5290  163.7180  188.0970 C.2       1 UNL    0.0000
      8 C         158.3480  162.9720  187.3400 C.2       1 UNL    0.0000
      9 C         159.3370  163.6070  186.5370 C.ar      1 UNL    0.0000
     10 N         159.2890  164.8560  186.0830 N.ar      1 UNL    0.0000
     11 C         160.5080  165.0760  185.4940 C.ar      1 UNL    0.0000
     12 C         161.2610  163.9370  185.5470 C.ar      1 UNL    0.0000
     13 O         160.5200  162.9770  186.1670 O.2       1 UNL    0.0000
     14 C         160.9500  166.4440  184.9030 C.ar      1 UNL    0.0000
     15 N         160.1290  167.4760  184.7930 N.ar      1 UNL    0.0000
     16 C         160.9270  168.4950  184.3350 C.ar      1 UNL    0.0000
     17 C         162.2000  168.0340  184.1360 C.ar      1 UNL    0.0000
     18 O         162.2290  166.7130  184.4730 O.2       1 UNL    0.0000
     19 C         160.4420  169.9500  184.0660 C.ar      1 UNL    0.0000
     20 N         159.1750  170.3200  184.1480 N.ar      1 UNL    0.0000
     21 C         159.1680  171.6420  183.7570 C.ar      1 UNL    0.0000
     22 C         160.4600  172.0450  183.5310 C.ar      1 UNL    0.0000
     23 O         161.2820  170.9680  183.6760 O.2       1 UNL    0.0000
     24 C         157.8870  172.4160  183.6340 C.3       1 UNL    0.0000
     25 C         157.2430  172.3510  182.2330 C.3       1 UNL    0.0000
     26 C         156.3150  171.1550  182.1040 C.2       1 UNL    0.0000
     27 O         155.0930  171.3180  182.0820 O.2       1 UNL    0.0000
     28 C         156.8950  169.7830  182.0400 C.2       1 UNL    0.0000
     29 C         156.1000  168.7030  182.1020 C.2       1 UNL    0.0000
     30 C         156.6210  167.2950  182.1850 C.3       1 UNL    0.0000
     31 C         156.3670  166.6590  183.5610 C.3       1 UNL    0.0000
     32 C         154.8910  166.3490  183.8010 C.3       1 UNL    0.0000
     33 C         154.6820  166.2050  185.2810 C.2       1 UNL    0.0000
     34 O         154.8910  167.1150  186.0710 O.2       1 UNL    0.0000
     35 O         154.2810  164.9510  185.6050 O.3       1 UNL    0.0000
     36 C         154.4500  164.5370  186.9870 C.3       1 UNL    0.0000
     37 H         155.6220  162.9020  186.1990 H         1 UNL    0.0000
     38 H         154.4250  162.3930  188.9690 H         1 UNL    0.0000
     39 H         155.9930  164.0570  189.5000 H         1 UNL    0.0000
     40 H         156.8870  162.5820  189.7630 H         1 UNL    0.0000
     41 H         157.6380  164.8050  188.0820 H         1 UNL    0.0000
     42 H         158.2960  161.8910  187.3380 H         1 UNL    0.0000
     43 H         162.2460  163.6470  185.2170 H         1 UNL    0.0000
     44 H         163.1310  168.4710  183.7960 H         1 UNL    0.0000
     45 H         160.9190  172.9760  183.2250 H         1 UNL    0.0000
     46 H         157.1950  171.9900  184.3730 H         1 UNL    0.0000
     47 H         156.5810  173.2250  182.1390 H         1 UNL    0.0000
     48 H         157.9720  169.6840  182.0150 H         1 UNL    0.0000
     49 H         155.0200  168.8350  182.1290 H         1 UNL    0.0000
     50 H         156.1630  166.6870  181.3960 H         1 UNL    0.0000
     51 H         157.7000  167.2740  181.9800 H         1 UNL    0.0000
     52 H         156.7670  167.3190  184.3420 H         1 UNL    0.0000
     53 H         154.2210  167.1560  183.4770 H         1 UNL    0.0000
     54 H         154.5810  165.4310  183.2850 H         1 UNL    0.0000
     55 H         155.3180  165.0640  187.3860 H         1 UNL    0.0000
     56 C         153.6450  162.1990  186.3410 C.3       1 UNL    0.0000
     57 H         153.0170  161.7840  187.1340 H         1 UNL    0.0000
     58 H         154.0160  161.3700  185.7360 H         1 UNL    0.0000
     59 H         152.9970  162.8150  185.7100 H         1 UNL    0.0000
     60 C         158.2060  172.4690  181.0520 C.3       1 UNL    0.0000
     61 H         157.7740  173.0110  180.2050 H         1 UNL    0.0000
     62 H         158.5210  171.4780  180.7080 H         1 UNL    0.0000
     63 H         159.1050  173.0200  181.3570 H         1 UNL    0.0000
     64 O         157.0920  165.4280  183.6300 O.3       1 UNL    0.0000
     65 H         156.5720  164.7650  183.1270 H         1 UNL    0.0000
     66 O         158.1260  173.7990  183.9670 O.3       1 UNL    0.0000
     67 C         156.9790  174.6100  183.7410 C.3       1 UNL    0.0000
     68 H         157.2160  175.6700  183.8750 H         1 UNL    0.0000
     69 H         156.5840  174.4400  182.7330 H         1 UNL    0.0000
     70 H         156.2120  174.3300  184.4670 H         1 UNL    0.0000
     71 O         155.7090  161.0670  188.0390 O.3       1 UNL    0.0000
     72 C         156.2630  160.4500  189.1940 C.3       1 UNL    0.0000
     73 H         156.3670  161.1610  190.0190 H         1 UNL    0.0000
     74 H         157.2570  160.0720  188.9320 H         1 UNL    0.0000
     75 H         155.6420  159.6030  189.5060 H         1 UNL    0.0000
     76 C         153.4470  165.5530  189.1390 C.3       1 UNL    0.0000
     77 H         154.5210  165.7330  189.2530 H         1 UNL    0.0000
     78 C         152.6880  166.9010  189.2870 C.3       1 UNL    0.0000
     79 H         153.4240  167.6610  189.5530 H         1 UNL    0.0000
     80 C         152.1090  167.2980  187.9080 C.3       1 UNL    0.0000
     81 H         151.0150  167.3590  187.9460 H         1 UNL    0.0000
     82 H         152.4680  168.2810  187.5900 H         1 UNL    0.0000
     83 H         152.3810  166.5630  187.1440 H         1 UNL    0.0000
     84 C         151.5190  166.9350  190.2860 C.3       1 UNL    0.0000
     85 H         150.6600  167.4210  189.7960 H         1 UNL    0.0000
     86 H         151.1820  165.9030  190.4800 H         1 UNL    0.0000
     87 C         151.6710  167.6550  191.6360 C.3       1 UNL    0.0000
     88 H         152.1780  166.9190  192.2700 H         1 UNL    0.0000
     89 H         152.3820  168.4840  191.5410 H         1 UNL    0.0000
     90 C         150.4180  168.1570  192.3940 C.3       1 UNL    0.0000
     91 H         150.7350  168.3960  193.4170 H         1 UNL    0.0000
     92 C         149.2940  167.0590  192.4220 C.3       1 UNL    0.0000
     93 H         149.3340  166.5260  191.4650 H         1 UNL    0.0000
     94 C         147.8820  167.6750  192.4390 C.3       1 UNL    0.0000
     95 H         147.3050  167.3750  191.5640 H         1 UNL    0.0000
     96 H         147.9210  168.7660  192.4850 H         1 UNL    0.0000
     97 H         147.3140  167.3220  193.3100 H         1 UNL    0.0000
     98 C         149.3680  166.0270  193.5950 C.3       1 UNL    0.0000
     99 H         148.3580  165.9050  194.0120 H         1 UNL    0.0000
    100 C         149.8050  164.5840  193.2020 C.3       1 UNL    0.0000
    101 H         149.3380  163.8580  193.8710 H         1 UNL    0.0000
    102 C         151.3280  164.4040  193.2810 C.3       1 UNL    0.0000
    103 H         151.8580  165.2010  192.7410 H         1 UNL    0.0000
    104 H         151.6800  164.4190  194.3230 H         1 UNL    0.0000
    105 H         151.6410  163.4550  192.8350 H         1 UNL    0.0000
    106 C         149.3700  164.2500  191.7840 C.2       1 UNL    0.0000
    107 C         148.7460  163.1100  191.4530 C.2       1 UNL    0.0000
    108 H         149.6120  164.9940  191.0280 H         1 UNL    0.0000
    109 H         148.5570  162.3810  192.2390 H         1 UNL    0.0000
    110 N         148.3210  162.7170  190.1940 N.am      1 UNL    0.0000
    111 C         147.2160  163.2340  189.5160 C.2       1 UNL    0.0000
    112 O         146.4310  164.1060  189.8740 O.2       1 UNL    0.0000
    113 H         147.0730  162.7530  188.5340 H         1 UNL    0.0000
    114 C         149.1010  161.6730  189.5340 C.3       1 UNL    0.0000
    115 H         149.3210  161.9880  188.5070 H         1 UNL    0.0000
    116 H         148.5590  160.7220  189.4940 H         1 UNL    0.0000
    117 H         150.0370  161.5210  190.0800 H         1 UNL    0.0000
    118 O         150.2620  166.5140  194.6230 O.3       1 UNL    0.0000
    119 C         149.8850  166.2780  195.9130 C.2       1 UNL    0.0000
    120 O         150.6380  166.0730  196.8540 O.2       1 UNL    0.0000
    121 C         148.3910  166.2670  196.0270 C.3       1 UNL    0.0000
    122 H         147.9820  167.1370  195.5080 H         1 UNL    0.0000
    123 H         148.0980  166.2690  197.0800 H         1 UNL    0.0000
    124 H         148.0000  165.3530  195.5730 H         1 UNL    0.0000
    125 O         149.9300  169.3650  191.7560 O.3       1 UNL    0.0000
    126 C         150.5640  170.5350  192.1030 C.2       1 UNL    0.0000
    127 O         151.7560  170.6130  192.3740 O.2       1 UNL    0.0000
    128 C         149.6010  171.7310  192.1940 C.3       1 UNL    0.0000
    129 H         149.8780  172.4160  191.3770 H         1 UNL    0.0000
    130 C         148.1700  171.2470  191.9530 C.3       1 UNL    0.0000
    131 H         148.1110  170.1650  192.0940 H         1 UNL    0.0000
    132 H         147.5030  171.6950  192.7000 H         1 UNL    0.0000
    133 O         147.7160  171.5990  190.6490 O.3       1 UNL    0.0000
    134 C         147.0810  170.5060  190.0020 C.3       1 UNL    0.0000
    135 H         147.6780  170.1800  189.1440 H         1 UNL    0.0000
    136 H         147.0090  169.6780  190.7120 H         1 UNL    0.0000
    137 H         146.0720  170.7750  189.6710 H         1 UNL    0.0000
    138 O         149.6150  172.4440  193.4340 O.3       1 UNL    0.0000
    139 C         148.4580  173.2490  193.6060 C.3       1 UNL    0.0000
    140 H         148.7570  174.2990  193.5290 H         1 UNL    0.0000
    141 H         148.0240  173.0880  194.5980 H         1 UNL    0.0000
    142 H         147.7140  173.0420  192.8320 H         1 UNL    0.0000
    143 O         152.9440  164.6960  190.1810 O.3       1 UNL    0.0000
    144 C         152.2770  163.5350  189.7010 C.3       1 UNL    0.0000
    145 H         152.4490  163.4640  188.6210 H         1 UNL    0.0000
    146 H         151.1970  163.5780  189.8780 H         1 UNL    0.0000
    147 H         152.6970  162.6390  190.1610 H         1 UNL    0.0000
@<TRIPOS>BOND
     1    1    2 1
     2    1    3 1
     3    1   36 1
     4    1   76 1
     5    4    5 1
     6    4   36 1
     7    4   37 1
     8    4   56 1
     9    5    6 1
    10    5   38 1
    11    5   71 1
    12    6    7 1
    13    6   39 1
    14    6   40 1
    15    7    8 2
    16    7   41 1
    17    8    9 1
    18    8   42 1
    19    9   10 ar
    20    9   13 ar
    21   10   11 ar
    22   11   12 ar
    23   11   14 1
    24   12   13 ar
    25   12   43 1
    26   14   15 ar
    27   14   18 ar
    28   15   16 ar
    29   16   17 ar
    30   16   19 1
    31   17   18 ar
    32   17   44 1
    33   19   20 ar
    34   19   23 ar
    35   20   21 ar
    36   21   22 ar
    37   21   24 1
    38   22   23 ar
    39   22   45 1
    40   24   25 1
    41   24   46 1
    42   24   66 1
    43   25   26 1
    44   25   47 1
    45   25   60 1
    46   26   27 2
    47   26   28 2
    48   28   29 2
    49   28   48 1
    50   29   30 1
    51   29   49 1
    52   30   31 1
    53   30   50 1
    54   30   51 1
    55   31   32 1
    56   31   52 1
    57   31   64 1
    58   32   33 1
    59   32   53 1
    60   32   54 1
    61   33   34 2
    62   33   35 1
    63   35   36 1
    64   36   55 1
    65   56   57 1
    66   56   58 1
    67   56   59 1
    68   60   61 1
    69   60   62 1
    70   60   63 1
    71   64   65 1
    72   66   67 1
    73   67   68 1
    74   67   69 1
    75   67   70 1
    76   71   72 1
    77   72   73 1
    78   72   74 1
    79   72   75 1
    80   76   77 1
    81   76   78 1
    82   76  143 1
    83   78   79 1
    84   78   80 1
    85   78   84 1
    86   80   81 1
    87   80   82 1
    88   80   83 1
    89   84   85 1
    90   84   86 1
    91   84   87 1
    92   87   88 1
    93   87   89 1
    94   87   90 1
    95   90   91 1
    96   90   92 1
    97   90  125 1
    98   92   93 1
    99   92   94 1
   100   92   98 1
   101   94   95 1
   102   94   96 1
   103   94   97 1
   104   98   99 1
   105   98  100 1
   106   98  118 1
   107  100  101 1
   108  100  102 1
   109  100  106 1
   110  102  103 1
   111  102  104 1
   112  102  105 1
   113  106  107 2
   114  106  108 1
   115  107  109 1
   116  107  110 1
   117  110  111 am
   118  110  114 1
   119  111  112 2
   120  111  113 1
   121  114  115 1
   122  114  116 1
   123  114  117 1
   124  118  119 1
   125  119  120 2
   126  119  121 1
   127  121  122 1
   128  121  123 1
   129  121  124 1
   130  125  126 1
   131  126  127 2
   132  126  128 1
   133  128  129 1
   134  128  130 1
   135  128  138 1
   136  130  131 1
   137  130  132 1
   138  130  133 1
   139  133  134 1
   140  134  135 1
   141  134  136 1
   142  134  137 1
   143  138  139 1
   144  139  140 1
   145  139  141 1
   146  139  142 1
   147  143  144 1
   148  144  145 1
   149  144  146 1
   150  144  147 1
@<TRIPOS>SUBSTRUCTURE
     1 UNL     1 RESIDUE           4 A     UNL     0 ROOT
########## rating : 0
########## RMSD l.b. : 1.536
########## RMSD u.b. : 3.670
########## Score : -6.1
@<TRIPOS>MOLECULE
Mycalolide_B_conf3_ligand_1_out.pdb
147 150 1 0 0
SMALL
NO_CHARGES


@<TRIPOS>ATOM
      1 C         151.2760  164.5210  187.9180 C.3       1 UNL    0.0000
      2 H         150.6250  163.6530  188.0700 H         1 UNL    0.0000
      3 H         150.7890  165.1870  187.1980 H         1 UNL    0.0000
      4 C         152.8550  162.5180  187.4320 C.3       1 UNL    0.0000
      5 C         153.0720  161.9920  188.8800 C.3       1 UNL    0.0000
      6 C         154.1660  162.7310  189.6940 C.3       1 UNL    0.0000
      7 C         155.4250  163.0970  188.9570 C.2       1 UNL    0.0000
      8 C         156.2810  162.2350  188.3860 C.2       1 UNL    0.0000
      9 C         157.4290  162.7300  187.7050 C.ar      1 UNL    0.0000
     10 N         157.5550  163.9390  187.1670 N.ar      1 UNL    0.0000
     11 C         158.8610  164.0220  186.7590 C.ar      1 UNL    0.0000
     12 C         159.4980  162.8380  187.0030 C.ar      1 UNL    0.0000
     13 O         158.5950  161.9870  187.5640 O.2       1 UNL    0.0000
     14 C         159.5010  165.3020  186.1530 C.ar      1 UNL    0.0000
     15 N         158.7960  166.3810  185.8500 N.ar      1 UNL    0.0000
     16 C         159.7360  167.2980  185.4530 C.ar      1 UNL    0.0000
     17 C         160.9810  166.7310  185.4840 C.ar      1 UNL    0.0000
     18 O         160.8470  165.4410  185.9080 O.2       1 UNL    0.0000
     19 C         159.4230  168.7600  185.0160 C.ar      1 UNL    0.0000
     20 N         158.1940  169.2280  184.8770 N.ar      1 UNL    0.0000
     21 C         158.3570  170.5120  184.4030 C.ar      1 UNL    0.0000
     22 C         159.6970  170.7990  184.3520 C.ar      1 UNL    0.0000
     23 O         160.3940  169.6790  184.6940 O.2       1 UNL    0.0000
     24 C         157.1790  171.3670  184.0330 C.3       1 UNL    0.0000
     25 C         156.7460  171.2390  182.5580 C.3       1 UNL    0.0000
     26 C         155.7490  170.1090  182.3670 C.2       1 UNL    0.0000
     27 O         154.5620  170.3600  182.1460 O.2       1 UNL    0.0000
     28 C         156.2130  168.6970  182.4840 C.2       1 UNL    0.0000
     29 C         155.3290  167.6870  182.4950 C.2       1 UNL    0.0000
     30 C         155.7100  166.2550  182.7510 C.3       1 UNL    0.0000
     31 C         155.2020  165.7500  184.1100 C.3       1 UNL    0.0000
     32 C         153.6850  165.5700  184.1410 C.3       1 UNL    0.0000
     33 C         153.2490  165.5590  185.5770 C.2       1 UNL    0.0000
     34 O         153.4150  166.5100  186.3280 O.2       1 UNL    0.0000
     35 O         152.6990  164.3670  185.9180 O.3       1 UNL    0.0000
     36 C         152.6250  164.0520  187.3340 C.3       1 UNL    0.0000
     37 H         153.7570  162.2770  186.8470 H         1 UNL    0.0000
     38 H         152.1250  162.0790  189.4270 H         1 UNL    0.0000
     39 H         153.7330  163.6580  190.0810 H         1 UNL    0.0000
     40 H         154.4490  162.1460  190.5770 H         1 UNL    0.0000
     41 H         155.6270  164.1690  188.8870 H         1 UNL    0.0000
     42 H         156.1380  161.1640  188.4480 H         1 UNL    0.0000
     43 H         160.4930  162.4500  186.8480 H         1 UNL    0.0000
     44 H         161.9860  167.0690  185.2620 H         1 UNL    0.0000
     45 H         160.2740  171.6660  184.0600 H         1 UNL    0.0000
     46 H         156.3510  171.0520  184.6840 H         1 UNL    0.0000
     47 H         156.1830  172.1500  182.3050 H         1 UNL    0.0000
     48 H         157.2700  168.5160  182.6320 H         1 UNL    0.0000
     49 H         154.2720  167.9000  182.3470 H         1 UNL    0.0000
     50 H         155.3230  165.6220  181.9430 H         1 UNL    0.0000
     51 H         156.8020  166.1390  182.7160 H         1 UNL    0.0000
     52 H         155.5370  166.4380  184.8980 H         1 UNL    0.0000
     53 H         153.1420  166.3960  183.6650 H         1 UNL    0.0000
     54 H         153.3790  164.6400  183.6450 H         1 UNL    0.0000
     55 H         153.4660  164.5420  187.8260 H         1 UNL    0.0000
     56 C         151.7290  161.7370  186.7290 C.3       1 UNL    0.0000
     57 H         150.8600  162.3760  186.5490 H         1 UNL    0.0000
     58 H         151.4030  160.8860  187.3300 H         1 UNL    0.0000
     59 H         152.0550  161.3580  185.7560 H         1 UNL    0.0000
     60 C         157.8800  171.1920  181.5340 C.3       1 UNL    0.0000
     61 H         157.5970  171.6230  180.5670 H         1 UNL    0.0000
     62 H         158.2140  170.1610  181.3720 H         1 UNL    0.0000
     63 H         158.7380  171.7700  181.9000 H         1 UNL    0.0000
     64 O         155.8010  164.4770  184.3720 O.3       1 UNL    0.0000
     65 H         156.5920  164.6460  184.9270 H         1 UNL    0.0000
     66 O         157.4830  172.7490  184.3070 O.3       1 UNL    0.0000
     67 C         156.3830  173.6060  184.0190 C.3       1 UNL    0.0000
     68 H         156.2300  173.6990  182.9400 H         1 UNL    0.0000
     69 H         155.4710  173.2310  184.4960 H         1 UNL    0.0000
     70 H         156.6050  174.5970  184.4250 H         1 UNL    0.0000
     71 O         153.4150  160.5920  188.7960 O.3       1 UNL    0.0000
     72 C         152.7440  159.8020  189.7700 C.3       1 UNL    0.0000
     73 H         153.2350  158.8350  189.9120 H         1 UNL    0.0000
     74 H         151.7220  159.6260  189.4180 H         1 UNL    0.0000
     75 H         152.6930  160.3390  190.7230 H         1 UNL    0.0000
     76 C         151.3980  165.2280  189.2780 C.3       1 UNL    0.0000
     77 H         150.7750  166.1290  189.2860 H         1 UNL    0.0000
     78 C         150.9980  164.3240  190.4770 C.3       1 UNL    0.0000
     79 H         151.6510  163.4500  190.4560 H         1 UNL    0.0000
     80 C         151.3020  165.0810  191.7920 C.3       1 UNL    0.0000
     81 H         152.3510  165.3980  191.8270 H         1 UNL    0.0000
     82 H         150.6960  165.9870  191.8820 H         1 UNL    0.0000
     83 H         151.1100  164.4460  192.6620 H         1 UNL    0.0000
     84 C         149.5280  163.8760  190.5520 C.3       1 UNL    0.0000
     85 H         149.1380  163.7980  189.5250 H         1 UNL    0.0000
     86 H         149.4860  162.8470  190.9460 H         1 UNL    0.0000
     87 C         148.4960  164.7280  191.3100 C.3       1 UNL    0.0000
     88 H         147.9380  163.9950  191.9030 H         1 UNL    0.0000
     89 H         149.0010  165.3630  192.0460 H         1 UNL    0.0000
     90 C         147.4730  165.5860  190.5270 C.3       1 UNL    0.0000
     91 H         147.4590  165.2090  189.4970 H         1 UNL    0.0000
     92 C         147.8780  167.1050  190.5380 C.3       1 UNL    0.0000
     93 H         146.9510  167.6890  190.5800 H         1 UNL    0.0000
     94 C         148.5280  167.5420  189.2120 C.3       1 UNL    0.0000
     95 H         148.8200  168.5930  189.2390 H         1 UNL    0.0000
     96 H         147.8590  167.3780  188.3640 H         1 UNL    0.0000
     97 H         149.4510  166.9770  189.0260 H         1 UNL    0.0000
     98 C         148.8280  167.5550  191.6960 C.3       1 UNL    0.0000
     99 H         149.5830  166.7690  191.8480 H         1 UNL    0.0000
    100 C         149.6570  168.8470  191.4300 C.3       1 UNL    0.0000
    101 H         149.8460  168.9530  190.3590 H         1 UNL    0.0000
    102 C         151.0070  168.8240  192.1600 C.3       1 UNL    0.0000
    103 H         150.9610  168.2180  193.0760 H         1 UNL    0.0000
    104 H         151.8000  168.4030  191.5240 H         1 UNL    0.0000
    105 H         151.3160  169.8300  192.4590 H         1 UNL    0.0000
    106 C         148.9010  170.0840  191.8890 C.2       1 UNL    0.0000
    107 C         149.2130  171.3270  191.4960 C.2       1 UNL    0.0000
    108 H         148.0820  169.9070  192.5840 H         1 UNL    0.0000
    109 H         150.0620  171.4570  190.8270 H         1 UNL    0.0000
    110 N         148.5900  172.5090  191.8660 N.am      1 UNL    0.0000
    111 C         148.8470  173.2260  193.0360 C.2       1 UNL    0.0000
    112 O         149.6420  172.9750  193.9350 O.2       1 UNL    0.0000
    113 H         148.2160  174.1270  193.1130 H         1 UNL    0.0000
    114 C         147.5810  173.0340  190.9490 C.3       1 UNL    0.0000
    115 H         146.9840  173.7900  191.4720 H         1 UNL    0.0000
    116 H         146.9070  172.2500  190.5910 H         1 UNL    0.0000
    117 H         148.0790  173.4900  190.0880 H         1 UNL    0.0000
    118 O         148.0670  167.7400  192.9130 O.3       1 UNL    0.0000
    119 C         148.3490  166.8830  193.9370 C.2       1 UNL    0.0000
    120 O         149.4580  166.6530  194.3970 O.2       1 UNL    0.0000
    121 C         147.0970  166.2130  194.4170 C.3       1 UNL    0.0000
    122 H         146.9350  166.4600  195.4680 H         1 UNL    0.0000
    123 H         147.1770  165.1310  194.2790 H         1 UNL    0.0000
    124 H         146.2480  166.5630  193.8240 H         1 UNL    0.0000
    125 O         146.1580  165.4080  191.1130 O.3       1 UNL    0.0000
    126 C         145.0860  165.7190  190.3100 C.2       1 UNL    0.0000
    127 O         144.9360  165.2900  189.1730 O.2       1 UNL    0.0000
    128 C         144.1270  166.7320  190.9600 C.3       1 UNL    0.0000
    129 H         144.1070  167.6110  190.2960 H         1 UNL    0.0000
    130 C         142.7200  166.1340  191.0120 C.3       1 UNL    0.0000
    131 H         142.7720  165.0450  190.9450 H         1 UNL    0.0000
    132 H         142.2610  166.3660  191.9800 H         1 UNL    0.0000
    133 O         141.8970  166.6530  189.9690 O.3       1 UNL    0.0000
    134 C         142.2300  167.9990  189.6600 C.3       1 UNL    0.0000
    135 H         143.2720  168.0610  189.3310 H         1 UNL    0.0000
    136 H         141.5850  168.3360  188.8440 H         1 UNL    0.0000
    137 H         142.0740  168.6510  190.5250 H         1 UNL    0.0000
    138 O         144.4710  167.1470  192.2840 O.3       1 UNL    0.0000
    139 C         143.5580  166.6590  193.2570 C.3       1 UNL    0.0000
    140 H         143.8470  165.6360  193.5140 H         1 UNL    0.0000
    141 H         142.5420  166.6360  192.8500 H         1 UNL    0.0000
    142 H         143.5860  167.2670  194.1650 H         1 UNL    0.0000
    143 O         152.7890  165.5490  189.4680 O.3       1 UNL    0.0000
    144 C         153.0480  166.9420  189.5920 C.3       1 UNL    0.0000
    145 H         154.1180  167.1070  189.4270 H         1 UNL    0.0000
    146 H         152.7880  167.3220  190.5860 H         1 UNL    0.0000
    147 H         152.5060  167.4980  188.8250 H         1 UNL    0.0000
@<TRIPOS>BOND
     1    1    2 1
     2    1    3 1
     3    1   36 1
     4    1   76 1
     5    4    5 1
     6    4   36 1
     7    4   37 1
     8    4   56 1
     9    5    6 1
    10    5   38 1
    11    5   71 1
    12    6    7 1
    13    6   39 1
    14    6   40 1
    15    7    8 2
    16    7   41 1
    17    8    9 1
    18    8   42 1
    19    9   10 ar
    20    9   13 ar
    21   10   11 ar
    22   11   12 ar
    23   11   14 1
    24   12   13 ar
    25   12   43 1
    26   14   15 ar
    27   14   18 ar
    28   15   16 ar
    29   16   17 ar
    30   16   19 1
    31   17   18 ar
    32   17   44 1
    33   19   20 ar
    34   19   23 ar
    35   20   21 ar
    36   21   22 ar
    37   21   24 1
    38   22   23 ar
    39   22   45 1
    40   24   25 1
    41   24   46 1
    42   24   66 1
    43   25   26 1
    44   25   47 1
    45   25   60 1
    46   26   27 2
    47   26   28 2
    48   28   29 2
    49   28   48 1
    50   29   30 1
    51   29   49 1
    52   30   31 1
    53   30   50 1
    54   30   51 1
    55   31   32 1
    56   31   52 1
    57   31   64 1
    58   32   33 1
    59   32   53 1
    60   32   54 1
    61   33   34 2
    62   33   35 1
    63   35   36 1
    64   36   55 1
    65   56   57 1
    66   56   58 1
    67   56   59 1
    68   60   61 1
    69   60   62 1
    70   60   63 1
    71   64   65 1
    72   66   67 1
    73   67   68 1
    74   67   69 1
    75   67   70 1
    76   71   72 1
    77   72   73 1
    78   72   74 1
    79   72   75 1
    80   76   77 1
    81   76   78 1
    82   76  143 1
    83   78   79 1
    84   78   80 1
    85   78   84 1
    86   80   81 1
    87   80   82 1
    88   80   83 1
    89   84   85 1
    90   84   86 1
    91   84   87 1
    92   87   88 1
    93   87   89 1
    94   87   90 1
    95   90   91 1
    96   90   92 1
    97   90  125 1
    98   92   93 1
    99   92   94 1
   100   92   98 1
   101   94   95 1
   102   94   96 1
   103   94   97 1
   104   98   99 1
   105   98  100 1
   106   98  118 1
   107  100  101 1
   108  100  102 1
   109  100  106 1
   110  102  103 1
   111  102  104 1
   112  102  105 1
   113  106  107 2
   114  106  108 1
   115  107  109 1
   116  107  110 1
   117  110  111 am
   118  110  114 1
   119  111  112 2
   120  111  113 1
   121  114  115 1
   122  114  116 1
   123  114  117 1
   124  118  119 1
   125  119  120 2
   126  119  121 1
   127  121  122 1
   128  121  123 1
   129  121  124 1
   130  125  126 1
   131  126  127 2
   132  126  128 1
   133  128  129 1
   134  128  130 1
   135  128  138 1
   136  130  131 1
   137  130  132 1
   138  130  133 1
   139  133  134 1
   140  134  135 1
   141  134  136 1
   142  134  137 1
   143  138  139 1
   144  139  140 1
   145  139  141 1
   146  139  142 1
   147  143  144 1
   148  144  145 1
   149  144  146 1
   150  144  147 1
@<TRIPOS>SUBSTRUCTURE
     1 UNL     1 RESIDUE           4 A     UNL     0 ROOT
########## rating : 0
########## RMSD l.b. : 1.651
########## RMSD u.b. : 2.376
########## Score : -6.1
@<TRIPOS>MOLECULE
Mycalolide_B_conf3_ligand_1_out.pdb
147 150 1 0 0
SMALL
NO_CHARGES


@<TRIPOS>ATOM
      1 C         152.9150  164.8930  188.1230 C.3       1 UNL    0.0000
      2 H         152.2660  164.0140  188.1920 H         1 UNL    0.0000
      3 H         152.3630  165.6800  187.5970 H         1 UNL    0.0000
      4 C         154.4980  163.0170  187.2800 C.3       1 UNL    0.0000
      5 C         154.9690  162.4330  188.6430 C.3       1 UNL    0.0000
      6 C         156.1390  163.1950  189.3180 C.3       1 UNL    0.0000
      7 C         157.2440  163.6720  188.4160 C.2       1 UNL    0.0000
      8 C         158.0420  162.8930  187.6700 C.2       1 UNL    0.0000
      9 C         159.0390  163.4900  186.8470 C.ar      1 UNL    0.0000
     10 N         159.0150  164.7300  186.3690 N.ar      1 UNL    0.0000
     11 C         160.2340  164.9110  185.7670 C.ar      1 UNL    0.0000
     12 C         160.9620  163.7570  185.8390 C.ar      1 UNL    0.0000
     13 O         160.2050  162.8270  186.4830 O.2       1 UNL    0.0000
     14 C         160.7020  166.2560  185.1450 C.ar      1 UNL    0.0000
     15 N         159.9030  167.3040  185.0190 N.ar      1 UNL    0.0000
     16 C         160.7200  168.2950  184.5350 C.ar      1 UNL    0.0000
     17 C         161.9810  167.8030  184.3370 C.ar      1 UNL    0.0000
     18 O         161.9830  166.4890  184.7010 O.2       1 UNL    0.0000
     19 C         160.2660  169.7550  184.2390 C.ar      1 UNL    0.0000
     20 N         159.0080  170.1550  184.3210 N.ar      1 UNL    0.0000
     21 C         159.0260  171.4680  183.9030 C.ar      1 UNL    0.0000
     22 C         160.3250  171.8380  183.6610 C.ar      1 UNL    0.0000
     23 O         161.1250  170.7460  183.8230 O.2       1 UNL    0.0000
     24 C         157.7620  172.2680  183.7720 C.3       1 UNL    0.0000
     25 C         157.1070  172.1870  182.3770 C.3       1 UNL    0.0000
     26 C         156.1520  171.0100  182.2790 C.2       1 UNL    0.0000
     27 O         154.9340  171.2000  182.2610 O.2       1 UNL    0.0000
     28 C         156.7020  169.6250  182.2390 C.2       1 UNL    0.0000
     29 C         155.8840  168.5640  182.3280 C.2       1 UNL    0.0000
     30 C         156.3740  167.1470  182.4370 C.3       1 UNL    0.0000
     31 C         156.1160  166.5450  183.8280 C.3       1 UNL    0.0000
     32 C         154.6350  166.2730  184.0840 C.3       1 UNL    0.0000
     33 C         154.4330  166.1640  185.5670 C.2       1 UNL    0.0000
     34 O         154.6670  167.0850  186.3370 O.2       1 UNL    0.0000
     35 O         154.0080  164.9250  185.9200 O.3       1 UNL    0.0000
     36 C         154.1760  164.5360  187.3090 C.3       1 UNL    0.0000
     37 H         155.3070  162.8600  186.5480 H         1 UNL    0.0000
     38 H         154.1180  162.4350  189.3350 H         1 UNL    0.0000
     39 H         155.7260  164.0740  189.8220 H         1 UNL    0.0000
     40 H         156.5890  162.5860  190.1100 H         1 UNL    0.0000
     41 H         157.3760  164.7570  188.3780 H         1 UNL    0.0000
     42 H         157.9660  161.8140  187.6900 H         1 UNL    0.0000
     43 H         161.9390  163.4390  185.5080 H         1 UNL    0.0000
     44 H         162.9190  168.2120  183.9820 H         1 UNL    0.0000
     45 H         160.8020  172.7520  183.3330 H         1 UNL    0.0000
     46 H         157.0660  171.8720  184.5250 H         1 UNL    0.0000
     47 H         156.4640  173.0740  182.2690 H         1 UNL    0.0000
     48 H         157.7760  169.5010  182.2090 H         1 UNL    0.0000
     49 H         154.8070  168.7200  182.3600 H         1 UNL    0.0000
     50 H         155.8970  166.5320  181.6640 H         1 UNL    0.0000
     51 H         157.4510  167.0980  182.2260 H         1 UNL    0.0000
     52 H         156.5350  167.2110  184.5920 H         1 UNL    0.0000
     53 H         153.9810  167.0870  183.7480 H         1 UNL    0.0000
     54 H         154.3020  165.3510  183.5880 H         1 UNL    0.0000
     55 H         155.0580  165.0520  187.6920 H         1 UNL    0.0000
     56 C         153.3160  162.2040  186.7170 C.3       1 UNL    0.0000
     57 H         153.5540  161.7950  185.7310 H         1 UNL    0.0000
     58 H         152.4220  162.8210  186.6200 H         1 UNL    0.0000
     59 H         153.0730  161.3560  187.3640 H         1 UNL    0.0000
     60 C         158.0640  172.2600  181.1880 C.3       1 UNL    0.0000
     61 H         157.7520  172.9930  180.4360 H         1 UNL    0.0000
     62 H         158.1560  171.2820  180.7040 H         1 UNL    0.0000
     63 H         159.0630  172.5610  181.5300 H         1 UNL    0.0000
     64 O         156.8140  165.2990  183.9180 O.3       1 UNL    0.0000
     65 H         156.1900  164.6530  184.3110 H         1 UNL    0.0000
     66 O         158.0340  173.6510  184.0750 O.3       1 UNL    0.0000
     67 C         156.9020  174.4820  183.8420 C.3       1 UNL    0.0000
     68 H         156.4220  174.7640  184.7840 H         1 UNL    0.0000
     69 H         157.1950  175.3810  183.2880 H         1 UNL    0.0000
     70 H         156.1830  173.9220  183.2390 H         1 UNL    0.0000
     71 O         155.3660  161.0620  188.4250 O.3       1 UNL    0.0000
     72 C         154.5610  160.1350  189.1430 C.3       1 UNL    0.0000
     73 H         155.1440  159.5910  189.8910 H         1 UNL    0.0000
     74 H         154.1540  159.4150  188.4260 H         1 UNL    0.0000
     75 H         153.7250  160.6540  189.6240 H         1 UNL    0.0000
     76 C         153.2090  165.3430  189.5640 C.3       1 UNL    0.0000
     77 H         154.2860  165.3000  189.7540 H         1 UNL    0.0000
     78 C         152.6950  166.7760  189.8750 C.3       1 UNL    0.0000
     79 H         153.5690  167.4100  190.0250 H         1 UNL    0.0000
     80 C         151.9560  167.3190  188.6270 C.3       1 UNL    0.0000
     81 H         150.8750  167.3660  188.8030 H         1 UNL    0.0000
     82 H         152.2790  168.3340  188.3800 H         1 UNL    0.0000
     83 H         152.1300  166.6760  187.7590 H         1 UNL    0.0000
     84 C         151.7300  166.9270  191.0620 C.3       1 UNL    0.0000
     85 H         150.7830  166.4260  190.8050 H         1 UNL    0.0000
     86 H         152.1240  166.3570  191.9200 H         1 UNL    0.0000
     87 C         151.3210  168.3250  191.5580 C.3       1 UNL    0.0000
     88 H         151.6460  168.3360  192.6050 H         1 UNL    0.0000
     89 H         151.9290  169.0910  191.0640 H         1 UNL    0.0000
     90 C         149.8360  168.7600  191.5140 C.3       1 UNL    0.0000
     91 H         149.3770  168.2490  190.6590 H         1 UNL    0.0000
     92 C         149.7050  170.3170  191.3440 C.3       1 UNL    0.0000
     93 H         150.1250  170.5750  190.3640 H         1 UNL    0.0000
     94 C         150.5970  171.0860  192.3380 C.3       1 UNL    0.0000
     95 H         151.5230  170.5480  192.5420 H         1 UNL    0.0000
     96 H         150.0770  171.2730  193.2820 H         1 UNL    0.0000
     97 H         150.8960  172.0570  191.9220 H         1 UNL    0.0000
     98 C         148.2600  170.9030  191.4620 C.3       1 UNL    0.0000
     99 H         147.7280  170.3550  192.2540 H         1 UNL    0.0000
    100 C         148.1670  172.3980  191.8920 C.3       1 UNL    0.0000
    101 H         149.0610  172.9350  191.5680 H         1 UNL    0.0000
    102 C         148.0370  172.5510  193.4150 C.3       1 UNL    0.0000
    103 H         148.5060  173.4790  193.7690 H         1 UNL    0.0000
    104 H         146.9810  172.5730  193.7260 H         1 UNL    0.0000
    105 H         148.5240  171.7250  193.9410 H         1 UNL    0.0000
    106 C         146.9660  173.0750  191.2520 C.2       1 UNL    0.0000
    107 C         145.7190  172.9800  191.7380 C.2       1 UNL    0.0000
    108 H         147.1700  173.6420  190.3460 H         1 UNL    0.0000
    109 H         145.5600  172.3730  192.6280 H         1 UNL    0.0000
    110 N         144.5680  173.5520  191.2210 N.am      1 UNL    0.0000
    111 C         143.7000  174.3940  191.9200 C.2       1 UNL    0.0000
    112 O         143.7760  174.7880  193.0780 O.2       1 UNL    0.0000
    113 H         142.8470  174.7120  191.2990 H         1 UNL    0.0000
    114 C         144.2450  173.2380  189.8320 C.3       1 UNL    0.0000
    115 H         144.9970  172.5430  189.4410 H         1 UNL    0.0000
    116 H         144.2410  174.1320  189.2010 H         1 UNL    0.0000
    117 H         143.2550  172.7730  189.7870 H         1 UNL    0.0000
    118 O         147.5600  170.7420  190.2060 O.3       1 UNL    0.0000
    119 C         146.6770  169.7050  190.1350 C.2       1 UNL    0.0000
    120 O         145.7450  169.5020  190.9010 O.2       1 UNL    0.0000
    121 C         147.0230  168.8010  188.9910 C.3       1 UNL    0.0000
    122 H         147.5880  169.3620  188.2450 H         1 UNL    0.0000
    123 H         146.1100  168.3840  188.5560 H         1 UNL    0.0000
    124 H         147.6280  167.9680  189.3570 H         1 UNL    0.0000
    125 O         149.1790  168.3260  192.7330 O.3       1 UNL    0.0000
    126 C         148.5030  167.1310  192.6670 C.2       1 UNL    0.0000
    127 O         147.6330  166.8810  191.8420 O.2       1 UNL    0.0000
    128 C         148.8980  166.1600  193.7930 C.3       1 UNL    0.0000
    129 H         149.9180  166.4400  194.1020 H         1 UNL    0.0000
    130 C         147.9600  166.3610  194.9860 C.3       1 UNL    0.0000
    131 H         147.8130  167.4270  195.1710 H         1 UNL    0.0000
    132 H         146.9730  165.9470  194.7470 H         1 UNL    0.0000
    133 O         148.4640  165.7220  196.1560 O.3       1 UNL    0.0000
    134 C         149.7840  166.1500  196.4590 C.3       1 UNL    0.0000
    135 H         150.0170  167.0670  195.9080 H         1 UNL    0.0000
    136 H         149.8420  166.3620  197.5300 H         1 UNL    0.0000
    137 H         150.5160  165.3730  196.2130 H         1 UNL    0.0000
    138 O         148.8720  164.7710  193.4510 O.3       1 UNL    0.0000
    139 C         150.1530  164.2840  193.0800 C.3       1 UNL    0.0000
    140 H         150.4010  163.4420  193.7330 H         1 UNL    0.0000
    141 H         150.9130  165.0600  193.2170 H         1 UNL    0.0000
    142 H         150.1560  163.9340  192.0440 H         1 UNL    0.0000
    143 O         152.4840  164.4610  190.4420 O.3       1 UNL    0.0000
    144 C         151.6220  163.5540  189.7660 C.3       1 UNL    0.0000
    145 H         151.4400  163.9430  188.7570 H         1 UNL    0.0000
    146 H         150.6580  163.4460  190.2750 H         1 UNL    0.0000
    147 H         152.1020  162.5800  189.6620 H         1 UNL    0.0000
@<TRIPOS>BOND
     1    1    2 1
     2    1    3 1
     3    1   36 1
     4    1   76 1
     5    4    5 1
     6    4   36 1
     7    4   37 1
     8    4   56 1
     9    5    6 1
    10    5   38 1
    11    5   71 1
    12    6    7 1
    13    6   39 1
    14    6   40 1
    15    7    8 2
    16    7   41 1
    17    8    9 1
    18    8   42 1
    19    9   10 ar
    20    9   13 ar
    21   10   11 ar
    22   11   12 ar
    23   11   14 1
    24   12   13 ar
    25   12   43 1
    26   14   15 ar
    27   14   18 ar
    28   15   16 ar
    29   16   17 ar
    30   16   19 1
    31   17   18 ar
    32   17   44 1
    33   19   20 ar
    34   19   23 ar
    35   20   21 ar
    36   21   22 ar
    37   21   24 1
    38   22   23 ar
    39   22   45 1
    40   24   25 1
    41   24   46 1
    42   24   66 1
    43   25   26 1
    44   25   47 1
    45   25   60 1
    46   26   27 2
    47   26   28 2
    48   28   29 2
    49   28   48 1
    50   29   30 1
    51   29   49 1
    52   30   31 1
    53   30   50 1
    54   30   51 1
    55   31   32 1
    56   31   52 1
    57   31   64 1
    58   32   33 1
    59   32   53 1
    60   32   54 1
    61   33   34 2
    62   33   35 1
    63   35   36 1
    64   36   55 1
    65   56   57 1
    66   56   58 1
    67   56   59 1
    68   60   61 1
    69   60   62 1
    70   60   63 1
    71   64   65 1
    72   66   67 1
    73   67   68 1
    74   67   69 1
    75   67   70 1
    76   71   72 1
    77   72   73 1
    78   72   74 1
    79   72   75 1
    80   76   77 1
    81   76   78 1
    82   76  143 1
    83   78   79 1
    84   78   80 1
    85   78   84 1
    86   80   81 1
    87   80   82 1
    88   80   83 1
    89   84   85 1
    90   84   86 1
    91   84   87 1
    92   87   88 1
    93   87   89 1
    94   87   90 1
    95   90   91 1
    96   90   92 1
    97   90  125 1
    98   92   93 1
    99   92   94 1
   100   92   98 1
   101   94   95 1
   102   94   96 1
   103   94   97 1
   104   98   99 1
   105   98  100 1
   106   98  118 1
   107  100  101 1
   108  100  102 1
   109  100  106 1
   110  102  103 1
   111  102  104 1
   112  102  105 1
   113  106  107 2
   114  106  108 1
   115  107  109 1
   116  107  110 1
   117  110  111 am
   118  110  114 1
   119  111  112 2
   120  111  113 1
   121  114  115 1
   122  114  116 1
   123  114  117 1
   124  118  119 1
   125  119  120 2
   126  119  121 1
   127  121  122 1
   128  121  123 1
   129  121  124 1
   130  125  126 1
   131  126  127 2
   132  126  128 1
   133  128  129 1
   134  128  130 1
   135  128  138 1
   136  130  131 1
   137  130  132 1
   138  130  133 1
   139  133  134 1
   140  134  135 1
   141  134  136 1
   142  134  137 1
   143  138  139 1
   144  139  140 1
   145  139  141 1
   146  139  142 1
   147  143  144 1
   148  144  145 1
   149  144  146 1
   150  144  147 1
@<TRIPOS>SUBSTRUCTURE
     1 UNL     1 RESIDUE           4 A     UNL     0 ROOT
########## rating : 0
########## RMSD l.b. : 4.497
########## RMSD u.b. : 10.327
########## Score : -6.0
@<TRIPOS>MOLECULE
Mycalolide_B_conf3_ligand_1_out.pdb
147 150 1 0 0
SMALL
NO_CHARGES


@<TRIPOS>ATOM
      1 C         143.1130  170.5090  186.6740 C.3       1 UNL    0.0000
      2 H         142.0730  170.5830  186.3380 H         1 UNL    0.0000
      3 H         143.7370  170.2970  185.7990 H         1 UNL    0.0000
      4 C         141.8940  168.8960  188.3020 C.3       1 UNL    0.0000
      5 C         141.2630  169.9290  189.2790 C.3       1 UNL    0.0000
      6 C         142.2060  170.4400  190.4000 C.3       1 UNL    0.0000
      7 C         143.1000  169.4180  191.0480 C.2       1 UNL    0.0000
      8 C         142.6930  168.3390  191.7350 C.2       1 UNL    0.0000
      9 C         143.6580  167.4470  192.2800 C.ar      1 UNL    0.0000
     10 N         144.9020  167.2790  191.8400 N.ar      1 UNL    0.0000
     11 C         145.5000  166.4450  192.7500 C.ar      1 UNL    0.0000
     12 C         144.5940  166.0710  193.7010 C.ar      1 UNL    0.0000
     13 O         143.4040  166.6610  193.3980 O.2       1 UNL    0.0000
     14 C         147.0000  166.0430  192.7000 C.ar      1 UNL    0.0000
     15 N         147.7940  166.3600  191.6890 N.ar      1 UNL    0.0000
     16 C         149.0330  165.9200  192.0830 C.ar      1 UNL    0.0000
     17 C         148.9430  165.3050  193.3020 C.ar      1 UNL    0.0000
     18 O         147.6400  165.3530  193.7030 O.2       1 UNL    0.0000
     19 C         150.3390  166.0820  191.2500 C.ar      1 UNL    0.0000
     20 N         150.3600  166.5670  190.0200 N.ar      1 UNL    0.0000
     21 C         151.6760  166.4620  189.6210 C.ar      1 UNL    0.0000
     22 C         152.4210  165.9890  190.6720 C.ar      1 UNL    0.0000
     23 O         151.5800  165.6950  191.7030 O.2       1 UNL    0.0000
     24 C         152.1070  166.8380  188.2330 C.3       1 UNL    0.0000
     25 C         152.0620  165.6730  187.2230 C.3       1 UNL    0.0000
     26 C         150.6970  165.5580  186.5670 C.2       1 UNL    0.0000
     27 O         150.5450  165.8910  185.3900 O.2       1 UNL    0.0000
     28 C         149.5390  165.0720  187.3700 C.2       1 UNL    0.0000
     29 C         148.2930  165.1250  186.8720 C.2       1 UNL    0.0000
     30 C         147.0660  164.7870  187.6720 C.3       1 UNL    0.0000
     31 C         146.2130  166.0270  187.9840 C.3       1 UNL    0.0000
     32 C         145.5080  166.5810  186.7480 C.3       1 UNL    0.0000
     33 C         145.1240  168.0040  187.0330 C.2       1 UNL    0.0000
     34 O         145.9460  168.8760  187.2790 O.2       1 UNL    0.0000
     35 O         143.7780  168.1670  187.0170 O.3       1 UNL    0.0000
     36 C         143.2440  169.3440  187.6780 C.3       1 UNL    0.0000
     37 H         142.0790  167.9670  188.8660 H         1 UNL    0.0000
     38 H         140.9260  170.7960  188.6980 H         1 UNL    0.0000
     39 H         142.8500  171.2150  189.9750 H         1 UNL    0.0000
     40 H         141.6310  170.9350  191.1900 H         1 UNL    0.0000
     41 H         144.1710  169.5910  190.9200 H         1 UNL    0.0000
     42 H         141.6440  168.1360  191.9080 H         1 UNL    0.0000
     43 H         144.6100  165.4420  194.5780 H         1 UNL    0.0000
     44 H         149.6430  164.8250  193.9740 H         1 UNL    0.0000
     45 H         153.4690  165.7640  190.8140 H         1 UNL    0.0000
     46 H         151.4260  167.6340  187.9020 H         1 UNL    0.0000
     47 H         152.7440  165.9310  186.3980 H         1 UNL    0.0000
     48 H         149.7220  164.7440  188.3850 H         1 UNL    0.0000
     49 H         148.1410  165.4620  185.8490 H         1 UNL    0.0000
     50 H         146.4690  164.0420  187.1330 H         1 UNL    0.0000
     51 H         147.3480  164.3050  188.6180 H         1 UNL    0.0000
     52 H         146.8450  166.7890  188.4570 H         1 UNL    0.0000
     53 H         146.1520  166.6120  185.8610 H         1 UNL    0.0000
     54 H         144.6170  165.9930  186.4930 H         1 UNL    0.0000
     55 H         143.9180  169.5970  188.4980 H         1 UNL    0.0000
     56 C         140.8830  168.4830  187.2160 C.3       1 UNL    0.0000
     57 H         141.3700  167.9050  186.4250 H         1 UNL    0.0000
     58 H         140.4160  169.3560  186.7570 H         1 UNL    0.0000
     59 H         140.0890  167.8530  187.6300 H         1 UNL    0.0000
     60 C         152.5750  164.3270  187.7360 C.3       1 UNL    0.0000
     61 H         151.8370  163.7970  188.3470 H         1 UNL    0.0000
     62 H         153.4870  164.4600  188.3290 H         1 UNL    0.0000
     63 H         152.8170  163.6720  186.8890 H         1 UNL    0.0000
     64 O         145.2090  165.6560  188.9340 O.3       1 UNL    0.0000
     65 H         145.3770  164.7200  189.1730 H         1 UNL    0.0000
     66 O         153.4490  167.3640  188.2720 O.3       1 UNL    0.0000
     67 C         154.0640  167.3560  186.9880 C.3       1 UNL    0.0000
     68 H         154.7910  166.5420  186.9060 H         1 UNL    0.0000
     69 H         153.3070  167.2620  186.2020 H         1 UNL    0.0000
     70 H         154.5880  168.3060  186.8530 H         1 UNL    0.0000
     71 O         140.1040  169.3170  189.8840 O.3       1 UNL    0.0000
     72 C         139.0760  170.2560  190.1780 C.3       1 UNL    0.0000
     73 H         139.4080  171.2830  190.0030 H         1 UNL    0.0000
     74 H         138.8130  170.1490  191.2350 H         1 UNL    0.0000
     75 H         138.1860  170.0430  189.5760 H         1 UNL    0.0000
     76 C         143.4900  171.8810  187.2580 C.3       1 UNL    0.0000
     77 H         142.9270  172.0600  188.1800 H         1 UNL    0.0000
     78 C         145.0090  172.0240  187.5540 C.3       1 UNL    0.0000
     79 H         145.4600  171.0400  187.4190 H         1 UNL    0.0000
     80 C         145.6350  172.9560  186.4880 C.3       1 UNL    0.0000
     81 H         146.7300  172.9280  186.5390 H         1 UNL    0.0000
     82 H         145.3580  172.6500  185.4760 H         1 UNL    0.0000
     83 H         145.3150  173.9920  186.6390 H         1 UNL    0.0000
     84 C         145.4000  172.5940  188.9270 C.3       1 UNL    0.0000
     85 H         146.1980  171.9630  189.3490 H         1 UNL    0.0000
     86 H         145.8700  173.5820  188.7850 H         1 UNL    0.0000
     87 C         144.3510  172.7150  190.0450 C.3       1 UNL    0.0000
     88 H         143.6020  173.3980  189.6280 H         1 UNL    0.0000
     89 H         143.8260  171.7610  190.1720 H         1 UNL    0.0000
     90 C         144.7600  173.2490  191.4390 C.3       1 UNL    0.0000
     91 H         144.6110  172.4300  192.1540 H         1 UNL    0.0000
     92 C         143.8870  174.4890  191.8520 C.3       1 UNL    0.0000
     93 H         144.2910  175.3620  191.3270 H         1 UNL    0.0000
     94 C         144.0550  174.8470  193.3410 C.3       1 UNL    0.0000
     95 H         143.3400  174.3070  193.9640 H         1 UNL    0.0000
     96 H         143.9380  175.9200  193.5110 H         1 UNL    0.0000
     97 H         145.0500  174.5560  193.7010 H         1 UNL    0.0000
     98 C         142.3530  174.3760  191.5680 C.3       1 UNL    0.0000
     99 H         142.1820  173.4840  190.9470 H         1 UNL    0.0000
    100 C         141.4460  174.1600  192.8170 C.3       1 UNL    0.0000
    101 H         142.0630  173.9420  193.6920 H         1 UNL    0.0000
    102 C         140.4610  172.9990  192.6180 C.3       1 UNL    0.0000
    103 H         140.9660  172.1030  192.2330 H         1 UNL    0.0000
    104 H         139.9700  172.7240  193.5640 H         1 UNL    0.0000
    105 H         139.6790  173.2590  191.8980 H         1 UNL    0.0000
    106 C         140.6370  175.4100  193.1250 C.2       1 UNL    0.0000
    107 C         140.7750  176.1190  194.2550 C.2       1 UNL    0.0000
    108 H         139.9080  175.6980  192.3710 H         1 UNL    0.0000
    109 H         141.4940  175.7710  194.9950 H         1 UNL    0.0000
    110 N         140.0810  177.2600  194.6240 N.am      1 UNL    0.0000
    111 C         139.3620  177.4190  195.8100 C.2       1 UNL    0.0000
    112 O         139.2070  176.6240  196.7300 O.2       1 UNL    0.0000
    113 H         138.8850  178.4120  195.8710 H         1 UNL    0.0000
    114 C         140.1080  178.3780  193.6850 C.3       1 UNL    0.0000
    115 H         140.8770  179.0910  194.0030 H         1 UNL    0.0000
    116 H         139.1470  178.9020  193.6460 H         1 UNL    0.0000
    117 H         140.3440  178.0040  192.6840 H         1 UNL    0.0000
    118 O         141.8940  175.5540  190.8660 O.3       1 UNL    0.0000
    119 C         141.5020  175.3710  189.5720 C.2       1 UNL    0.0000
    120 O         141.3790  174.2950  189.0040 O.2       1 UNL    0.0000
    121 C         141.2670  176.6920  188.9050 C.3       1 UNL    0.0000
    122 H         140.7850  177.3730  189.6090 H         1 UNL    0.0000
    123 H         140.6510  176.5550  188.0120 H         1 UNL    0.0000
    124 H         142.2250  177.1130  188.5870 H         1 UNL    0.0000
    125 O         146.1670  173.6050  191.4160 O.3       1 UNL    0.0000
    126 C         146.9730  172.9580  192.3220 C.2       1 UNL    0.0000
    127 O         147.1250  173.3190  193.4830 O.2       1 UNL    0.0000
    128 C         147.7350  171.7730  191.7040 C.3       1 UNL    0.0000
    129 H         147.8890  172.0230  190.6420 H         1 UNL    0.0000
    130 C         149.1050  171.6480  192.3740 C.3       1 UNL    0.0000
    131 H         149.4060  172.6090  192.7950 H         1 UNL    0.0000
    132 H         149.0370  170.9470  193.2140 H         1 UNL    0.0000
    133 O         150.0910  171.1820  191.4550 O.3       1 UNL    0.0000
    134 C         150.5980  169.9100  191.8310 C.3       1 UNL    0.0000
    135 H         149.9850  169.1170  191.3910 H         1 UNL    0.0000
    136 H         151.6170  169.8160  191.4470 H         1 UNL    0.0000
    137 H         150.6200  169.8010  192.9200 H         1 UNL    0.0000
    138 O         147.0860  170.5020  191.8020 O.3       1 UNL    0.0000
    139 C         147.0200  169.8320  190.5510 C.3       1 UNL    0.0000
    140 H         145.9690  169.7530  190.2610 H         1 UNL    0.0000
    141 H         147.4300  168.8200  190.6370 H         1 UNL    0.0000
    142 H         147.5550  170.3900  189.7770 H         1 UNL    0.0000
    143 O         143.1850  172.8690  186.2560 O.3       1 UNL    0.0000
    144 C         141.8500  172.8050  185.7700 C.3       1 UNL    0.0000
    145 H         141.8000  172.0180  185.0100 H         1 UNL    0.0000
    146 H         141.5330  173.7490  185.3130 H         1 UNL    0.0000
    147 H         141.1660  172.5310  186.5750 H         1 UNL    0.0000
@<TRIPOS>BOND
     1    1    2 1
     2    1    3 1
     3    1   36 1
     4    1   76 1
     5    4    5 1
     6    4   36 1
     7    4   37 1
     8    4   56 1
     9    5    6 1
    10    5   38 1
    11    5   71 1
    12    6    7 1
    13    6   39 1
    14    6   40 1
    15    7    8 2
    16    7   41 1
    17    8    9 1
    18    8   42 1
    19    9   10 ar
    20    9   13 ar
    21   10   11 ar
    22   11   12 ar
    23   11   14 1
    24   12   13 ar
    25   12   43 1
    26   14   15 ar
    27   14   18 ar
    28   15   16 ar
    29   16   17 ar
    30   16   19 1
    31   17   18 ar
    32   17   44 1
    33   19   20 ar
    34   19   23 ar
    35   20   21 ar
    36   21   22 ar
    37   21   24 1
    38   22   23 ar
    39   22   45 1
    40   24   25 1
    41   24   46 1
    42   24   66 1
    43   25   26 1
    44   25   47 1
    45   25   60 1
    46   26   27 2
    47   26   28 2
    48   28   29 2
    49   28   48 1
    50   29   30 1
    51   29   49 1
    52   30   31 1
    53   30   50 1
    54   30   51 1
    55   31   32 1
    56   31   52 1
    57   31   64 1
    58   32   33 1
    59   32   53 1
    60   32   54 1
    61   33   34 2
    62   33   35 1
    63   35   36 1
    64   36   55 1
    65   56   57 1
    66   56   58 1
    67   56   59 1
    68   60   61 1
    69   60   62 1
    70   60   63 1
    71   64   65 1
    72   66   67 1
    73   67   68 1
    74   67   69 1
    75   67   70 1
    76   71   72 1
    77   72   73 1
    78   72   74 1
    79   72   75 1
    80   76   77 1
    81   76   78 1
    82   76  143 1
    83   78   79 1
    84   78   80 1
    85   78   84 1
    86   80   81 1
    87   80   82 1
    88   80   83 1
    89   84   85 1
    90   84   86 1
    91   84   87 1
    92   87   88 1
    93   87   89 1
    94   87   90 1
    95   90   91 1
    96   90   92 1
    97   90  125 1
    98   92   93 1
    99   92   94 1
   100   92   98 1
   101   94   95 1
   102   94   96 1
   103   94   97 1
   104   98   99 1
   105   98  100 1
   106   98  118 1
   107  100  101 1
   108  100  102 1
   109  100  106 1
   110  102  103 1
   111  102  104 1
   112  102  105 1
   113  106  107 2
   114  106  108 1
   115  107  109 1
   116  107  110 1
   117  110  111 am
   118  110  114 1
   119  111  112 2
   120  111  113 1
   121  114  115 1
   122  114  116 1
   123  114  117 1
   124  118  119 1
   125  119  120 2
   126  119  121 1
   127  121  122 1
   128  121  123 1
   129  121  124 1
   130  125  126 1
   131  126  127 2
   132  126  128 1
   133  128  129 1
   134  128  130 1
   135  128  138 1
   136  130  131 1
   137  130  132 1
   138  130  133 1
   139  133  134 1
   140  134  135 1
   141  134  136 1
   142  134  137 1
   143  138  139 1
   144  139  140 1
   145  139  141 1
   146  139  142 1
   147  143  144 1
   148  144  145 1
   149  144  146 1
   150  144  147 1
@<TRIPOS>SUBSTRUCTURE
     1 UNL     1 RESIDUE           4 A     UNL     0 ROOT
########## rating : 0
########## RMSD l.b. : 4.620
########## RMSD u.b. : 8.547
########## Score : -6.0
@<TRIPOS>MOLECULE
Mycalolide_B_conf3_ligand_1_out.pdb
147 150 1 0 0
SMALL
NO_CHARGES


@<TRIPOS>ATOM
      1 C         155.1290  164.2180  187.4110 C.3       1 UNL    0.0000
      2 H         154.7000  164.2670  186.4040 H         1 UNL    0.0000
      3 H         155.8730  165.0180  187.5010 H         1 UNL    0.0000
      4 C         155.6840  161.8960  186.3900 C.3       1 UNL    0.0000
      5 C         154.2440  161.3490  186.1760 C.3       1 UNL    0.0000
      6 C         153.5880  160.7060  187.4260 C.3       1 UNL    0.0000
      7 C         154.4740  159.8440  188.2840 C.2       1 UNL    0.0000
      8 C         155.0900  158.7170  187.8960 C.2       1 UNL    0.0000
      9 C         155.9140  158.0120  188.8190 C.ar      1 UNL    0.0000
     10 N         156.5210  158.5350  189.8800 N.ar      1 UNL    0.0000
     11 C         157.0710  157.4700  190.5460 C.ar      1 UNL    0.0000
     12 C         156.8390  156.3180  189.8490 C.ar      1 UNL    0.0000
     13 O         156.1430  156.6450  188.7250 O.2       1 UNL    0.0000
     14 C         157.8030  157.5870  191.9120 C.ar      1 UNL    0.0000
     15 N         158.0810  158.7510  192.4790 N.ar      1 UNL    0.0000
     16 C         158.6210  158.4130  193.6950 C.ar      1 UNL    0.0000
     17 C         158.6960  157.0520  193.8080 C.ar      1 UNL    0.0000
     18 O         158.1980  156.5050  192.6620 O.2       1 UNL    0.0000
     19 C         159.0920  159.4350  194.7710 C.ar      1 UNL    0.0000
     20 N         159.1210  160.7420  194.5690 N.ar      1 UNL    0.0000
     21 C         159.6720  161.2650  195.7190 C.ar      1 UNL    0.0000
     22 C         159.8800  160.2460  196.6140 C.ar      1 UNL    0.0000
     23 O         159.5620  159.0660  196.0110 O.2       1 UNL    0.0000
     24 C         159.9540  162.7330  195.8560 C.3       1 UNL    0.0000
     25 C         161.3670  163.1490  195.3940 C.3       1 UNL    0.0000
     26 C         161.3940  163.4720  193.9100 C.2       1 UNL    0.0000
     27 O         161.4980  164.6400  193.5320 O.2       1 UNL    0.0000
     28 C         161.2590  162.3660  192.9190 C.2       1 UNL    0.0000
     29 C         161.1040  162.6360  191.6130 C.2       1 UNL    0.0000
     30 C         160.8210  161.5830  190.5780 C.3       1 UNL    0.0000
     31 C         159.3920  161.6810  190.0220 C.3       1 UNL    0.0000
     32 C         159.1900  162.9070  189.1330 C.3       1 UNL    0.0000
     33 C         157.7160  163.1800  189.0480 C.2       1 UNL    0.0000
     34 O         157.0350  163.4510  190.0270 O.2       1 UNL    0.0000
     35 O         157.2600  163.0470  187.7770 O.3       1 UNL    0.0000
     36 C         155.8310  162.8570  187.6020 C.3       1 UNL    0.0000
     37 H         156.3500  161.0360  186.5620 H         1 UNL    0.0000
     38 H         153.6030  162.1750  185.8430 H         1 UNL    0.0000
     39 H         153.2030  161.5100  188.0580 H         1 UNL    0.0000
     40 H         152.7140  160.1110  187.1390 H         1 UNL    0.0000
     41 H         154.6170  160.2010  189.3070 H         1 UNL    0.0000
     42 H         154.9610  158.3110  186.9020 H         1 UNL    0.0000
     43 H         157.0800  155.2750  189.9800 H         1 UNL    0.0000
     44 H         159.0410  156.3620  194.5680 H         1 UNL    0.0000
     45 H         160.2750  160.1920  197.6200 H         1 UNL    0.0000
     46 H         159.2040  163.2510  195.2430 H         1 UNL    0.0000
     47 H         161.6020  164.1040  195.8890 H         1 UNL    0.0000
     48 H         161.2170  161.3500  193.2890 H         1 UNL    0.0000
     49 H         161.1470  163.6690  191.2720 H         1 UNL    0.0000
     50 H         161.5510  161.6640  189.7630 H         1 UNL    0.0000
     51 H         160.9670  160.5810  191.0030 H         1 UNL    0.0000
     52 H         158.6790  161.6740  190.8570 H         1 UNL    0.0000
     53 H         159.6440  163.8170  189.5420 H         1 UNL    0.0000
     54 H         159.6040  162.7500  188.1280 H         1 UNL    0.0000
     55 H         155.4560  162.3340  188.4830 H         1 UNL    0.0000
     56 C         156.2220  162.5380  185.0970 C.3       1 UNL    0.0000
     57 H         155.9000  163.5800  185.0110 H         1 UNL    0.0000
     58 H         155.8720  162.0020  184.2130 H         1 UNL    0.0000
     59 H         157.3170  162.5400  185.0800 H         1 UNL    0.0000
     60 C         162.5030  162.2130  195.8060 C.3       1 UNL    0.0000
     61 H         163.2830  162.7210  196.3840 H         1 UNL    0.0000
     62 H         162.9660  161.7540  194.9260 H         1 UNL    0.0000
     63 H         162.1120  161.4070  196.4400 H         1 UNL    0.0000
     64 O         159.1340  160.5160  189.2310 O.3       1 UNL    0.0000
     65 H         160.0020  160.0910  189.0640 H         1 UNL    0.0000
     66 O         159.7830  163.1300  197.2310 O.3       1 UNL    0.0000
     67 C         158.4550  163.5660  197.5010 C.3       1 UNL    0.0000
     68 H         158.0600  163.0840  198.4010 H         1 UNL    0.0000
     69 H         158.4250  164.6550  197.6160 H         1 UNL    0.0000
     70 H         157.8240  163.2890  196.6520 H         1 UNL    0.0000
     71 O         154.2950  160.3680  185.1170 O.3       1 UNL    0.0000
     72 C         153.0130  159.8500  184.7840 C.3       1 UNL    0.0000
     73 H         152.9730  159.5140  183.7440 H         1 UNL    0.0000
     74 H         152.2790  160.6510  184.9200 H         1 UNL    0.0000
     75 H         152.7520  159.0250  185.4550 H         1 UNL    0.0000
     76 C         153.9770  164.4690  188.3980 C.3       1 UNL    0.0000
     77 H         153.7120  163.5360  188.9050 H         1 UNL    0.0000
     78 C         154.3090  165.5510  189.4630 C.3       1 UNL    0.0000
     79 H         154.5770  165.0300  190.3830 H         1 UNL    0.0000
     80 C         155.5650  166.3290  189.0040 C.3       1 UNL    0.0000
     81 H         155.2900  167.1650  188.3510 H         1 UNL    0.0000
     82 H         156.1040  166.7570  189.8540 H         1 UNL    0.0000
     83 H         156.2480  165.6770  188.4510 H         1 UNL    0.0000
     84 C         153.2200  166.5980  189.7550 C.3       1 UNL    0.0000
     85 H         153.7060  167.5800  189.8640 H         1 UNL    0.0000
     86 H         152.5750  166.7030  188.8660 H         1 UNL    0.0000
     87 C         152.3190  166.4570  190.9920 C.3       1 UNL    0.0000
     88 H         152.9550  165.9430  191.7220 H         1 UNL    0.0000
     89 H         152.1250  167.4420  191.4300 H         1 UNL    0.0000
     90 C         150.9820  165.6820  190.8950 C.3       1 UNL    0.0000
     91 H         150.9590  165.2050  189.9070 H         1 UNL    0.0000
     92 C         149.7520  166.6470  191.0550 C.3       1 UNL    0.0000
     93 H         148.8800  166.0270  191.2940 H         1 UNL    0.0000
     94 C         149.3680  167.3230  189.7250 C.3       1 UNL    0.0000
     95 H         149.2260  166.5900  188.9310 H         1 UNL    0.0000
     96 H         150.1240  168.0480  189.4110 H         1 UNL    0.0000
     97 H         148.4120  167.8540  189.8210 H         1 UNL    0.0000
     98 C         149.8980  167.7750  192.1280 C.3       1 UNL    0.0000
     99 H         150.8540  167.6310  192.6540 H         1 UNL    0.0000
    100 C         149.9720  169.2310  191.5770 C.3       1 UNL    0.0000
    101 H         149.7990  169.2290  190.4990 H         1 UNL    0.0000
    102 C         151.3370  169.8790  191.8490 C.3       1 UNL    0.0000
    103 H         151.9580  169.2530  192.5040 H         1 UNL    0.0000
    104 H         151.8960  170.0410  190.9150 H         1 UNL    0.0000
    105 H         151.2260  170.8480  192.3450 H         1 UNL    0.0000
    106 C         148.9050  170.1080  192.2130 C.2       1 UNL    0.0000
    107 C         148.8520  171.4390  192.0520 C.2       1 UNL    0.0000
    108 H         148.1770  169.5920  192.8350 H         1 UNL    0.0000
    109 H         149.6230  171.9140  191.4480 H         1 UNL    0.0000
    110 N         147.9270  172.3170  192.5950 N.am      1 UNL    0.0000
    111 C         146.6570  172.5750  192.0770 C.2       1 UNL    0.0000
    112 O         146.1180  172.0970  191.0850 O.2       1 UNL    0.0000
    113 H         146.1110  173.3210  192.6780 H         1 UNL    0.0000
    114 C         148.3300  173.0270  193.8060 C.3       1 UNL    0.0000
    115 H         148.3400  172.3210  194.6450 H         1 UNL    0.0000
    116 H         147.6400  173.8410  194.0500 H         1 UNL    0.0000
    117 H         149.3300  173.4450  193.6640 H         1 UNL    0.0000
    118 O         148.8060  167.6970  193.0750 O.3       1 UNL    0.0000
    119 C         148.9490  166.7940  194.0880 C.2       1 UNL    0.0000
    120 O         150.0060  166.4320  194.5830 O.2       1 UNL    0.0000
    121 C         147.6120  166.2610  194.5050 C.3       1 UNL    0.0000
    122 H         147.6740  165.8890  195.5290 H         1 UNL    0.0000
    123 H         147.2980  165.4670  193.8220 H         1 UNL    0.0000
    124 H         146.8690  167.0610  194.4500 H         1 UNL    0.0000
    125 O         150.9550  164.6530  191.9170 O.3       1 UNL    0.0000
    126 C         149.9380  163.7320  191.8280 C.2       1 UNL    0.0000
    127 O         149.0860  163.5680  192.6920 O.2       1 UNL    0.0000
    128 C         150.0240  162.8680  190.5580 C.3       1 UNL    0.0000
    129 H         150.1600  163.5660  189.7160 H         1 UNL    0.0000
    130 C         151.2590  161.9680  190.6430 C.3       1 UNL    0.0000
    131 H         152.0970  162.4310  190.1170 H         1 UNL    0.0000
    132 H         151.5660  161.8690  191.6910 H         1 UNL    0.0000
    133 O         150.9950  160.6740  190.1080 O.3       1 UNL    0.0000
    134 C         151.7040  159.6620  190.8110 C.3       1 UNL    0.0000
    135 H         151.2740  158.6800  190.5870 H         1 UNL    0.0000
    136 H         152.7440  159.6720  190.4750 H         1 UNL    0.0000
    137 H         151.6790  159.8420  191.8900 H         1 UNL    0.0000
    138 O         148.8940  162.0310  190.3010 O.3       1 UNL    0.0000
    139 C         148.0360  162.5730  189.3080 C.3       1 UNL    0.0000
    140 H         147.8730  163.6300  189.5360 H         1 UNL    0.0000
    141 H         147.0660  162.0650  189.3220 H         1 UNL    0.0000
    142 H         148.4850  162.4970  188.3140 H         1 UNL    0.0000
    143 O         152.8690  164.9870  187.6370 O.3       1 UNL    0.0000
    144 C         151.8120  164.0550  187.4500 C.3       1 UNL    0.0000
    145 H         152.0790  163.1270  187.9680 H         1 UNL    0.0000
    146 H         151.6480  163.8260  186.3910 H         1 UNL    0.0000
    147 H         150.8900  164.4300  187.8980 H         1 UNL    0.0000
@<TRIPOS>BOND
     1    1    2 1
     2    1    3 1
     3    1   36 1
     4    1   76 1
     5    4    5 1
     6    4   36 1
     7    4   37 1
     8    4   56 1
     9    5    6 1
    10    5   38 1
    11    5   71 1
    12    6    7 1
    13    6   39 1
    14    6   40 1
    15    7    8 2
    16    7   41 1
    17    8    9 1
    18    8   42 1
    19    9   10 ar
    20    9   13 ar
    21   10   11 ar
    22   11   12 ar
    23   11   14 1
    24   12   13 ar
    25   12   43 1
    26   14   15 ar
    27   14   18 ar
    28   15   16 ar
    29   16   17 ar
    30   16   19 1
    31   17   18 ar
    32   17   44 1
    33   19   20 ar
    34   19   23 ar
    35   20   21 ar
    36   21   22 ar
    37   21   24 1
    38   22   23 ar
    39   22   45 1
    40   24   25 1
    41   24   46 1
    42   24   66 1
    43   25   26 1
    44   25   47 1
    45   25   60 1
    46   26   27 2
    47   26   28 2
    48   28   29 2
    49   28   48 1
    50   29   30 1
    51   29   49 1
    52   30   31 1
    53   30   50 1
    54   30   51 1
    55   31   32 1
    56   31   52 1
    57   31   64 1
    58   32   33 1
    59   32   53 1
    60   32   54 1
    61   33   34 2
    62   33   35 1
    63   35   36 1
    64   36   55 1
    65   56   57 1
    66   56   58 1
    67   56   59 1
    68   60   61 1
    69   60   62 1
    70   60   63 1
    71   64   65 1
    72   66   67 1
    73   67   68 1
    74   67   69 1
    75   67   70 1
    76   71   72 1
    77   72   73 1
    78   72   74 1
    79   72   75 1
    80   76   77 1
    81   76   78 1
    82   76  143 1
    83   78   79 1
    84   78   80 1
    85   78   84 1
    86   80   81 1
    87   80   82 1
    88   80   83 1
    89   84   85 1
    90   84   86 1
    91   84   87 1
    92   87   88 1
    93   87   89 1
    94   87   90 1
    95   90   91 1
    96   90   92 1
    97   90  125 1
    98   92   93 1
    99   92   94 1
   100   92   98 1
   101   94   95 1
   102   94   96 1
   103   94   97 1
   104   98   99 1
   105   98  100 1
   106   98  118 1
   107  100  101 1
   108  100  102 1
   109  100  106 1
   110  102  103 1
   111  102  104 1
   112  102  105 1
   113  106  107 2
   114  106  108 1
   115  107  109 1
   116  107  110 1
   117  110  111 am
   118  110  114 1
   119  111  112 2
   120  111  113 1
   121  114  115 1
   122  114  116 1
   123  114  117 1
   124  118  119 1
   125  119  120 2
   126  119  121 1
   127  121  122 1
   128  121  123 1
   129  121  124 1
   130  125  126 1
   131  126  127 2
   132  126  128 1
   133  128  129 1
   134  128  130 1
   135  128  138 1
   136  130  131 1
   137  130  132 1
   138  130  133 1
   139  133  134 1
   140  134  135 1
   141  134  136 1
   142  134  137 1
   143  138  139 1
   144  139  140 1
   145  139  141 1
   146  139  142 1
   147  143  144 1
   148  144  145 1
   149  144  146 1
   150  144  147 1
@<TRIPOS>SUBSTRUCTURE
     1 UNL     1 RESIDUE           4 A     UNL     0 ROOT
########## rating : 0
########## RMSD l.b. : 2.176
########## RMSD u.b. : 4.495
########## Score : -6.0
@<TRIPOS>MOLECULE
Mycalolide_B_conf3_ligand_1_out.pdb
147 150 1 0 0
SMALL
NO_CHARGES


@<TRIPOS>ATOM
      1 C         154.0340  164.6020  188.9200 C.3       1 UNL    0.0000
      2 H         154.2030  165.5800  189.3830 H         1 UNL    0.0000
      3 H         154.0000  163.8520  189.7180 H         1 UNL    0.0000
      4 C         155.6020  162.7720  187.9540 C.3       1 UNL    0.0000
      5 C         156.2580  162.2620  189.2690 C.3       1 UNL    0.0000
      6 C         157.4580  163.1020  189.7790 C.3       1 UNL    0.0000
      7 C         158.4250  163.5970  188.7390 C.2       1 UNL    0.0000
      8 C         159.1700  162.8300  187.9280 C.2       1 UNL    0.0000
      9 C         160.0330  163.4430  186.9760 C.ar      1 UNL    0.0000
     10 N         159.8910  164.6620  186.4660 N.ar      1 UNL    0.0000
     11 C         161.0210  164.8780  185.7200 C.ar      1 UNL    0.0000
     12 C         161.8100  163.7630  185.7410 C.ar      1 UNL    0.0000
     13 O         161.1810  162.8220  186.4980 O.2       1 UNL    0.0000
     14 C         161.3440  166.2200  185.0070 C.ar      1 UNL    0.0000
     15 N         160.4840  167.2240  184.9440 N.ar      1 UNL    0.0000
     16 C         161.1880  168.2350  184.3370 C.ar      1 UNL    0.0000
     17 C         162.4410  167.7950  184.0080 C.ar      1 UNL    0.0000
     18 O         162.5520  166.4960  184.4080 O.2       1 UNL    0.0000
     19 C         160.6280  169.6600  184.0520 C.ar      1 UNL    0.0000
     20 N         159.3700  170.0020  184.2690 N.ar      1 UNL    0.0000
     21 C         159.2730  171.3000  183.8120 C.ar      1 UNL    0.0000
     22 C         160.5140  171.7210  183.4080 C.ar      1 UNL    0.0000
     23 O         161.3820  170.6750  183.5080 O.2       1 UNL    0.0000
     24 C         157.9630  172.0330  183.8070 C.3       1 UNL    0.0000
     25 C         157.1560  171.8720  182.5020 C.3       1 UNL    0.0000
     26 C         156.2570  170.6480  182.5520 C.2       1 UNL    0.0000
     27 O         155.0370  170.7800  182.6720 O.2       1 UNL    0.0000
     28 C         156.8680  169.2900  182.4900 C.2       1 UNL    0.0000
     29 C         156.1210  168.1950  182.7070 C.2       1 UNL    0.0000
     30 C         156.6920  166.8080  182.8010 C.3       1 UNL    0.0000
     31 C         156.6270  166.2460  184.2300 C.3       1 UNL    0.0000
     32 C         155.2020  165.9130  184.6660 C.3       1 UNL    0.0000
     33 C         155.1800  165.8490  186.1660 C.2       1 UNL    0.0000
     34 O         155.4540  166.8070  186.8750 O.2       1 UNL    0.0000
     35 O         154.8610  164.6050  186.6040 O.3       1 UNL    0.0000
     36 C         155.2100  164.2750  187.9750 C.3       1 UNL    0.0000
     37 H         156.3280  162.6270  187.1370 H         1 UNL    0.0000
     38 H         155.4940  162.2480  190.0570 H         1 UNL    0.0000
     39 H         157.0620  163.9780  190.3010 H         1 UNL    0.0000
     40 H         158.0270  162.5430  190.5310 H         1 UNL    0.0000
     41 H         158.4970  164.6850  188.6530 H         1 UNL    0.0000
     42 H         159.1510  161.7500  187.9900 H         1 UNL    0.0000
     43 H         162.7570  163.4790  185.3080 H         1 UNL    0.0000
     44 H         163.3090  168.2350  183.5320 H         1 UNL    0.0000
     45 H         160.9030  172.6440  182.9980 H         1 UNL    0.0000
     46 H         157.3800  171.6330  184.6470 H         1 UNL    0.0000
     47 H         156.4600  172.7230  182.4430 H         1 UNL    0.0000
     48 H         157.9370  169.2160  182.3380 H         1 UNL    0.0000
     49 H         155.0490  168.3020  182.8610 H         1 UNL    0.0000
     50 H         156.1610  166.1440  182.1080 H         1 UNL    0.0000
     51 H         157.7380  166.8020  182.4660 H         1 UNL    0.0000
     52 H         157.0990  166.9580  184.9190 H         1 UNL    0.0000
     53 H         154.4730  166.6830  184.3850 H         1 UNL    0.0000
     54 H         154.8610  164.9600  184.2420 H         1 UNL    0.0000
     55 H         156.1030  164.8450  188.2350 H         1 UNL    0.0000
     56 C         154.4070  161.8850  187.5590 C.3       1 UNL    0.0000
     57 H         154.7370  161.0070  186.9970 H         1 UNL    0.0000
     58 H         153.6940  162.4340  186.9410 H         1 UNL    0.0000
     59 H         153.8750  161.5180  188.4420 H         1 UNL    0.0000
     60 C         157.9640  171.9460  181.2060 C.3       1 UNL    0.0000
     61 H         159.0360  171.7900  181.3650 H         1 UNL    0.0000
     62 H         157.8220  172.9160  180.7160 H         1 UNL    0.0000
     63 H         157.6280  171.1650  180.5110 H         1 UNL    0.0000
     64 O         157.3940  165.0380  184.2750 O.3       1 UNL    0.0000
     65 H         158.2270  165.2500  184.7490 H         1 UNL    0.0000
     66 O         158.1970  173.4380  184.0330 O.3       1 UNL    0.0000
     67 C         156.9930  174.1960  183.9890 C.3       1 UNL    0.0000
     68 H         156.1280  173.5480  183.8160 H         1 UNL    0.0000
     69 H         156.8600  174.7560  184.9210 H         1 UNL    0.0000
     70 H         157.0660  174.9080  183.1630 H         1 UNL    0.0000
     71 O         156.6960  160.9040  189.0480 O.3       1 UNL    0.0000
     72 C         157.4900  160.4010  190.1160 C.3       1 UNL    0.0000
     73 H         158.5280  160.2470  189.8080 H         1 UNL    0.0000
     74 H         157.0710  159.4370  190.4240 H         1 UNL    0.0000
     75 H         157.4500  161.0840  190.9710 H         1 UNL    0.0000
     76 C         152.6690  164.6720  188.2170 C.3       1 UNL    0.0000
     77 H         152.7470  164.2460  187.2110 H         1 UNL    0.0000
     78 C         151.5420  163.9380  188.9940 C.3       1 UNL    0.0000
     79 H         150.7610  164.6700  189.2020 H         1 UNL    0.0000
     80 C         150.9180  162.8660  188.0680 C.3       1 UNL    0.0000
     81 H         150.9600  163.1830  187.0190 H         1 UNL    0.0000
     82 H         151.4570  161.9170  188.1330 H         1 UNL    0.0000
     83 H         149.8690  162.6890  188.3260 H         1 UNL    0.0000
     84 C         151.9450  163.2210  190.2940 C.3       1 UNL    0.0000
     85 H         151.9480  162.1360  190.1030 H         1 UNL    0.0000
     86 H         152.9940  163.4670  190.5290 H         1 UNL    0.0000
     87 C         151.1080  163.4010  191.5710 C.3       1 UNL    0.0000
     88 H         151.2720  162.4690  192.1250 H         1 UNL    0.0000
     89 H         151.5470  164.1850  192.2000 H         1 UNL    0.0000
     90 C         149.5810  163.6360  191.4730 C.3       1 UNL    0.0000
     91 H         149.3750  163.9840  190.4530 H         1 UNL    0.0000
     92 C         149.1030  164.7110  192.5150 C.3       1 UNL    0.0000
     93 H         148.7390  164.1710  193.3970 H         1 UNL    0.0000
     94 C         147.8650  165.4860  192.0230 C.3       1 UNL    0.0000
     95 H         147.1490  165.6470  192.8300 H         1 UNL    0.0000
     96 H         147.3670  164.9660  191.2010 H         1 UNL    0.0000
     97 H         148.1480  166.4850  191.6660 H         1 UNL    0.0000
     98 C         150.1700  165.7660  192.9550 C.3       1 UNL    0.0000
     99 H         151.1060  165.2350  193.1860 H         1 UNL    0.0000
    100 C         150.5730  166.8150  191.8760 C.3       1 UNL    0.0000
    101 H         150.0870  166.5780  190.9270 H         1 UNL    0.0000
    102 C         152.0910  166.8510  191.6480 C.3       1 UNL    0.0000
    103 H         152.5570  165.8830  191.8760 H         1 UNL    0.0000
    104 H         152.3330  167.0980  190.6030 H         1 UNL    0.0000
    105 H         152.5730  167.5960  192.2880 H         1 UNL    0.0000
    106 C         150.1300  168.2120  192.2830 C.2       1 UNL    0.0000
    107 C         149.4810  169.0490  191.4600 C.2       1 UNL    0.0000
    108 H         150.3880  168.5130  193.2960 H         1 UNL    0.0000
    109 H         149.2770  168.7150  190.4440 H         1 UNL    0.0000
    110 N         149.0480  170.3360  191.7380 N.am      1 UNL    0.0000
    111 C         147.7290  170.7820  191.6440 C.2       1 UNL    0.0000
    112 O         146.7250  170.1570  191.3170 O.2       1 UNL    0.0000
    113 H         147.6360  171.8490  191.9040 H         1 UNL    0.0000
    114 C         150.0660  171.2950  192.1580 C.3       1 UNL    0.0000
    115 H         150.9560  170.7470  192.4900 H         1 UNL    0.0000
    116 H         149.7190  171.9220  192.9860 H         1 UNL    0.0000
    117 H         150.3250  171.9410  191.3140 H         1 UNL    0.0000
    118 O         149.7100  166.4710  194.1320 O.3       1 UNL    0.0000
    119 C         149.9310  165.8560  195.3300 C.2       1 UNL    0.0000
    120 O         149.0730  165.4090  196.0770 O.2       1 UNL    0.0000
    121 C         151.3970  165.8270  195.6390 C.3       1 UNL    0.0000
    122 H         151.5650  166.2380  196.6370 H         1 UNL    0.0000
    123 H         151.9480  166.3980  194.8860 H         1 UNL    0.0000
    124 H         151.7560  164.7950  195.6030 H         1 UNL    0.0000
    125 O         148.8930  162.3780  191.6910 O.3       1 UNL    0.0000
    126 C         148.4540  161.7210  190.5650 C.2       1 UNL    0.0000
    127 O         147.6880  162.2100  189.7440 O.2       1 UNL    0.0000
    128 C         148.9620  160.2710  190.4840 C.3       1 UNL    0.0000
    129 H         148.3000  159.6730  191.1310 H         1 UNL    0.0000
    130 C         148.8160  159.7650  189.0470 C.3       1 UNL    0.0000
    131 H         148.7560  160.6090  188.3560 H         1 UNL    0.0000
    132 H         149.7130  159.1980  188.7690 H         1 UNL    0.0000
    133 O         147.6710  158.9290  188.9050 O.3       1 UNL    0.0000
    134 C         147.4840  158.0990  190.0430 C.3       1 UNL    0.0000
    135 H         148.3130  158.2340  190.7450 H         1 UNL    0.0000
    136 H         146.5550  158.3940  190.5380 H         1 UNL    0.0000
    137 H         147.4100  157.0450  189.7540 H         1 UNL    0.0000
    138 O         150.3210  160.0680  190.8800 O.3       1 UNL    0.0000
    139 C         151.1180  159.5510  189.8250 C.3       1 UNL    0.0000
    140 H         151.1890  158.4660  189.9500 H         1 UNL    0.0000
    141 H         152.1300  159.9680  189.8700 H         1 UNL    0.0000
    142 H         150.6680  159.7600  188.8510 H         1 UNL    0.0000
    143 O         152.2830  166.0590  188.1720 O.3       1 UNL    0.0000
    144 C         151.5600  166.4190  187.0010 C.3       1 UNL    0.0000
    145 H         150.6430  165.8190  186.9680 H         1 UNL    0.0000
    146 H         152.1330  166.2260  186.0880 H         1 UNL    0.0000
    147 H         151.2660  167.4690  187.0450 H         1 UNL    0.0000
@<TRIPOS>BOND
     1    1    2 1
     2    1    3 1
     3    1   36 1
     4    1   76 1
     5    4    5 1
     6    4   36 1
     7    4   37 1
     8    4   56 1
     9    5    6 1
    10    5   38 1
    11    5   71 1
    12    6    7 1
    13    6   39 1
    14    6   40 1
    15    7    8 2
    16    7   41 1
    17    8    9 1
    18    8   42 1
    19    9   10 ar
    20    9   13 ar
    21   10   11 ar
    22   11   12 ar
    23   11   14 1
    24   12   13 ar
    25   12   43 1
    26   14   15 ar
    27   14   18 ar
    28   15   16 ar
    29   16   17 ar
    30   16   19 1
    31   17   18 ar
    32   17   44 1
    33   19   20 ar
    34   19   23 ar
    35   20   21 ar
    36   21   22 ar
    37   21   24 1
    38   22   23 ar
    39   22   45 1
    40   24   25 1
    41   24   46 1
    42   24   66 1
    43   25   26 1
    44   25   47 1
    45   25   60 1
    46   26   27 2
    47   26   28 2
    48   28   29 2
    49   28   48 1
    50   29   30 1
    51   29   49 1
    52   30   31 1
    53   30   50 1
    54   30   51 1
    55   31   32 1
    56   31   52 1
    57   31   64 1
    58   32   33 1
    59   32   53 1
    60   32   54 1
    61   33   34 2
    62   33   35 1
    63   35   36 1
    64   36   55 1
    65   56   57 1
    66   56   58 1
    67   56   59 1
    68   60   61 1
    69   60   62 1
    70   60   63 1
    71   64   65 1
    72   66   67 1
    73   67   68 1
    74   67   69 1
    75   67   70 1
    76   71   72 1
    77   72   73 1
    78   72   74 1
    79   72   75 1
    80   76   77 1
    81   76   78 1
    82   76  143 1
    83   78   79 1
    84   78   80 1
    85   78   84 1
    86   80   81 1
    87   80   82 1
    88   80   83 1
    89   84   85 1
    90   84   86 1
    91   84   87 1
    92   87   88 1
    93   87   89 1
    94   87   90 1
    95   90   91 1
    96   90   92 1
    97   90  125 1
    98   92   93 1
    99   92   94 1
   100   92   98 1
   101   94   95 1
   102   94   96 1
   103   94   97 1
   104   98   99 1
   105   98  100 1
   106   98  118 1
   107  100  101 1
   108  100  102 1
   109  100  106 1
   110  102  103 1
   111  102  104 1
   112  102  105 1
   113  106  107 2
   114  106  108 1
   115  107  109 1
   116  107  110 1
   117  110  111 am
   118  110  114 1
   119  111  112 2
   120  111  113 1
   121  114  115 1
   122  114  116 1
   123  114  117 1
   124  118  119 1
   125  119  120 2
   126  119  121 1
   127  121  122 1
   128  121  123 1
   129  121  124 1
   130  125  126 1
   131  126  127 2
   132  126  128 1
   133  128  129 1
   134  128  130 1
   135  128  138 1
   136  130  131 1
   137  130  132 1
   138  130  133 1
   139  133  134 1
   140  134  135 1
   141  134  136 1
   142  134  137 1
   143  138  139 1
   144  139  140 1
   145  139  141 1
   146  139  142 1
   147  143  144 1
   148  144  145 1
   149  144  146 1
   150  144  147 1
@<TRIPOS>SUBSTRUCTURE
     1 UNL     1 RESIDUE           4 A     UNL     0 ROOT
########## rating : 0
########## RMSD l.b. : 3.677
########## RMSD u.b. : 10.970
########## Score : -6.0
@<TRIPOS>MOLECULE
Mycalolide_B_conf3_ligand_1_out.pdb
147 150 1 0 0
SMALL
NO_CHARGES


@<TRIPOS>ATOM
      1 C         146.8020  171.4090  189.7440 C.3       1 UNL    0.0000
      2 H         146.3270  172.3940  189.8060 H         1 UNL    0.0000
      3 H         147.7070  171.5070  189.1350 H         1 UNL    0.0000
      4 C         144.3910  170.9610  188.8900 C.3       1 UNL    0.0000
      5 C         143.6050  171.1030  190.2250 C.3       1 UNL    0.0000
      6 C         143.5850  169.8360  191.1190 C.3       1 UNL    0.0000
      7 C         143.4090  168.5170  190.4160 C.2       1 UNL    0.0000
      8 C         142.3440  168.1500  189.6880 C.2       1 UNL    0.0000
      9 C         142.3240  166.8700  189.0650 C.ar      1 UNL    0.0000
     10 N         143.3900  166.1490  188.7300 N.ar      1 UNL    0.0000
     11 C         142.8950  164.9440  188.3040 C.ar      1 UNL    0.0000
     12 C         141.5290  164.9680  188.3320 C.ar      1 UNL    0.0000
     13 O         141.1430  166.1980  188.7710 O.2       1 UNL    0.0000
     14 C         143.7850  163.7360  187.9000 C.ar      1 UNL    0.0000
     15 N         145.1030  163.8190  187.7980 N.ar      1 UNL    0.0000
     16 C         145.5020  162.5330  187.5310 C.ar      1 UNL    0.0000
     17 C         144.4080  161.7170  187.4320 C.ar      1 UNL    0.0000
     18 O         143.2940  162.4770  187.6430 O.2       1 UNL    0.0000
     19 C         146.9810  162.0810  187.3500 C.ar      1 UNL    0.0000
     20 N         147.9990  162.9250  187.3240 N.ar      1 UNL    0.0000
     21 C         149.1020  162.1400  187.0630 C.ar      1 UNL    0.0000
     22 C         148.7110  160.8260  187.0230 C.ar      1 UNL    0.0000
     23 O         147.3560  160.7720  187.1550 O.2       1 UNL    0.0000
     24 C         150.4650  162.7400  186.8720 C.3       1 UNL    0.0000
     25 C         150.7960  163.1000  185.4090 C.3       1 UNL    0.0000
     26 C         150.3330  164.5040  185.0630 C.2       1 UNL    0.0000
     27 O         151.1570  165.4110  184.9200 O.2       1 UNL    0.0000
     28 C         148.8740  164.7820  184.9330 C.2       1 UNL    0.0000
     29 C         148.4290  166.0420  184.8020 C.2       1 UNL    0.0000
     30 C         146.9710  166.4100  184.8090 C.3       1 UNL    0.0000
     31 C         146.5670  167.1720  186.0810 C.3       1 UNL    0.0000
     32 C         147.1390  168.5880  186.1240 C.3       1 UNL    0.0000
     33 C         147.1130  169.0540  187.5500 C.2       1 UNL    0.0000
     34 O         147.7340  168.4930  188.4420 O.2       1 UNL    0.0000
     35 O         146.2980  170.1270  187.7060 O.3       1 UNL    0.0000
     36 C         145.8380  170.4200  189.0530 C.3       1 UNL    0.0000
     37 H         143.8400  170.2540  188.2480 H         1 UNL    0.0000
     38 H         144.0500  171.9210  190.8060 H         1 UNL    0.0000
     39 H         144.5320  169.7910  191.6650 H         1 UNL    0.0000
     40 H         142.8060  169.9170  191.8850 H         1 UNL    0.0000
     41 H         144.2470  167.8220  190.5180 H         1 UNL    0.0000
     42 H         141.4810  168.7930  189.5770 H         1 UNL    0.0000
     43 H         140.7400  164.2740  188.0880 H         1 UNL    0.0000
     44 H         144.2490  160.6630  187.2410 H         1 UNL    0.0000
     45 H         149.2260  159.8880  186.8600 H         1 UNL    0.0000
     46 H         150.4910  163.6510  187.4860 H         1 UNL    0.0000
     47 H         151.8930  163.1420  185.3250 H         1 UNL    0.0000
     48 H         148.1860  163.9520  185.0190 H         1 UNL    0.0000
     49 H         149.1460  166.8570  184.7220 H         1 UNL    0.0000
     50 H         146.7390  167.0080  183.9190 H         1 UNL    0.0000
     51 H         146.3500  165.5080  184.7240 H         1 UNL    0.0000
     52 H         146.8740  166.5920  186.9610 H         1 UNL    0.0000
     53 H         148.1870  168.6410  185.8060 H         1 UNL    0.0000
     54 H         146.5630  169.2760  185.4900 H         1 UNL    0.0000
     55 H         145.7780  169.4760  189.5950 H         1 UNL    0.0000
     56 C         144.3710  172.2830  188.1010 C.3       1 UNL    0.0000
     57 H         143.3680  172.7200  188.0900 H         1 UNL    0.0000
     58 H         144.6840  172.1320  187.0660 H         1 UNL    0.0000
     59 H         145.0390  173.0250  188.5500 H         1 UNL    0.0000
     60 C         150.3700  162.0730  184.3590 C.3       1 UNL    0.0000
     61 H         150.5490  161.0410  184.6790 H         1 UNL    0.0000
     62 H         150.8990  162.2420  183.4150 H         1 UNL    0.0000
     63 H         149.2940  162.1640  184.1630 H         1 UNL    0.0000
     64 O         145.1400  167.2720  186.1120 O.3       1 UNL    0.0000
     65 H         144.8370  167.2870  185.1800 H         1 UNL    0.0000
     66 O         151.4670  161.8250  187.3610 O.3       1 UNL    0.0000
     67 C         152.7510  162.4330  187.4450 C.3       1 UNL    0.0000
     68 H         153.5350  161.7370  187.1300 H         1 UNL    0.0000
     69 H         152.7860  163.3390  186.8300 H         1 UNL    0.0000
     70 H         152.9310  162.7120  188.4860 H         1 UNL    0.0000
     71 O         142.2460  171.4700  189.9030 O.3       1 UNL    0.0000
     72 C         141.6040  172.1810  190.9550 C.3       1 UNL    0.0000
     73 H         142.1670  172.1100  191.8890 H         1 UNL    0.0000
     74 H         140.6150  171.7360  191.1090 H         1 UNL    0.0000
     75 H         141.4710  173.2310  190.6760 H         1 UNL    0.0000
     76 C         147.1830  171.0070  191.1780 C.3       1 UNL    0.0000
     77 H         146.5000  170.2330  191.5420 H         1 UNL    0.0000
     78 C         148.6450  170.4940  191.3020 C.3       1 UNL    0.0000
     79 H         149.1160  170.6160  190.3260 H         1 UNL    0.0000
     80 C         149.4090  171.4100  192.2880 C.3       1 UNL    0.0000
     81 H         149.0910  172.4540  192.1790 H         1 UNL    0.0000
     82 H         149.2170  171.1290  193.3270 H         1 UNL    0.0000
     83 H         150.4880  171.3640  192.1080 H         1 UNL    0.0000
     84 C         148.8360  169.0510  191.7980 C.3       1 UNL    0.0000
     85 H         148.3080  168.9420  192.7580 H         1 UNL    0.0000
     86 H         148.3140  168.3630  191.1120 H         1 UNL    0.0000
     87 C         150.2490  168.4990  192.0530 C.3       1 UNL    0.0000
     88 H         150.7140  168.5010  191.0600 H         1 UNL    0.0000
     89 H         150.8320  169.2170  192.6410 H         1 UNL    0.0000
     90 C         150.4320  167.0880  192.6630 C.3       1 UNL    0.0000
     91 H         150.3810  167.2000  193.7530 H         1 UNL    0.0000
     92 C         151.8150  166.4660  192.2500 C.3       1 UNL    0.0000
     93 H         152.0180  165.6360  192.9380 H         1 UNL    0.0000
     94 C         152.9850  167.4380  192.4950 C.3       1 UNL    0.0000
     95 H         153.5410  167.6330  191.5770 H         1 UNL    0.0000
     96 H         153.6720  167.0550  193.2550 H         1 UNL    0.0000
     97 H         152.6160  168.4130  192.8370 H         1 UNL    0.0000
     98 C         151.9290  165.9580  190.7750 C.3       1 UNL    0.0000
     99 H         150.9300  165.9980  190.3180 H         1 UNL    0.0000
    100 C         152.8240  166.8160  189.8310 C.3       1 UNL    0.0000
    101 H         153.3460  167.5830  190.4070 H         1 UNL    0.0000
    102 C         152.0030  167.5090  188.7340 C.3       1 UNL    0.0000
    103 H         151.6660  168.5050  189.0520 H         1 UNL    0.0000
    104 H         152.5910  167.6360  187.8130 H         1 UNL    0.0000
    105 H         151.1070  166.9340  188.4840 H         1 UNL    0.0000
    106 C         153.8770  165.9560  189.1490 C.2       1 UNL    0.0000
    107 C         155.1900  166.2270  189.1880 C.2       1 UNL    0.0000
    108 H         153.5020  165.0960  188.5990 H         1 UNL    0.0000
    109 H         155.5140  167.1190  189.7230 H         1 UNL    0.0000
    110 N         156.2170  165.5110  188.5950 N.am      1 UNL    0.0000
    111 C         156.6890  165.7020  187.2960 C.2       1 UNL    0.0000
    112 O         156.3170  166.5090  186.4510 O.2       1 UNL    0.0000
    113 H         157.5040  165.0020  187.0470 H         1 UNL    0.0000
    114 C         156.8450  164.4700  189.4050 C.3       1 UNL    0.0000
    115 H         157.0670  163.6070  188.7660 H         1 UNL    0.0000
    116 H         156.1930  164.1380  190.2190 H         1 UNL    0.0000
    117 H         157.7730  164.8580  189.8350 H         1 UNL    0.0000
    118 O         152.4180  164.5960  190.7600 O.3       1 UNL    0.0000
    119 C         151.4710  163.6160  190.6950 C.2       1 UNL    0.0000
    120 O         151.5890  162.4750  191.1180 O.2       1 UNL    0.0000
    121 C         150.2470  164.1170  189.9890 C.3       1 UNL    0.0000
    122 H         149.6190  164.6610  190.6970 H         1 UNL    0.0000
    123 H         149.7020  163.2790  189.5490 H         1 UNL    0.0000
    124 H         150.5450  164.7850  189.1770 H         1 UNL    0.0000
    125 O         149.3420  166.2370  192.2230 O.3       1 UNL    0.0000
    126 C         148.7540  165.4540  193.1880 C.2       1 UNL    0.0000
    127 O         148.9530  164.2520  193.3100 O.2       1 UNL    0.0000
    128 C         147.7510  166.2330  194.0580 C.3       1 UNL    0.0000
    129 H         148.2090  167.2150  194.2560 H         1 UNL    0.0000
    130 C         146.4600  166.4530  193.2660 C.3       1 UNL    0.0000
    131 H         146.2960  167.5210  193.1060 H         1 UNL    0.0000
    132 H         146.5610  166.0010  192.2720 H         1 UNL    0.0000
    133 O         145.3390  165.8750  193.9300 O.3       1 UNL    0.0000
    134 C         144.1110  166.3480  193.3940 C.3       1 UNL    0.0000
    135 H         144.1410  166.3100  192.3000 H         1 UNL    0.0000
    136 H         143.3070  165.6960  193.7440 H         1 UNL    0.0000
    137 H         143.9050  167.3710  193.7260 H         1 UNL    0.0000
    138 O         147.3990  165.6160  195.2990 O.3       1 UNL    0.0000
    139 C         148.2500  166.0190  196.3620 C.3       1 UNL    0.0000
    140 H         148.3710  165.1710  197.0430 H         1 UNL    0.0000
    141 H         147.8010  166.8470  196.9200 H         1 UNL    0.0000
    142 H         149.2360  166.3080  195.9890 H         1 UNL    0.0000
    143 O         147.1090  172.1960  191.9870 O.3       1 UNL    0.0000
    144 C         146.3940  173.2650  191.3790 C.3       1 UNL    0.0000
    145 H         147.0780  173.7940  190.7060 H         1 UNL    0.0000
    146 H         146.0130  173.9780  192.1180 H         1 UNL    0.0000
    147 H         145.5710  172.8760  190.7760 H         1 UNL    0.0000
@<TRIPOS>BOND
     1    1    2 1
     2    1    3 1
     3    1   36 1
     4    1   76 1
     5    4    5 1
     6    4   36 1
     7    4   37 1
     8    4   56 1
     9    5    6 1
    10    5   38 1
    11    5   71 1
    12    6    7 1
    13    6   39 1
    14    6   40 1
    15    7    8 2
    16    7   41 1
    17    8    9 1
    18    8   42 1
    19    9   10 ar
    20    9   13 ar
    21   10   11 ar
    22   11   12 ar
    23   11   14 1
    24   12   13 ar
    25   12   43 1
    26   14   15 ar
    27   14   18 ar
    28   15   16 ar
    29   16   17 ar
    30   16   19 1
    31   17   18 ar
    32   17   44 1
    33   19   20 ar
    34   19   23 ar
    35   20   21 ar
    36   21   22 ar
    37   21   24 1
    38   22   23 ar
    39   22   45 1
    40   24   25 1
    41   24   46 1
    42   24   66 1
    43   25   26 1
    44   25   47 1
    45   25   60 1
    46   26   27 2
    47   26   28 2
    48   28   29 2
    49   28   48 1
    50   29   30 1
    51   29   49 1
    52   30   31 1
    53   30   50 1
    54   30   51 1
    55   31   32 1
    56   31   52 1
    57   31   64 1
    58   32   33 1
    59   32   53 1
    60   32   54 1
    61   33   34 2
    62   33   35 1
    63   35   36 1
    64   36   55 1
    65   56   57 1
    66   56   58 1
    67   56   59 1
    68   60   61 1
    69   60   62 1
    70   60   63 1
    71   64   65 1
    72   66   67 1
    73   67   68 1
    74   67   69 1
    75   67   70 1
    76   71   72 1
    77   72   73 1
    78   72   74 1
    79   72   75 1
    80   76   77 1
    81   76   78 1
    82   76  143 1
    83   78   79 1
    84   78   80 1
    85   78   84 1
    86   80   81 1
    87   80   82 1
    88   80   83 1
    89   84   85 1
    90   84   86 1
    91   84   87 1
    92   87   88 1
    93   87   89 1
    94   87   90 1
    95   90   91 1
    96   90   92 1
    97   90  125 1
    98   92   93 1
    99   92   94 1
   100   92   98 1
   101   94   95 1
   102   94   96 1
   103   94   97 1
   104   98   99 1
   105   98  100 1
   106   98  118 1
   107  100  101 1
   108  100  102 1
   109  100  106 1
   110  102  103 1
   111  102  104 1
   112  102  105 1
   113  106  107 2
   114  106  108 1
   115  107  109 1
   116  107  110 1
   117  110  111 am
   118  110  114 1
   119  111  112 2
   120  111  113 1
   121  114  115 1
   122  114  116 1
   123  114  117 1
   124  118  119 1
   125  119  120 2
   126  119  121 1
   127  121  122 1
   128  121  123 1
   129  121  124 1
   130  125  126 1
   131  126  127 2
   132  126  128 1
   133  128  129 1
   134  128  130 1
   135  128  138 1
   136  130  131 1
   137  130  132 1
   138  130  133 1
   139  133  134 1
   140  134  135 1
   141  134  136 1
   142  134  137 1
   143  138  139 1
   144  139  140 1
   145  139  141 1
   146  139  142 1
   147  143  144 1
   148  144  145 1
   149  144  146 1
   150  144  147 1
@<TRIPOS>SUBSTRUCTURE
     1 UNL     1 RESIDUE           4 A     UNL     0 ROOT
########## rating : 0
########## RMSD l.b. : 2.312
########## RMSD u.b. : 4.579
########## Score : -5.9
@<TRIPOS>MOLECULE
Mycalolide_B_conf3_ligand_1_out.pdb
147 150 1 0 0
SMALL
NO_CHARGES


@<TRIPOS>ATOM
      1 C         152.9380  164.8130  188.0480 C.3       1 UNL    0.0000
      2 H         152.2370  163.9730  188.0030 H         1 UNL    0.0000
      3 H         152.4540  165.6830  187.5890 H         1 UNL    0.0000
      4 C         154.5350  162.9450  187.2120 C.3       1 UNL    0.0000
      5 C         154.9980  162.3600  188.5770 C.3       1 UNL    0.0000
      6 C         156.1600  163.1240  189.2640 C.3       1 UNL    0.0000
      7 C         157.2700  163.6090  188.3720 C.2       1 UNL    0.0000
      8 C         158.0770  162.8350  187.6300 C.2       1 UNL    0.0000
      9 C         159.0780  163.4380  186.8170 C.ar      1 UNL    0.0000
     10 N         159.0530  164.6790  186.3420 N.ar      1 UNL    0.0000
     11 C         160.2760  164.8670  185.7500 C.ar      1 UNL    0.0000
     12 C         161.0080  163.7150  185.8250 C.ar      1 UNL    0.0000
     13 O         160.2500  162.7800  186.4610 O.2       1 UNL    0.0000
     14 C         160.7440  166.2150  185.1360 C.ar      1 UNL    0.0000
     15 N         159.9410  167.2600  185.0060 N.ar      1 UNL    0.0000
     16 C         160.7580  168.2560  184.5320 C.ar      1 UNL    0.0000
     17 C         162.0230  167.7690  184.3430 C.ar      1 UNL    0.0000
     18 O         162.0270  166.4540  184.7030 O.2       1 UNL    0.0000
     19 C         160.3000  169.7150  184.2360 C.ar      1 UNL    0.0000
     20 N         159.0400  170.1090  184.3090 N.ar      1 UNL    0.0000
     21 C         159.0570  171.4240  183.8950 C.ar      1 UNL    0.0000
     22 C         160.3560  171.7990  183.6640 C.ar      1 UNL    0.0000
     23 O         161.1590  170.7110  183.8290 O.2       1 UNL    0.0000
     24 C         157.7900  172.2190  183.7560 C.3       1 UNL    0.0000
     25 C         157.1470  172.1400  182.3560 C.3       1 UNL    0.0000
     26 C         156.1980  170.9590  182.2470 C.2       1 UNL    0.0000
     27 O         154.9790  171.1440  182.2190 O.2       1 UNL    0.0000
     28 C         156.7530  169.5760  182.2080 C.2       1 UNL    0.0000
     29 C         155.9380  168.5110  182.2870 C.2       1 UNL    0.0000
     30 C         156.4340  167.0960  182.3960 C.3       1 UNL    0.0000
     31 C         156.1670  166.4900  183.7830 C.3       1 UNL    0.0000
     32 C         154.6850  166.2110  184.0260 C.3       1 UNL    0.0000
     33 C         154.4720  166.0970  185.5080 C.2       1 UNL    0.0000
     34 O         154.6960  167.0170  186.2820 O.2       1 UNL    0.0000
     35 O         154.0480  164.8560  185.8540 O.3       1 UNL    0.0000
     36 C         154.2080  164.4630  187.2430 C.3       1 UNL    0.0000
     37 H         155.3510  162.7930  186.4860 H         1 UNL    0.0000
     38 H         154.1410  162.3560  189.2630 H         1 UNL    0.0000
     39 H         155.7390  164.0000  189.7670 H         1 UNL    0.0000
     40 H         156.6060  162.5150  190.0580 H         1 UNL    0.0000
     41 H         157.3980  164.6940  188.3380 H         1 UNL    0.0000
     42 H         158.0050  161.7550  187.6460 H         1 UNL    0.0000
     43 H         161.9880  163.4020  185.5010 H         1 UNL    0.0000
     44 H         162.9620  168.1830  183.9960 H         1 UNL    0.0000
     45 H         160.8320  172.7160  183.3420 H         1 UNL    0.0000
     46 H         157.0900  171.8180  184.5020 H         1 UNL    0.0000
     47 H         156.5020  173.0240  182.2450 H         1 UNL    0.0000
     48 H         157.8280  169.4570  182.1860 H         1 UNL    0.0000
     49 H         154.8610  168.6640  182.3110 H         1 UNL    0.0000
     50 H         155.9660  166.4820  181.6180 H         1 UNL    0.0000
     51 H         157.5130  167.0520  182.1930 H         1 UNL    0.0000
     52 H         156.5780  167.1550  184.5520 H         1 UNL    0.0000
     53 H         154.0300  167.0230  183.6870 H         1 UNL    0.0000
     54 H         154.3590  165.2890  183.5260 H         1 UNL    0.0000
     55 H         155.0850  164.9810  187.6340 H         1 UNL    0.0000
     56 C         153.3620  162.1290  186.6380 C.3       1 UNL    0.0000
     57 H         153.2030  162.3590  185.5800 H         1 UNL    0.0000
     58 H         152.4340  162.3410  187.1710 H         1 UNL    0.0000
     59 H         153.5530  161.0540  186.7060 H         1 UNL    0.0000
     60 C         158.1130  172.2200  181.1740 C.3       1 UNL    0.0000
     61 H         159.0510  171.6830  181.3560 H         1 UNL    0.0000
     62 H         158.3490  173.2630  180.9360 H         1 UNL    0.0000
     63 H         157.6550  171.7670  180.2850 H         1 UNL    0.0000
     64 O         156.8700  165.2460  183.8750 O.3       1 UNL    0.0000
     65 H         156.6680  164.8730  184.7590 H         1 UNL    0.0000
     66 O         158.0540  173.6020  184.0650 O.3       1 UNL    0.0000
     67 C         156.9390  174.4380  183.7750 C.3       1 UNL    0.0000
     68 H         156.8350  175.2280  184.5250 H         1 UNL    0.0000
     69 H         157.0410  174.8790  182.7780 H         1 UNL    0.0000
     70 H         156.0360  173.8220  183.7910 H         1 UNL    0.0000
     71 O         155.4030  160.9910  188.3580 O.3       1 UNL    0.0000
     72 C         154.6110  160.0600  189.0870 C.3       1 UNL    0.0000
     73 H         153.5940  160.0000  188.6880 H         1 UNL    0.0000
     74 H         154.5580  160.4010  190.1260 H         1 UNL    0.0000
     75 H         155.0790  159.0710  189.0710 H         1 UNL    0.0000
     76 C         153.2020  165.0940  189.5360 C.3       1 UNL    0.0000
     77 H         154.1820  164.6990  189.8210 H         1 UNL    0.0000
     78 C         153.1370  166.6040  189.8950 C.3       1 UNL    0.0000
     79 H         154.1630  166.9710  189.9440 H         1 UNL    0.0000
     80 C         152.4440  167.3600  188.7360 C.3       1 UNL    0.0000
     81 H         151.4050  167.5990  188.9910 H         1 UNL    0.0000
     82 H         152.9430  168.3090  188.5210 H         1 UNL    0.0000
     83 H         152.4390  166.7550  187.8240 H         1 UNL    0.0000
     84 C         152.3860  166.9830  191.1830 C.3       1 UNL    0.0000
     85 H         151.7590  166.1280  191.4810 H         1 UNL    0.0000
     86 H         153.1140  167.0950  192.0040 H         1 UNL    0.0000
     87 C         151.4440  168.1980  191.2030 C.3       1 UNL    0.0000
     88 H         151.8060  168.7950  192.0480 H         1 UNL    0.0000
     89 H         151.6180  168.8230  190.3200 H         1 UNL    0.0000
     90 C         149.9200  167.9960  191.3800 C.3       1 UNL    0.0000
     91 H         149.7490  167.7420  192.4340 H         1 UNL    0.0000
     92 C         149.3890  166.8410  190.4560 C.3       1 UNL    0.0000
     93 H         150.2610  166.2700  190.1130 H         1 UNL    0.0000
     94 C         148.7680  167.3790  189.1520 C.3       1 UNL    0.0000
     95 H         148.0040  168.1300  189.3550 H         1 UNL    0.0000
     96 H         148.3310  166.5750  188.5540 H         1 UNL    0.0000
     97 H         149.5280  167.8800  188.5380 H         1 UNL    0.0000
     98 C         148.3500  165.8660  191.1000 C.3       1 UNL    0.0000
     99 H         147.7520  166.4310  191.8310 H         1 UNL    0.0000
    100 C         147.2980  165.2550  190.1260 C.3       1 UNL    0.0000
    101 H         147.4140  165.6920  189.1320 H         1 UNL    0.0000
    102 C         145.8600  165.5080  190.6020 C.3       1 UNL    0.0000
    103 H         145.8350  166.1660  191.4820 H         1 UNL    0.0000
    104 H         145.2560  165.9840  189.8150 H         1 UNL    0.0000
    105 H         145.3640  164.5750  190.8870 H         1 UNL    0.0000
    106 C         147.4860  163.7520  189.9940 C.2       1 UNL    0.0000
    107 C         146.5260  162.9230  189.5600 C.2       1 UNL    0.0000
    108 H         148.4600  163.3700  190.2930 H         1 UNL    0.0000
    109 H         145.5560  163.3490  189.3050 H         1 UNL    0.0000
    110 N         146.6020  161.5470  189.4150 N.am      1 UNL    0.0000
    111 C         145.5290  160.7060  189.1170 C.2       1 UNL    0.0000
    112 O         144.3530  160.9940  188.9250 O.2       1 UNL    0.0000
    113 H         145.8380  159.6480  189.0650 H         1 UNL    0.0000
    114 C         147.9190  160.9400  189.5950 C.3       1 UNL    0.0000
    115 H         148.3730  160.7770  188.6100 H         1 UNL    0.0000
    116 H         147.8570  159.9760  190.1090 H         1 UNL    0.0000
    117 H         148.5490  161.6130  190.1830 H         1 UNL    0.0000
    118 O         149.0390  164.7840  191.7690 O.3       1 UNL    0.0000
    119 C         149.2130  164.9200  193.1160 C.2       1 UNL    0.0000
    120 O         148.3480  165.2250  193.9240 O.2       1 UNL    0.0000
    121 C         150.6440  164.6750  193.4860 C.3       1 UNL    0.0000
    122 H         150.8740  163.6150  193.3590 H         1 UNL    0.0000
    123 H         150.8220  164.9900  194.5170 H         1 UNL    0.0000
    124 H         151.2930  165.2700  192.8380 H         1 UNL    0.0000
    125 O         149.2390  169.2410  191.0770 O.3       1 UNL    0.0000
    126 C         148.3150  169.6690  192.0020 C.2       1 UNL    0.0000
    127 O         147.8380  168.9540  192.8740 O.2       1 UNL    0.0000
    128 C         147.8780  171.1270  191.7770 C.3       1 UNL    0.0000
    129 H         147.1430  171.3560  192.5650 H         1 UNL    0.0000
    130 C         149.0850  172.0500  191.9600 C.3       1 UNL    0.0000
    131 H         149.9860  171.5700  191.5730 H         1 UNL    0.0000
    132 H         148.9390  172.9620  191.3690 H         1 UNL    0.0000
    133 O         149.2640  172.4040  193.3290 O.3       1 UNL    0.0000
    134 C         148.2250  173.2580  193.7900 C.3       1 UNL    0.0000
    135 H         147.3000  173.0510  193.2410 H         1 UNL    0.0000
    136 H         148.0550  173.0540  194.8500 H         1 UNL    0.0000
    137 H         148.5000  174.3110  193.6720 H         1 UNL    0.0000
    138 O         147.3050  171.4110  190.4980 O.3       1 UNL    0.0000
    139 C         146.8180  172.7430  190.4090 C.3       1 UNL    0.0000
    140 H         145.9110  172.7350  189.7970 H         1 UNL    0.0000
    141 H         147.5550  173.3880  189.9210 H         1 UNL    0.0000
    142 H         146.5680  173.1380  191.3980 H         1 UNL    0.0000
    143 O         152.1440  164.4620  190.2830 O.3       1 UNL    0.0000
    144 C         151.3150  163.6110  189.5010 C.3       1 UNL    0.0000
    145 H         151.9250  163.1860  188.6950 H         1 UNL    0.0000
    146 H         150.4750  164.1530  189.0520 H         1 UNL    0.0000
    147 H         150.9450  162.7820  190.1070 H         1 UNL    0.0000
@<TRIPOS>BOND
     1    1    2 1
     2    1    3 1
     3    1   36 1
     4    1   76 1
     5    4    5 1
     6    4   36 1
     7    4   37 1
     8    4   56 1
     9    5    6 1
    10    5   38 1
    11    5   71 1
    12    6    7 1
    13    6   39 1
    14    6   40 1
    15    7    8 2
    16    7   41 1
    17    8    9 1
    18    8   42 1
    19    9   10 ar
    20    9   13 ar
    21   10   11 ar
    22   11   12 ar
    23   11   14 1
    24   12   13 ar
    25   12   43 1
    26   14   15 ar
    27   14   18 ar
    28   15   16 ar
    29   16   17 ar
    30   16   19 1
    31   17   18 ar
    32   17   44 1
    33   19   20 ar
    34   19   23 ar
    35   20   21 ar
    36   21   22 ar
    37   21   24 1
    38   22   23 ar
    39   22   45 1
    40   24   25 1
    41   24   46 1
    42   24   66 1
    43   25   26 1
    44   25   47 1
    45   25   60 1
    46   26   27 2
    47   26   28 2
    48   28   29 2
    49   28   48 1
    50   29   30 1
    51   29   49 1
    52   30   31 1
    53   30   50 1
    54   30   51 1
    55   31   32 1
    56   31   52 1
    57   31   64 1
    58   32   33 1
    59   32   53 1
    60   32   54 1
    61   33   34 2
    62   33   35 1
    63   35   36 1
    64   36   55 1
    65   56   57 1
    66   56   58 1
    67   56   59 1
    68   60   61 1
    69   60   62 1
    70   60   63 1
    71   64   65 1
    72   66   67 1
    73   67   68 1
    74   67   69 1
    75   67   70 1
    76   71   72 1
    77   72   73 1
    78   72   74 1
    79   72   75 1
    80   76   77 1
    81   76   78 1
    82   76  143 1
    83   78   79 1
    84   78   80 1
    85   78   84 1
    86   80   81 1
    87   80   82 1
    88   80   83 1
    89   84   85 1
    90   84   86 1
    91   84   87 1
    92   87   88 1
    93   87   89 1
    94   87   90 1
    95   90   91 1
    96   90   92 1
    97   90  125 1
    98   92   93 1
    99   92   94 1
   100   92   98 1
   101   94   95 1
   102   94   96 1
   103   94   97 1
   104   98   99 1
   105   98  100 1
   106   98  118 1
   107  100  101 1
   108  100  102 1
   109  100  106 1
   110  102  103 1
   111  102  104 1
   112  102  105 1
   113  106  107 2
   114  106  108 1
   115  107  109 1
   116  107  110 1
   117  110  111 am
   118  110  114 1
   119  111  112 2
   120  111  113 1
   121  114  115 1
   122  114  116 1
   123  114  117 1
   124  118  119 1
   125  119  120 2
   126  119  121 1
   127  121  122 1
   128  121  123 1
   129  121  124 1
   130  125  126 1
   131  126  127 2
   132  126  128 1
   133  128  129 1
   134  128  130 1
   135  128  138 1
   136  130  131 1
   137  130  132 1
   138  130  133 1
   139  133  134 1
   140  134  135 1
   141  134  136 1
   142  134  137 1
   143  138  139 1
   144  139  140 1
   145  139  141 1
   146  139  142 1
   147  143  144 1
   148  144  145 1
   149  144  146 1
   150  144  147 1
@<TRIPOS>SUBSTRUCTURE
     1 UNL     1 RESIDUE           4 A     UNL     0 ROOT
########## rating : 0
########## RMSD l.b. : 2.161
########## RMSD u.b. : 4.316
########## Score : -5.9
@<TRIPOS>MOLECULE
Mycalolide_B_conf3_ligand_1_out.pdb
147 150 1 0 0
SMALL
NO_CHARGES


@<TRIPOS>ATOM
      1 C         153.4550  163.3330  186.0380 C.3       1 UNL    0.0000
      2 H         153.3450  162.2470  185.9500 H         1 UNL    0.0000
      3 H         152.6930  163.8030  185.4060 H         1 UNL    0.0000
      4 C         155.9230  162.6290  185.6470 C.3       1 UNL    0.0000
      5 C         156.3360  162.2840  187.1070 C.3       1 UNL    0.0000
      6 C         156.7600  163.4950  187.9780 C.3       1 UNL    0.0000
      7 C         157.6070  164.5440  187.3090 C.2       1 UNL    0.0000
      8 C         158.8300  164.3540  186.7900 C.2       1 UNL    0.0000
      9 C         159.5090  165.4420  186.1710 C.ar      1 UNL    0.0000
     10 N         158.9360  166.5160  185.6370 N.ar      1 UNL    0.0000
     11 C         159.9700  167.3510  185.3020 C.ar      1 UNL    0.0000
     12 C         161.1630  166.7480  185.5850 C.ar      1 UNL    0.0000
     13 O         160.8950  165.5150  186.0980 O.2       1 UNL    0.0000
     14 C         159.7770  168.7820  184.7280 C.ar      1 UNL    0.0000
     15 N         158.5920  169.2620  184.3820 N.ar      1 UNL    0.0000
     16 C         158.8450  170.5660  184.0350 C.ar      1 UNL    0.0000
     17 C         160.1850  170.8220  184.1360 C.ar      1 UNL    0.0000
     18 O         160.8030  169.6820  184.5570 O.2       1 UNL    0.0000
     19 C         157.7630  171.5880  183.5760 C.ar      1 UNL    0.0000
     20 N         156.4980  171.2620  183.3680 N.ar      1 UNL    0.0000
     21 C         155.9090  172.4160  182.8980 C.ar      1 UNL    0.0000
     22 C         156.8360  173.4280  182.9210 C.ar      1 UNL    0.0000
     23 O         158.0360  172.9090  183.3040 O.2       1 UNL    0.0000
     24 C         154.4730  172.4420  182.4610 C.3       1 UNL    0.0000
     25 C         154.2640  172.1300  180.9650 C.3       1 UNL    0.0000
     26 C         154.1170  170.6380  180.7230 C.2       1 UNL    0.0000
     27 O         153.0160  170.1620  180.4360 O.2       1 UNL    0.0000
     28 C         155.3080  169.7530  180.8710 C.2       1 UNL    0.0000
     29 C         155.1730  168.4170  180.8360 C.2       1 UNL    0.0000
     30 C         156.3010  167.4630  181.1180 C.3       1 UNL    0.0000
     31 C         156.1160  166.7180  182.4490 C.3       1 UNL    0.0000
     32 C         154.9850  165.6930  182.3960 C.3       1 UNL    0.0000
     33 C         154.5690  165.3890  183.8060 C.2       1 UNL    0.0000
     34 O         154.1170  166.2390  184.5610 O.2       1 UNL    0.0000
     35 O         154.7960  164.0900  184.1210 O.3       1 UNL    0.0000
     36 C         154.8520  163.7490  185.5310 C.3       1 UNL    0.0000
     37 H         156.8250  162.9720  185.1140 H         1 UNL    0.0000
     38 H         155.4900  161.7900  187.6000 H         1 UNL    0.0000
     39 H         155.8520  163.9890  188.3370 H         1 UNL    0.0000
     40 H         157.2880  163.1570  188.8770 H         1 UNL    0.0000
     41 H         157.1530  165.5360  187.2470 H         1 UNL    0.0000
     42 H         159.3310  163.3970  186.8480 H         1 UNL    0.0000
     43 H         162.2040  167.0120  185.4870 H         1 UNL    0.0000
     44 H         160.8160  171.6870  183.9690 H         1 UNL    0.0000
     45 H         156.8160  174.4770  182.6580 H         1 UNL    0.0000
     46 H         153.9510  171.6880  183.0660 H         1 UNL    0.0000
     47 H         153.2900  172.5540  180.6780 H         1 UNL    0.0000
     48 H         156.2650  170.2130  181.0770 H         1 UNL    0.0000
     49 H         154.1960  167.9840  180.6300 H         1 UNL    0.0000
     50 H         156.3910  166.7480  180.2920 H         1 UNL    0.0000
     51 H         157.2580  168.0020  181.1440 H         1 UNL    0.0000
     52 H         155.9530  167.4490  183.2510 H         1 UNL    0.0000
     53 H         154.0870  166.0650  181.8880 H         1 UNL    0.0000
     54 H         155.2980  164.7720  181.8870 H         1 UNL    0.0000
     55 H         155.2290  164.6210  186.0680 H         1 UNL    0.0000
     56 C         155.4940  161.3610  184.8860 C.3       1 UNL    0.0000
     57 H         155.9760  161.3080  183.9060 H         1 UNL    0.0000
     58 H         154.4130  161.3380  184.7330 H         1 UNL    0.0000
     59 H         155.7760  160.4550  185.4310 H         1 UNL    0.0000
     60 C         155.2620  172.7780  180.0050 C.3       1 UNL    0.0000
     61 H         154.9380  172.7300  178.9600 H         1 UNL    0.0000
     62 H         156.2450  172.3020  180.0880 H         1 UNL    0.0000
     63 H         155.3810  173.8420  180.2520 H         1 UNL    0.0000
     64 O         157.3290  166.0210  182.7480 O.3       1 UNL    0.0000
     65 H         157.5210  166.1810  183.6960 H         1 UNL    0.0000
     66 O         153.9060  173.7370  182.7460 O.3       1 UNL    0.0000
     67 C         152.6690  173.9400  182.0720 C.3       1 UNL    0.0000
     68 H         152.7810  174.6580  181.2530 H         1 UNL    0.0000
     69 H         152.2840  172.9900  181.6860 H         1 UNL    0.0000
     70 H         151.9480  174.3400  182.7900 H         1 UNL    0.0000
     71 O         157.4310  161.3440  187.0470 O.3       1 UNL    0.0000
     72 C         157.8410  160.8950  188.3330 C.3       1 UNL    0.0000
     73 H         158.9240  160.7510  188.3810 H         1 UNL    0.0000
     74 H         157.3520  159.9350  188.5280 H         1 UNL    0.0000
     75 H         157.5240  161.6080  189.1010 H         1 UNL    0.0000
     76 C         153.1960  163.6870  187.5120 C.3       1 UNL    0.0000
     77 H         153.8210  163.0650  188.1600 H         1 UNL    0.0000
     78 C         153.4590  165.1840  187.8370 C.3       1 UNL    0.0000
     79 H         154.2970  165.5080  187.2180 H         1 UNL    0.0000
     80 C         152.2280  166.0110  187.3950 C.3       1 UNL    0.0000
     81 H         151.2970  165.4880  187.6410 H         1 UNL    0.0000
     82 H         152.1900  166.9780  187.9050 H         1 UNL    0.0000
     83 H         152.2420  166.1870  186.3150 H         1 UNL    0.0000
     84 C         153.7280  165.5400  189.3090 C.3       1 UNL    0.0000
     85 H         153.4600  164.6710  189.9290 H         1 UNL    0.0000
     86 H         154.8140  165.6650  189.4560 H         1 UNL    0.0000
     87 C         153.0120  166.7350  189.9610 C.3       1 UNL    0.0000
     88 H         153.7920  167.2070  190.5690 H         1 UNL    0.0000
     89 H         152.7550  167.4800  189.2000 H         1 UNL    0.0000
     90 C         151.7780  166.5000  190.8660 C.3       1 UNL    0.0000
     91 H         150.8890  166.6810  190.2510 H         1 UNL    0.0000
     92 C         151.7850  167.4720  192.1010 C.3       1 UNL    0.0000
     93 H         152.6580  168.1280  191.9950 H         1 UNL    0.0000
     94 C         152.0460  166.7280  193.4250 C.3       1 UNL    0.0000
     95 H         153.1140  166.6290  193.6240 H         1 UNL    0.0000
     96 H         151.5890  165.7350  193.4230 H         1 UNL    0.0000
     97 H         151.6310  167.2870  194.2730 H         1 UNL    0.0000
     98 C         150.5020  168.3430  192.2990 C.3       1 UNL    0.0000
     99 H         150.4200  168.6020  193.3650 H         1 UNL    0.0000
    100 C         150.4930  169.7160  191.5620 C.3       1 UNL    0.0000
    101 H         150.2000  169.5770  190.5200 H         1 UNL    0.0000
    102 C         151.8720  170.3920  191.5920 C.3       1 UNL    0.0000
    103 H         151.8640  171.2970  192.2150 H         1 UNL    0.0000
    104 H         152.6400  169.7170  191.9970 H         1 UNL    0.0000
    105 H         152.1870  170.6970  190.5900 H         1 UNL    0.0000
    106 C         149.4940  170.6700  192.1990 C.2       1 UNL    0.0000
    107 C         149.1290  171.8340  191.6440 C.2       1 UNL    0.0000
    108 H         149.0930  170.3600  193.1610 H         1 UNL    0.0000
    109 H         149.5850  172.1170  190.6960 H         1 UNL    0.0000
    110 N         148.2370  172.7660  192.1500 N.am      1 UNL    0.0000
    111 C         147.2870  173.4640  191.4030 C.2       1 UNL    0.0000
    112 O         147.0500  173.3980  190.2020 O.2       1 UNL    0.0000
    113 H         146.7020  174.1600  192.0280 H         1 UNL    0.0000
    114 C         148.3110  173.0330  193.5840 C.3       1 UNL    0.0000
    115 H         148.5660  174.0890  193.7370 H         1 UNL    0.0000
    116 H         149.0740  172.4200  194.0750 H         1 UNL    0.0000
    117 H         147.3410  172.8200  194.0420 H         1 UNL    0.0000
    118 O         149.3320  167.5950  191.8900 O.3       1 UNL    0.0000
    119 C         148.4320  167.2970  192.8720 C.2       1 UNL    0.0000
    120 O         147.6900  168.0920  193.4300 O.2       1 UNL    0.0000
    121 C         148.4960  165.8400  193.2140 C.3       1 UNL    0.0000
    122 H         148.0780  165.6830  194.2100 H         1 UNL    0.0000
    123 H         149.5310  165.4910  193.1680 H         1 UNL    0.0000
    124 H         147.9190  165.2700  192.4810 H         1 UNL    0.0000
    125 O         151.7730  165.1180  191.3100 O.3       1 UNL    0.0000
    126 C         150.7770  164.3190  190.7990 C.2       1 UNL    0.0000
    127 O         149.8100  164.7430  190.1780 O.2       1 UNL    0.0000
    128 C         150.9610  162.8340  191.1570 C.3       1 UNL    0.0000
    129 H         150.7810  162.7520  192.2410 H         1 UNL    0.0000
    130 C         149.9010  162.0040  190.4290 C.3       1 UNL    0.0000
    131 H         149.5710  162.5240  189.5280 H         1 UNL    0.0000
    132 H         150.3460  161.0580  190.0970 H         1 UNL    0.0000
    133 O         148.7880  161.7260  191.2740 O.3       1 UNL    0.0000
    134 C         148.1840  160.4810  190.9540 C.3       1 UNL    0.0000
    135 H         148.1160  159.8550  191.8500 H         1 UNL    0.0000
    136 H         147.1720  160.6720  190.5850 H         1 UNL    0.0000
    137 H         148.7490  159.9580  190.1760 H         1 UNL    0.0000
    138 O         152.2400  162.2760  190.8450 O.3       1 UNL    0.0000
    139 C         152.1610  160.8940  190.5250 C.3       1 UNL    0.0000
    140 H         151.3560  160.7570  189.7970 H         1 UNL    0.0000
    141 H         151.9200  160.3070  191.4170 H         1 UNL    0.0000
    142 H         153.0960  160.5390  190.0820 H         1 UNL    0.0000
    143 O         151.7950  163.4670  187.7630 O.3       1 UNL    0.0000
    144 C         151.2400  162.3840  187.0270 C.3       1 UNL    0.0000
    145 H         152.0440  161.6720  186.8080 H         1 UNL    0.0000
    146 H         150.8010  162.7130  186.0780 H         1 UNL    0.0000
    147 H         150.4910  161.8630  187.6250 H         1 UNL    0.0000
@<TRIPOS>BOND
     1    1    2 1
     2    1    3 1
     3    1   36 1
     4    1   76 1
     5    4    5 1
     6    4   36 1
     7    4   37 1
     8    4   56 1
     9    5    6 1
    10    5   38 1
    11    5   71 1
    12    6    7 1
    13    6   39 1
    14    6   40 1
    15    7    8 2
    16    7   41 1
    17    8    9 1
    18    8   42 1
    19    9   10 ar
    20    9   13 ar
    21   10   11 ar
    22   11   12 ar
    23   11   14 1
    24   12   13 ar
    25   12   43 1
    26   14   15 ar
    27   14   18 ar
    28   15   16 ar
    29   16   17 ar
    30   16   19 1
    31   17   18 ar
    32   17   44 1
    33   19   20 ar
    34   19   23 ar
    35   20   21 ar
    36   21   22 ar
    37   21   24 1
    38   22   23 ar
    39   22   45 1
    40   24   25 1
    41   24   46 1
    42   24   66 1
    43   25   26 1
    44   25   47 1
    45   25   60 1
    46   26   27 2
    47   26   28 2
    48   28   29 2
    49   28   48 1
    50   29   30 1
    51   29   49 1
    52   30   31 1
    53   30   50 1
    54   30   51 1
    55   31   32 1
    56   31   52 1
    57   31   64 1
    58   32   33 1
    59   32   53 1
    60   32   54 1
    61   33   34 2
    62   33   35 1
    63   35   36 1
    64   36   55 1
    65   56   57 1
    66   56   58 1
    67   56   59 1
    68   60   61 1
    69   60   62 1
    70   60   63 1
    71   64   65 1
    72   66   67 1
    73   67   68 1
    74   67   69 1
    75   67   70 1
    76   71   72 1
    77   72   73 1
    78   72   74 1
    79   72   75 1
    80   76   77 1
    81   76   78 1
    82   76  143 1
    83   78   79 1
    84   78   80 1
    85   78   84 1
    86   80   81 1
    87   80   82 1
    88   80   83 1
    89   84   85 1
    90   84   86 1
    91   84   87 1
    92   87   88 1
    93   87   89 1
    94   87   90 1
    95   90   91 1
    96   90   92 1
    97   90  125 1
    98   92   93 1
    99   92   94 1
   100   92   98 1
   101   94   95 1
   102   94   96 1
   103   94   97 1
   104   98   99 1
   105   98  100 1
   106   98  118 1
   107  100  101 1
   108  100  102 1
   109  100  106 1
   110  102  103 1
   111  102  104 1
   112  102  105 1
   113  106  107 2
   114  106  108 1
   115  107  109 1
   116  107  110 1
   117  110  111 am
   118  110  114 1
   119  111  112 2
   120  111  113 1
   121  114  115 1
   122  114  116 1
   123  114  117 1
   124  118  119 1
   125  119  120 2
   126  119  121 1
   127  121  122 1
   128  121  123 1
   129  121  124 1
   130  125  126 1
   131  126  127 2
   132  126  128 1
   133  128  129 1
   134  128  130 1
   135  128  138 1
   136  130  131 1
   137  130  132 1
   138  130  133 1
   139  133  134 1
   140  134  135 1
   141  134  136 1
   142  134  137 1
   143  138  139 1
   144  139  140 1
   145  139  141 1
   146  139  142 1
   147  143  144 1
   148  144  145 1
   149  144  146 1
   150  144  147 1
@<TRIPOS>SUBSTRUCTURE
     1 UNL     1 RESIDUE           4 A     UNL     0 ROOT
