MODEL 1
REMARK VINA RESULT:      -6.3      0.000      0.000
REMARK  Name = Phalloidin_conf1
REMARK  12 active torsions:
REMARK  status: ('A' for Active; 'I' for Inactive)
REMARK    1  A    between atoms: CB_1  and  CA_2
REMARK    2  A    between atoms: CG_24  and  OD_30
REMARK    3  A    between atoms: CA_34  and  CB_53
REMARK    4  A    between atoms: CA_38  and  CB_52
REMARK    5  A    between atoms: C_42  and  C_46
REMARK    6  A    between atoms: C_46  and  C_47
REMARK    7  A    between atoms: C_47  and  C_48
REMARK    8  A    between atoms: C_47  and  C_49
REMARK    9  A    between atoms: C_47  and  O_51
REMARK   10  A    between atoms: C_49  and  O_50
REMARK   11  A    between atoms: CB_53  and  CG2_54
REMARK   12  A    between atoms: CB_53  and  OG1_55
REMARK                            x       y       z     vdW  Elec       q    Type
REMARK                         _______ _______ _______ _____ _____    ______ ____
ROOT
ATOM      1  CA  ALA A   7     150.994 163.481 186.563  0.00  0.00    +0.097 C 
ATOM      2  C   ALA A   7     149.452 163.450 186.547  0.00  0.00    +0.234 C 
ATOM      3  O   ALA A   7     148.817 162.833 185.690  0.00  0.00    -0.274 OA
ATOM      4  N   UNK A   1     148.845 164.056 187.623  0.00  0.00    -0.302 N 
ATOM      5  C   UNK A   1     147.412 163.944 187.898  0.00  0.00    +0.103 C 
ATOM      6  C   UNK A   1     147.125 163.750 189.398  0.00  0.00    +0.002 C 
ATOM      7  C   UNK A   1     148.104 162.874 190.135  0.00  0.00    -0.006 A 
ATOM      8  C   UNK A   5     148.822 163.215 191.264  0.00  0.00    +0.078 A 
ATOM      9  N   UNK A   5     149.554 162.134 191.663  0.00  0.00    -0.349 N 
ATOM     10  C   UNK A   5     149.400 161.101 190.774  0.00  0.00    +0.048 A 
ATOM     11  C   UNK A   5     149.987 159.830 190.759  0.00  0.00    -0.038 A 
ATOM     12  C   UNK A   5     149.628 158.961 189.724  0.00  0.00    -0.060 A 
ATOM     13  C   UNK A   5     148.709 159.347 188.754  0.00  0.00    -0.061 A 
ATOM     14  C   UNK A   5     148.121 160.618 188.792  0.00  0.00    -0.052 A 
ATOM     15  C   UNK A   5     148.476 161.523 189.814  0.00  0.00    +0.004 A 
ATOM     16  S   UNK A   5     148.852 164.661 192.218  0.00  0.00    -0.105 S 
ATOM     17  C   UNK A   5     150.604 165.162 192.130  0.00  0.00    +0.027 C 
ATOM     18  C   UNK A   5     150.864 166.533 191.497  0.00  0.00    +0.109 C 
ATOM     19  C   UNK A   5     150.769 166.484 189.954  0.00  0.00    +0.237 C 
ATOM     20  O   UNK A   5     149.685 166.406 189.364  0.00  0.00    -0.274 OA
ATOM     21  N   HYP A   6     151.946 166.590 189.241  0.00  0.00    -0.286 N 
ATOM     22  CD  HYP A   6     153.305 166.611 189.771  0.00  0.00    +0.042 C 
ATOM     23  CG  HYP A   6     154.189 166.540 188.529  0.00  0.00    +0.073 C 
ATOM     24  CB  HYP A   6     153.389 167.330 187.498  0.00  0.00    +0.002 C 
ATOM     25  CA  HYP A   6     151.931 166.981 187.826  0.00  0.00    +0.105 C 
ATOM     26  C   HYP A   6     151.407 165.901 186.871  0.00  0.00    +0.234 C 
ATOM     27  O   HYP A   6     151.018 166.171 185.738  0.00  0.00    -0.274 OA
ATOM     28  N   ALA A   7     151.487 164.612 187.341  0.00  0.00    -0.303 N 
ATOM     29  N   UNK A   5     149.967 167.595 191.929  0.00  0.00    -0.302 N 
ATOM     30  C   THR A   4     150.312 168.918 191.746  0.00  0.00    +0.237 C 
ATOM     31  O   THR A   4     151.466 169.251 191.476  0.00  0.00    -0.274 OA
ATOM     32  CA  THR A   4     149.154 169.924 191.925  0.00  0.00    +0.125 C 
ATOM     33  N   THR A   4     148.094 169.608 190.956  0.00  0.00    -0.300 N 
ATOM     34  C   ALA A   3     147.150 168.631 191.173  0.00  0.00    +0.234 C 
ATOM     35  O   ALA A   3     147.182 167.927 192.179  0.00  0.00    -0.274 OA
ATOM     36  CA  ALA A   3     146.105 168.503 190.055  0.00  0.00    +0.097 C 
ATOM     37  N   ALA A   3     146.750 168.018 188.839  0.00  0.00    -0.303 N 
ATOM     38  C   UNK A   2     146.197 168.262 187.595  0.00  0.00    +0.234 C 
ATOM     39  O   UNK A   2     145.349 169.139 187.433  0.00  0.00    -0.274 OA
ATOM     40  C   UNK A   2     146.838 167.467 186.422  0.00  0.00    +0.102 C 
ATOM     41  N   UNK A   2     147.382 166.197 186.895  0.00  0.00    -0.302 N 
ATOM     42  C   UNK A   1     146.620 165.178 187.422  0.00  0.00    +0.234 C 
ATOM     43  O   UNK A   1     145.401 165.259 187.564  0.00  0.00    -0.274 OA
ATOM     44  HA  ALA A   7     151.335 163.598 185.527  0.00  0.00    +0.059 HD
ATOM     45  H   UNK A   1     149.401 164.646 188.238  0.00  0.00    +0.150 HD
ATOM     46  H   UNK A   1     147.018 163.091 187.334  0.00  0.00    +0.060 HD
ATOM     47  H   UNK A   1     147.087 164.735 189.882  0.00  0.00    +0.034 HD
ATOM     48  H   UNK A   1     146.117 163.327 189.522  0.00  0.00    +0.034 HD
ATOM     49  H   UNK A   5     150.114 162.096 192.502  0.00  0.00    +0.166 HD
ATOM     50  H   UNK A   5     150.695 159.521 191.520  0.00  0.00    +0.064 HD
ATOM     51  H   UNK A   5     150.068 157.968 189.682  0.00  0.00    +0.062 HD
ATOM     52  H   UNK A   5     148.439 158.657 187.959  0.00  0.00    +0.062 HD
ATOM     53  H   UNK A   5     147.404 160.894 188.025  0.00  0.00    +0.062 HD
ATOM     54  H   UNK A   5     150.948 165.192 193.170  0.00  0.00    +0.040 HD
ATOM     55  H   UNK A   5     151.202 164.398 191.621  0.00  0.00    +0.040 HD
ATOM     56  H   UNK A   5     151.872 166.836 191.793  0.00  0.00    +0.060 HD
ATOM     57  HD1 HYP A   6     153.447 165.772 190.460  0.00  0.00    +0.049 HD
ATOM     58  HD2 HYP A   6     153.443 167.559 190.299  0.00  0.00    +0.049 HD
ATOM     59  HG  HYP A   6     155.190 166.946 188.706  0.00  0.00    +0.061 HD
ATOM     60  HB1 HYP A   6     153.549 168.404 187.659  0.00  0.00    +0.031 HD
ATOM     61  HB2 HYP A   6     153.665 167.086 186.468  0.00  0.00    +0.031 HD
ATOM     62  HA  HYP A   6     151.274 167.853 187.710  0.00  0.00    +0.060 HD
ATOM     63  H   ALA A   7     151.977 164.451 188.217  0.00  0.00    +0.149 HD
ATOM     64  H   UNK A   5     148.989 167.363 192.127  0.00  0.00    +0.150 HD
ATOM     65  HA  THR A   4     148.735 169.799 192.932  0.00  0.00    +0.062 HD
ATOM     66  H   THR A   4     148.043 170.156 190.102  0.00  0.00    +0.150 HD
ATOM     67  HA  ALA A   3     145.693 169.502 189.867  0.00  0.00    +0.059 HD
ATOM     68  H   ALA A   3     147.505 167.340 188.903  0.00  0.00    +0.149 HD
ATOM     69  H   UNK A   2     147.708 168.061 186.120  0.00  0.00    +0.060 HD
ATOM     70  H   UNK A   2     148.313 165.944 186.571  0.00  0.00    +0.150 HD
ENDROOT
BRANCH   1  71
ATOM     71  CB  ALA A   7     151.511 162.176 187.154  0.00  0.00    -0.038 C 
ATOM     72  HB1 ALA A   7     151.411 162.167 188.244  0.00  0.00    +0.025 HD
ATOM     73  HB2 ALA A   7     150.962 161.321 186.748  0.00  0.00    +0.025 HD
ATOM     74  HB3 ALA A   7     152.569 162.034 186.911  0.00  0.00    +0.025 HD
ENDBRANCH   1  71
BRANCH  36  75
ATOM     75  CB  ALA A   3     144.972 167.570 190.467  0.00  0.00    -0.038 C 
ATOM     76  HB1 ALA A   3     145.254 166.972 191.340  0.00  0.00    +0.025 HD
ATOM     77  HB2 ALA A   3     144.070 168.133 190.730  0.00  0.00    +0.025 HD
ATOM     78  HB3 ALA A   3     144.713 166.884 189.654  0.00  0.00    +0.025 HD
ENDBRANCH  36  75
BRANCH  40  79
ATOM     79  C   UNK A   2     145.861 167.352 185.240  0.00  0.00    +0.005 C 
ATOM     80  H   UNK A   2     145.404 168.344 185.111  0.00  0.00    +0.032 HD
ATOM     81  H   UNK A   2     145.031 166.681 185.495  0.00  0.00    +0.032 HD
BRANCH  79  82
ATOM     82  C   UNK A   2     146.446 166.950 183.870  0.00  0.00    +0.088 C 
BRANCH  82  83
ATOM     83  C   UNK A   2     145.837 167.856 182.791  0.00  0.00    -0.034 C 
ATOM     84  H   UNK A   2     144.747 167.914 182.894  0.00  0.00    +0.026 HD
ATOM     85  H   UNK A   2     146.205 168.883 182.891  0.00  0.00    +0.026 HD
ATOM     86  H   UNK A   2     146.074 167.499 181.784  0.00  0.00    +0.026 HD
ENDBRANCH  82  83
BRANCH  82  87
ATOM     87  C   UNK A   2     146.191 165.479 183.480  0.00  0.00    +0.073 C 
ATOM     88  H   UNK A   2     145.190 165.149 183.778  0.00  0.00    +0.059 HD
ATOM     89  H   UNK A   2     146.296 165.338 182.398  0.00  0.00    +0.059 HD
BRANCH  87  90
ATOM     90  O   UNK A   2     147.174 164.643 184.087  0.00  0.00    -0.392 OA
ATOM     91  H   UNK A   2     146.777 164.324 184.925  0.00  0.00    +0.210 HD
ENDBRANCH  87  90
ENDBRANCH  82  87
BRANCH  82  92
ATOM     92  O   UNK A   2     147.863 167.187 183.873  0.00  0.00    -0.387 OA
ATOM     93  H   UNK A   2     148.195 166.767 183.048  0.00  0.00    +0.210 HD
ENDBRANCH  82  92
ENDBRANCH  79  82
ENDBRANCH  40  79
BRANCH  23  94
ATOM     94  OD  HYP A   6     154.321 165.178 188.123  0.00  0.00    -0.390 OA
ATOM     95  HD  HYP A   6     154.209 164.623 188.918  0.00  0.00    +0.210 HD
ENDBRANCH  23  94
BRANCH  32  96
ATOM     96  CB  THR A   4     149.641 171.377 191.730  0.00  0.00    +0.079 C 
ATOM     97  HB  THR A   4     150.637 171.386 191.267  0.00  0.00    +0.061 HD
BRANCH  96  98
ATOM     98  CG2 THR A   4     149.684 172.161 193.038  0.00  0.00    -0.037 C 
ATOM     99 HG21 THR A   4     149.765 171.473 193.886  0.00  0.00    +0.026 HD
ATOM    100 HG22 THR A   4     148.790 172.776 193.175  0.00  0.00    +0.026 HD
ATOM    101 HG23 THR A   4     150.565 172.810 193.077  0.00  0.00    +0.026 HD
ENDBRANCH  96  98
BRANCH  96 102
ATOM    102  OG1 THR A   4     148.775 172.076 190.821  0.00  0.00    -0.390 OA
ATOM    103  HG1 THR A   4     148.592 171.487 190.067  0.00  0.00    +0.210 HD
ENDBRANCH  96 102
ENDBRANCH  32  96
TORSDOF 12
ENDMDL
MODEL 2
REMARK VINA RESULT:      -6.3      2.882      7.467
REMARK  Name = Phalloidin_conf1
REMARK  12 active torsions:
REMARK  status: ('A' for Active; 'I' for Inactive)
REMARK    1  A    between atoms: CB_1  and  CA_2
REMARK    2  A    between atoms: CG_24  and  OD_30
REMARK    3  A    between atoms: CA_34  and  CB_53
REMARK    4  A    between atoms: CA_38  and  CB_52
REMARK    5  A    between atoms: C_42  and  C_46
REMARK    6  A    between atoms: C_46  and  C_47
REMARK    7  A    between atoms: C_47  and  C_48
REMARK    8  A    between atoms: C_47  and  C_49
REMARK    9  A    between atoms: C_47  and  O_51
REMARK   10  A    between atoms: C_49  and  O_50
REMARK   11  A    between atoms: CB_53  and  CG2_54
REMARK   12  A    between atoms: CB_53  and  OG1_55
REMARK                            x       y       z     vdW  Elec       q    Type
REMARK                         _______ _______ _______ _____ _____    ______ ____
ROOT
ATOM      1  CA  ALA A   7     151.272 162.722 189.734  0.00  0.00    +0.097 C 
ATOM      2  C   ALA A   7     151.142 164.217 190.093  0.00  0.00    +0.234 C 
ATOM      3  O   ALA A   7     151.956 164.790 190.818  0.00  0.00    -0.274 OA
ATOM      4  N   UNK A   1     150.127 164.885 189.448  0.00  0.00    -0.302 N 
ATOM      5  C   UNK A   1     149.978 166.340 189.488  0.00  0.00    +0.103 C 
ATOM      6  C   UNK A   1     149.584 166.919 188.117  0.00  0.00    +0.002 C 
ATOM      7  C   UNK A   1     150.233 166.261 186.928  0.00  0.00    -0.006 A 
ATOM      8  C   UNK A   5     149.585 165.705 185.842  0.00  0.00    +0.078 A 
ATOM      9  N   UNK A   5     150.519 165.262 184.950  0.00  0.00    -0.349 N 
ATOM     10  C   UNK A   5     151.782 165.441 185.458  0.00  0.00    +0.048 A 
ATOM     11  C   UNK A   5     153.026 165.099 184.915  0.00  0.00    -0.038 A 
ATOM     12  C   UNK A   5     154.167 165.420 185.657  0.00  0.00    -0.060 A 
ATOM     13  C   UNK A   5     154.063 166.068 186.883  0.00  0.00    -0.061 A 
ATOM     14  C   UNK A   5     152.810 166.414 187.405  0.00  0.00    -0.052 A 
ATOM     15  C   UNK A   5     151.639 166.088 186.688  0.00  0.00    +0.004 A 
ATOM     16  S   UNK A   5     147.904 165.584 185.442  0.00  0.00    -0.105 S 
ATOM     17  C   UNK A   5     147.658 163.782 185.286  0.00  0.00    +0.027 C 
ATOM     18  C   UNK A   5     146.645 163.171 186.260  0.00  0.00    +0.109 C 
ATOM     19  C   UNK A   5     147.239 162.998 187.678  0.00  0.00    +0.237 C 
ATOM     20  O   UNK A   5     147.409 163.957 188.441  0.00  0.00    -0.274 OA
ATOM     21  N   HYP A   6     147.525 161.714 188.095  0.00  0.00    -0.286 N 
ATOM     22  CD  HYP A   6     147.458 160.490 187.305  0.00  0.00    +0.042 C 
ATOM     23  CG  HYP A   6     148.068 159.427 188.215  0.00  0.00    +0.073 C 
ATOM     24  CB  HYP A   6     147.624 159.876 189.604  0.00  0.00    +0.002 C 
ATOM     25  CA  HYP A   6     147.673 161.407 189.523  0.00  0.00    +0.105 C 
ATOM     26  C   HYP A   6     148.964 161.940 190.159  0.00  0.00    +0.234 C 
ATOM     27  O   HYP A   6     149.082 162.067 191.375  0.00  0.00    -0.274 OA
ATOM     28  N   ALA A   7     149.995 162.178 189.284  0.00  0.00    -0.303 N 
ATOM     29  N   UNK A   5     145.410 163.924 186.422  0.00  0.00    -0.302 N 
ATOM     30  C   THR A   4     144.287 163.319 186.950  0.00  0.00    +0.237 C 
ATOM     31  O   THR A   4     144.200 162.095 187.042  0.00  0.00    -0.274 OA
ATOM     32  CA  THR A   4     143.168 164.289 187.385  0.00  0.00    +0.125 C 
ATOM     33  N   THR A   4     143.699 165.200 188.410  0.00  0.00    -0.300 N 
ATOM     34  C   ALA A   3     144.424 166.328 188.105  0.00  0.00    +0.234 C 
ATOM     35  O   ALA A   3     144.715 166.602 186.943  0.00  0.00    -0.274 OA
ATOM     36  CA  ALA A   3     144.836 167.164 189.325  0.00  0.00    +0.097 C 
ATOM     37  N   ALA A   3     145.794 166.412 190.129  0.00  0.00    -0.303 N 
ATOM     38  C   UNK A   2     145.960 166.682 191.475  0.00  0.00    +0.234 C 
ATOM     39  O   UNK A   2     145.116 167.316 192.109  0.00  0.00    -0.274 OA
ATOM     40  C   UNK A   2     147.189 165.998 192.138  0.00  0.00    +0.102 C 
ATOM     41  N   UNK A   2     148.252 165.785 191.159  0.00  0.00    -0.302 N 
ATOM     42  C   UNK A   1     148.923 166.799 190.515  0.00  0.00    +0.234 C 
ATOM     43  O   UNK A   1     148.667 167.989 190.691  0.00  0.00    -0.274 OA
ATOM     44  HA  ALA A   7     151.575 162.187 190.642  0.00  0.00    +0.059 HD
ATOM     45  H   UNK A   1     149.417 164.350 188.953  0.00  0.00    +0.150 HD
ATOM     46  H   UNK A   1     150.930 166.776 189.812  0.00  0.00    +0.060 HD
ATOM     47  H   UNK A   1     148.493 166.863 188.009  0.00  0.00    +0.034 HD
ATOM     48  H   UNK A   1     149.823 167.993 188.095  0.00  0.00    +0.034 HD
ATOM     49  H   UNK A   5     150.310 164.876 184.042  0.00  0.00    +0.166 HD
ATOM     50  H   UNK A   5     153.113 164.605 183.954  0.00  0.00    +0.064 HD
ATOM     51  H   UNK A   5     155.149 165.166 185.264  0.00  0.00    +0.062 HD
ATOM     52  H   UNK A   5     154.961 166.313 187.445  0.00  0.00    +0.062 HD
ATOM     53  H   UNK A   5     152.756 166.922 188.363  0.00  0.00    +0.062 HD
ATOM     54  H   UNK A   5     147.290 163.629 184.265  0.00  0.00    +0.040 HD
ATOM     55  H   UNK A   5     148.614 163.252 185.362  0.00  0.00    +0.040 HD
ATOM     56  H   UNK A   5     146.365 162.194 185.858  0.00  0.00    +0.060 HD
ATOM     57  HD1 HYP A   6     148.000 160.626 186.364  0.00  0.00    +0.049 HD
ATOM     58  HD2 HYP A   6     146.404 160.278 187.104  0.00  0.00    +0.049 HD
ATOM     59  HG  HYP A   6     147.734 158.416 187.958  0.00  0.00    +0.061 HD
ATOM     60  HB1 HYP A   6     146.589 159.556 189.776  0.00  0.00    +0.031 HD
ATOM     61  HB2 HYP A   6     148.252 159.470 190.402  0.00  0.00    +0.031 HD
ATOM     62  HA  HYP A   6     146.838 161.865 190.069  0.00  0.00    +0.060 HD
ATOM     63  H   ALA A   7     149.879 161.889 188.316  0.00  0.00    +0.149 HD
ATOM     64  H   UNK A   5     145.448 164.947 186.389  0.00  0.00    +0.150 HD
ATOM     65  HA  THR A   4     142.874 164.895 186.518  0.00  0.00    +0.062 HD
ATOM     66  H   THR A   4     143.495 164.999 189.385  0.00  0.00    +0.150 HD
ATOM     67  HA  ALA A   3     143.936 167.349 189.923  0.00  0.00    +0.059 HD
ATOM     68  H   ALA A   3     146.479 165.815 189.673  0.00  0.00    +0.149 HD
ATOM     69  H   UNK A   2     146.841 164.995 192.412  0.00  0.00    +0.060 HD
ATOM     70  H   UNK A   2     148.702 164.872 191.159  0.00  0.00    +0.150 HD
ENDROOT
BRANCH   1  71
ATOM     71  CB  ALA A   7     152.322 162.563 188.642  0.00  0.00    -0.038 C 
ATOM     72  HB1 ALA A   7     151.857 162.354 187.673  0.00  0.00    +0.025 HD
ATOM     73  HB2 ALA A   7     152.927 163.469 188.549  0.00  0.00    +0.025 HD
ATOM     74  HB3 ALA A   7     153.000 161.735 188.875  0.00  0.00    +0.025 HD
ENDBRANCH   1  71
BRANCH  36  75
ATOM     75  CB  ALA A   3     145.430 168.501 188.899  0.00  0.00    -0.038 C 
ATOM     76  HB1 ALA A   3     144.646 169.254 188.765  0.00  0.00    +0.025 HD
ATOM     77  HB2 ALA A   3     146.130 168.883 189.651  0.00  0.00    +0.025 HD
ATOM     78  HB3 ALA A   3     145.975 168.406 187.954  0.00  0.00    +0.025 HD
ENDBRANCH  36  75
BRANCH  40  79
ATOM     79  C   UNK A   2     147.619 166.754 193.405  0.00  0.00    +0.005 C 
ATOM     80  H   UNK A   2     146.737 166.799 194.061  0.00  0.00    +0.032 HD
ATOM     81  H   UNK A   2     147.856 167.798 193.165  0.00  0.00    +0.032 HD
BRANCH  79  82
ATOM     82  C   UNK A   2     148.765 166.146 194.243  0.00  0.00    +0.088 C 
BRANCH  82  83
ATOM     83  C   UNK A   2     148.366 166.191 195.725  0.00  0.00    -0.034 C 
ATOM     84  H   UNK A   2     148.289 165.181 196.144  0.00  0.00    +0.026 HD
ATOM     85  H   UNK A   2     149.128 166.707 196.318  0.00  0.00    +0.026 HD
ATOM     86  H   UNK A   2     147.408 166.702 195.868  0.00  0.00    +0.026 HD
ENDBRANCH  82  83
BRANCH  82  87
ATOM     87  C   UNK A   2     150.121 166.862 194.075  0.00  0.00    +0.073 C 
ATOM     88  H   UNK A   2     149.993 167.905 193.767  0.00  0.00    +0.059 HD
ATOM     89  H   UNK A   2     150.690 166.843 195.011  0.00  0.00    +0.059 HD
BRANCH  87  90
ATOM     90  O   UNK A   2     150.914 166.170 193.113  0.00  0.00    -0.392 OA
ATOM     91  H   UNK A   2     150.632 166.507 192.237  0.00  0.00    +0.210 HD
ENDBRANCH  87  90
ENDBRANCH  82  87
BRANCH  82  92
ATOM     92  O   UNK A   2     148.926 164.763 193.889  0.00  0.00    -0.387 OA
ATOM     93  H   UNK A   2     149.729 164.735 193.323  0.00  0.00    +0.210 HD
ENDBRANCH  82  92
ENDBRANCH  79  82
ENDBRANCH  40  79
BRANCH  23  94
ATOM     94  OD  HYP A   6     149.490 159.473 188.105  0.00  0.00    -0.390 OA
ATOM     95  HD  HYP A   6     149.765 160.399 188.248  0.00  0.00    +0.210 HD
ENDBRANCH  23  94
BRANCH  32  96
ATOM     96  CB  THR A   4     141.945 163.521 187.933  0.00  0.00    +0.079 C 
ATOM     97  HB  THR A   4     141.830 162.564 187.407  0.00  0.00    +0.061 HD
BRANCH  96  98
ATOM     98  CG2 THR A   4     140.651 164.320 187.818  0.00  0.00    -0.037 C 
ATOM     99 HG21 THR A   4     140.568 165.023 188.654  0.00  0.00    +0.026 HD
ATOM    100 HG22 THR A   4     139.769 163.673 187.821  0.00  0.00    +0.026 HD
ATOM    101 HG23 THR A   4     140.641 164.921 186.903  0.00  0.00    +0.026 HD
ENDBRANCH  96  98
BRANCH  96 102
ATOM    102  OG1 THR A   4     142.143 163.191 189.318  0.00  0.00    -0.390 OA
ATOM    103  HG1 THR A   4     141.302 162.844 189.667  0.00  0.00    +0.210 HD
ENDBRANCH  96 102
ENDBRANCH  32  96
TORSDOF 12
ENDMDL
MODEL 3
REMARK VINA RESULT:      -6.2     17.708     21.154
REMARK  Name = Phalloidin_conf1
REMARK  12 active torsions:
REMARK  status: ('A' for Active; 'I' for Inactive)
REMARK    1  A    between atoms: CB_1  and  CA_2
REMARK    2  A    between atoms: CG_24  and  OD_30
REMARK    3  A    between atoms: CA_34  and  CB_53
REMARK    4  A    between atoms: CA_38  and  CB_52
REMARK    5  A    between atoms: C_42  and  C_46
REMARK    6  A    between atoms: C_46  and  C_47
REMARK    7  A    between atoms: C_47  and  C_48
REMARK    8  A    between atoms: C_47  and  C_49
REMARK    9  A    between atoms: C_47  and  O_51
REMARK   10  A    between atoms: C_49  and  O_50
REMARK   11  A    between atoms: CB_53  and  CG2_54
REMARK   12  A    between atoms: CB_53  and  OG1_55
REMARK                            x       y       z     vdW  Elec       q    Type
REMARK                         _______ _______ _______ _____ _____    ______ ____
ROOT
ATOM      1  CA  ALA A   7     130.109 158.523 196.303  0.00  0.00    +0.097 C 
ATOM      2  C   ALA A   7     130.527 158.249 197.762  0.00  0.00    +0.234 C 
ATOM      3  O   ALA A   7     129.987 158.812 198.716  0.00  0.00    -0.274 OA
ATOM      4  N   UNK A   1     131.455 157.246 197.924  0.00  0.00    -0.302 N 
ATOM      5  C   UNK A   1     131.813 156.694 199.231  0.00  0.00    +0.103 C 
ATOM      6  C   UNK A   1     131.966 155.163 199.191  0.00  0.00    +0.002 C 
ATOM      7  C   UNK A   1     130.979 154.439 198.313  0.00  0.00    -0.006 A 
ATOM      8  C   UNK A   5     131.280 153.568 197.284  0.00  0.00    +0.078 A 
ATOM      9  N   UNK A   5     130.115 153.075 196.769  0.00  0.00    -0.349 N 
ATOM     10  C   UNK A   5     129.038 153.663 197.384  0.00  0.00    +0.048 A 
ATOM     11  C   UNK A   5     127.668 153.496 197.152  0.00  0.00    -0.038 A 
ATOM     12  C   UNK A   5     126.781 154.223 197.952  0.00  0.00    -0.060 A 
ATOM     13  C   UNK A   5     127.250 155.070 198.951  0.00  0.00    -0.061 A 
ATOM     14  C   UNK A   5     128.625 155.214 199.178  0.00  0.00    -0.052 A 
ATOM     15  C   UNK A   5     129.545 154.507 198.376  0.00  0.00    +0.004 A 
ATOM     16  S   UNK A   5     132.792 152.990 196.669  0.00  0.00    -0.105 S 
ATOM     17  C   UNK A   5     132.738 153.509 194.920  0.00  0.00    +0.027 C 
ATOM     18  C   UNK A   5     133.848 154.474 194.487  0.00  0.00    +0.109 C 
ATOM     19  C   UNK A   5     133.571 155.921 194.957  0.00  0.00    +0.237 C 
ATOM     20  O   UNK A   5     133.715 156.269 196.135  0.00  0.00    -0.274 OA
ATOM     21  N   HYP A   6     133.207 156.842 193.997  0.00  0.00    -0.286 N 
ATOM     22  CD  HYP A   6     132.919 156.589 192.589  0.00  0.00    +0.042 C 
ATOM     23  CG  HYP A   6     132.386 157.924 192.074  0.00  0.00    +0.073 C 
ATOM     24  CB  HYP A   6     133.191 158.942 192.875  0.00  0.00    +0.002 C 
ATOM     25  CA  HYP A   6     133.343 158.282 194.252  0.00  0.00    +0.105 C 
ATOM     26  C   HYP A   6     132.318 158.854 195.240  0.00  0.00    +0.234 C 
ATOM     27  O   HYP A   6     132.496 159.927 195.809  0.00  0.00    -0.274 OA
ATOM     28  N   ALA A   7     131.160 158.127 195.373  0.00  0.00    -0.303 N 
ATOM     29  N   UNK A   5     135.181 154.136 194.963  0.00  0.00    -0.302 N 
ATOM     30  C   THR A   4     136.296 154.676 194.354  0.00  0.00    +0.237 C 
ATOM     31  O   THR A   4     136.227 155.221 193.253  0.00  0.00    -0.274 OA
ATOM     32  CA  THR A   4     137.611 154.520 195.148  0.00  0.00    +0.125 C 
ATOM     33  N   THR A   4     137.460 155.180 196.453  0.00  0.00    -0.300 N 
ATOM     34  C   ALA A   3     136.853 154.579 197.530  0.00  0.00    +0.234 C 
ATOM     35  O   ALA A   3     136.349 153.462 197.434  0.00  0.00    -0.274 OA
ATOM     36  CA  ALA A   3     136.850 155.427 198.810  0.00  0.00    +0.097 C 
ATOM     37  N   ALA A   3     136.001 156.598 198.616  0.00  0.00    -0.303 N 
ATOM     38  C   UNK A   2     136.184 157.741 199.372  0.00  0.00    +0.234 C 
ATOM     39  O   UNK A   2     137.230 157.940 199.989  0.00  0.00    -0.274 OA
ATOM     40  C   UNK A   2     135.051 158.801 199.248  0.00  0.00    +0.102 C 
ATOM     41  N   UNK A   2     133.776 158.159 198.940  0.00  0.00    -0.302 N 
ATOM     42  C   UNK A   1     133.127 157.285 199.782  0.00  0.00    +0.234 C 
ATOM     43  O   UNK A   1     133.583 156.943 200.872  0.00  0.00    -0.274 OA
ATOM     44  HA  ALA A   7     129.945 159.603 196.201  0.00  0.00    +0.059 HD
ATOM     45  H   UNK A   1     131.951 156.894 197.109  0.00  0.00    +0.150 HD
ATOM     46  H   UNK A   1     131.031 156.967 199.947  0.00  0.00    +0.060 HD
ATOM     47  H   UNK A   1     132.985 154.916 198.865  0.00  0.00    +0.034 HD
ATOM     48  H   UNK A   1     131.883 154.763 200.212  0.00  0.00    +0.034 HD
ATOM     49  H   UNK A   5     130.056 152.367 196.053  0.00  0.00    +0.166 HD
ATOM     50  H   UNK A   5     127.297 152.828 196.382  0.00  0.00    +0.064 HD
ATOM     51  H   UNK A   5     125.710 154.118 197.795  0.00  0.00    +0.062 HD
ATOM     52  H   UNK A   5     126.546 155.624 199.566  0.00  0.00    +0.062 HD
ATOM     53  H   UNK A   5     128.965 155.879 199.966  0.00  0.00    +0.062 HD
ATOM     54  H   UNK A   5     132.841 152.584 194.342  0.00  0.00    +0.040 HD
ATOM     55  H   UNK A   5     131.759 153.932 194.671  0.00  0.00    +0.040 HD
ATOM     56  H   UNK A   5     133.888 154.444 193.396  0.00  0.00    +0.060 HD
ATOM     57  HD1 HYP A   6     132.204 155.766 192.500  0.00  0.00    +0.049 HD
ATOM     58  HD2 HYP A   6     133.860 156.325 192.097  0.00  0.00    +0.049 HD
ATOM     59  HG  HYP A   6     132.506 158.030 190.991  0.00  0.00    +0.061 HD
ATOM     60  HB1 HYP A   6     134.182 159.062 192.420  0.00  0.00    +0.031 HD
ATOM     61  HB2 HYP A   6     132.708 159.922 192.923  0.00  0.00    +0.031 HD
ATOM     62  HA  HYP A   6     134.336 158.470 194.679  0.00  0.00    +0.060 HD
ATOM     63  H   ALA A   7     131.012 157.342 194.744  0.00  0.00    +0.149 HD
ATOM     64  H   UNK A   5     135.282 153.715 195.891  0.00  0.00    +0.150 HD
ATOM     65  HA  THR A   4     137.785 153.452 195.331  0.00  0.00    +0.062 HD
ATOM     66  H   THR A   4     137.849 156.113 196.569  0.00  0.00    +0.150 HD
ATOM     67  HA  ALA A   3     137.879 155.758 198.994  0.00  0.00    +0.059 HD
ATOM     68  H   ALA A   3     135.153 156.521 198.060  0.00  0.00    +0.149 HD
ATOM     69  H   UNK A   2     135.307 159.384 198.355  0.00  0.00    +0.060 HD
ATOM     70  H   UNK A   2     133.212 158.583 198.206  0.00  0.00    +0.150 HD
ENDROOT
BRANCH   1  71
ATOM     71  CB  ALA A   7     128.828 157.757 196.001  0.00  0.00    -0.038 C 
ATOM     72  HB1 ALA A   7     128.848 156.758 196.450  0.00  0.00    +0.025 HD
ATOM     73  HB2 ALA A   7     127.954 158.293 196.384  0.00  0.00    +0.025 HD
ATOM     74  HB3 ALA A   7     128.694 157.637 194.920  0.00  0.00    +0.025 HD
ENDBRANCH   1  71
BRANCH  36  75
ATOM     75  CB  ALA A   3     136.371 154.613 200.007  0.00  0.00    -0.038 C 
ATOM     76  HB1 ALA A   3     137.181 154.462 200.728  0.00  0.00    +0.025 HD
ATOM     77  HB2 ALA A   3     135.552 155.120 200.530  0.00  0.00    +0.025 HD
ATOM     78  HB3 ALA A   3     136.007 153.629 199.692  0.00  0.00    +0.025 HD
ENDBRANCH  36  75
BRANCH  40  79
ATOM     79  C   UNK A   2     135.030 159.725 200.476  0.00  0.00    +0.005 C 
ATOM     80  H   UNK A   2     135.926 159.486 201.067  0.00  0.00    +0.032 HD
ATOM     81  H   UNK A   2     134.180 159.479 201.125  0.00  0.00    +0.032 HD
BRANCH  79  82
ATOM     82  C   UNK A   2     135.059 161.248 200.221  0.00  0.00    +0.088 C 
BRANCH  82  83
ATOM     83  C   UNK A   2     135.022 161.972 201.574  0.00  0.00    -0.034 C 
ATOM     84  H   UNK A   2     135.347 163.015 201.472  0.00  0.00    +0.026 HD
ATOM     85  H   UNK A   2     134.001 162.011 201.968  0.00  0.00    +0.026 HD
ATOM     86  H   UNK A   2     135.661 161.477 202.312  0.00  0.00    +0.026 HD
ENDBRANCH  82  83
BRANCH  82  87
ATOM     87  C   UNK A   2     133.894 161.766 199.351  0.00  0.00    +0.073 C 
ATOM     88  H   UNK A   2     133.796 161.194 198.423  0.00  0.00    +0.059 HD
ATOM     89  H   UNK A   2     132.946 161.710 199.897  0.00  0.00    +0.059 HD
BRANCH  87  90
ATOM     90  O   UNK A   2     134.098 163.144 199.048  0.00  0.00    -0.392 OA
ATOM     91  H   UNK A   2     134.381 163.567 199.887  0.00  0.00    +0.210 HD
ENDBRANCH  87  90
ENDBRANCH  82  87
BRANCH  82  92
ATOM     92  O   UNK A   2     136.299 161.597 199.587  0.00  0.00    -0.387 OA
ATOM     93  H   UNK A   2     136.566 162.450 199.997  0.00  0.00    +0.210 HD
ENDBRANCH  82  92
ENDBRANCH  79  82
ENDBRANCH  40  79
BRANCH  23  94
ATOM     94  OD  HYP A   6     130.997 158.027 192.385  0.00  0.00    -0.390 OA
ATOM     95  HD  HYP A   6     130.920 158.119 193.354  0.00  0.00    +0.210 HD
ENDBRANCH  23  94
BRANCH  32  96
ATOM     96  CB  THR A   4     138.805 155.126 194.376  0.00  0.00    +0.079 C 
ATOM     97  HB  THR A   4     138.454 155.897 193.678  0.00  0.00    +0.061 HD
BRANCH  96  98
ATOM     98  CG2 THR A   4     139.601 154.075 193.611  0.00  0.00    -0.037 C 
ATOM     99 HG21 THR A   4     140.236 153.508 194.301  0.00  0.00    +0.026 HD
ATOM    100 HG22 THR A   4     140.239 154.523 192.844  0.00  0.00    +0.026 HD
ATOM    101 HG23 THR A   4     138.936 153.349 193.132  0.00  0.00    +0.026 HD
ENDBRANCH  96  98
BRANCH  96 102
ATOM    102  OG1 THR A   4     139.700 155.790 195.284  0.00  0.00    -0.390 OA
ATOM    103  HG1 THR A   4     140.420 156.186 194.760  0.00  0.00    +0.210 HD
ENDBRANCH  96 102
ENDBRANCH  32  96
TORSDOF 12
ENDMDL
MODEL 4
REMARK VINA RESULT:      -6.1      3.263      5.071
REMARK  Name = Phalloidin_conf1
REMARK  12 active torsions:
REMARK  status: ('A' for Active; 'I' for Inactive)
REMARK    1  A    between atoms: CB_1  and  CA_2
REMARK    2  A    between atoms: CG_24  and  OD_30
REMARK    3  A    between atoms: CA_34  and  CB_53
REMARK    4  A    between atoms: CA_38  and  CB_52
REMARK    5  A    between atoms: C_42  and  C_46
REMARK    6  A    between atoms: C_46  and  C_47
REMARK    7  A    between atoms: C_47  and  C_48
REMARK    8  A    between atoms: C_47  and  C_49
REMARK    9  A    between atoms: C_47  and  O_51
REMARK   10  A    between atoms: C_49  and  O_50
REMARK   11  A    between atoms: CB_53  and  CG2_54
REMARK   12  A    between atoms: CB_53  and  OG1_55
REMARK                            x       y       z     vdW  Elec       q    Type
REMARK                         _______ _______ _______ _____ _____    ______ ____
ROOT
ATOM      1  CA  ALA A   7     146.660 165.615 185.759  0.00  0.00    +0.097 C 
ATOM      2  C   ALA A   7     145.556 166.624 185.380  0.00  0.00    +0.234 C 
ATOM      3  O   ALA A   7     144.983 166.589 184.290  0.00  0.00    -0.274 OA
ATOM      4  N   UNK A   1     145.177 167.480 186.388  0.00  0.00    -0.302 N 
ATOM      5  C   UNK A   1     144.009 168.355 186.293  0.00  0.00    +0.103 C 
ATOM      6  C   UNK A   1     143.215 168.404 187.612  0.00  0.00    +0.002 C 
ATOM      7  C   UNK A   1     143.119 167.098 188.356  0.00  0.00    -0.006 A 
ATOM      8  C   UNK A   5     143.491 166.871 189.667  0.00  0.00    +0.078 A 
ATOM      9  N   UNK A   5     143.197 165.578 189.991  0.00  0.00    -0.349 N 
ATOM     10  C   UNK A   5     142.708 164.913 188.894  0.00  0.00    +0.048 A 
ATOM     11  C   UNK A   5     142.320 163.576 188.751  0.00  0.00    -0.038 A 
ATOM     12  C   UNK A   5     141.837 163.170 187.504  0.00  0.00    -0.060 A 
ATOM     13  C   UNK A   5     141.735 164.072 186.450  0.00  0.00    -0.061 A 
ATOM     14  C   UNK A   5     142.116 165.409 186.614  0.00  0.00    -0.052 A 
ATOM     15  C   UNK A   5     142.623 165.845 187.856  0.00  0.00    +0.004 A 
ATOM     16  S   UNK A   5     144.134 167.926 190.881  0.00  0.00    -0.105 S 
ATOM     17  C   UNK A   5     145.717 167.126 191.309  0.00  0.00    +0.027 C 
ATOM     18  C   UNK A   5     146.970 167.971 191.053  0.00  0.00    +0.109 C 
ATOM     19  C   UNK A   5     147.353 167.998 189.555  0.00  0.00    +0.237 C 
ATOM     20  O   UNK A   5     146.722 168.665 188.726  0.00  0.00    -0.274 OA
ATOM     21  N   HYP A   6     148.473 167.289 189.172  0.00  0.00    -0.286 N 
ATOM     22  CD  HYP A   6     149.281 166.395 189.996  0.00  0.00    +0.042 C 
ATOM     23  CG  HYP A   6     150.248 165.751 189.006  0.00  0.00    +0.073 C 
ATOM     24  CB  HYP A   6     150.506 166.873 188.005  0.00  0.00    +0.002 C 
ATOM     25  CA  HYP A   6     149.153 167.590 187.906  0.00  0.00    +0.105 C 
ATOM     26  C   HYP A   6     148.394 167.136 186.652  0.00  0.00    +0.234 C 
ATOM     27  O   HYP A   6     148.644 167.597 185.542  0.00  0.00    -0.274 OA
ATOM     28  N   ALA A   7     147.485 166.126 186.849  0.00  0.00    -0.303 N 
ATOM     29  N   UNK A   5     146.876 169.360 191.477  0.00  0.00    -0.302 N 
ATOM     30  C   THR A   4     148.018 170.113 191.659  0.00  0.00    +0.237 C 
ATOM     31  O   THR A   4     149.129 169.588 191.739  0.00  0.00    -0.274 OA
ATOM     32  CA  THR A   4     147.784 171.635 191.770  0.00  0.00    +0.125 C 
ATOM     33  N   THR A   4     147.137 172.109 190.538  0.00  0.00    -0.300 N 
ATOM     34  C   ALA A   3     145.782 172.015 190.321  0.00  0.00    +0.234 C 
ATOM     35  O   ALA A   3     145.043 171.470 191.138  0.00  0.00    -0.274 OA
ATOM     36  CA  ALA A   3     145.312 172.618 188.990  0.00  0.00    +0.097 C 
ATOM     37  N   ALA A   3     145.838 171.827 187.884  0.00  0.00    -0.303 N 
ATOM     38  C   UNK A   2     145.990 172.378 186.624  0.00  0.00    +0.234 C 
ATOM     39  O   UNK A   2     145.999 173.597 186.456  0.00  0.00    -0.274 OA
ATOM     40  C   UNK A   2     146.303 171.357 185.492  0.00  0.00    +0.102 C 
ATOM     41  N   UNK A   2     145.732 170.050 185.804  0.00  0.00    -0.302 N 
ATOM     42  C   UNK A   1     144.382 169.803 185.915  0.00  0.00    +0.234 C 
ATOM     43  O   UNK A   1     143.529 170.678 185.784  0.00  0.00    -0.274 OA
ATOM     44  HA  ALA A   7     147.298 165.473 184.878  0.00  0.00    +0.059 HD
ATOM     45  H   UNK A   1     145.753 167.546 187.224  0.00  0.00    +0.150 HD
ATOM     46  H   UNK A   1     143.364 167.985 185.489  0.00  0.00    +0.060 HD
ATOM     47  H   UNK A   1     143.663 169.161 188.268  0.00  0.00    +0.034 HD
ATOM     48  H   UNK A   1     142.196 168.764 187.408  0.00  0.00    +0.034 HD
ATOM     49  H   UNK A   5     143.306 165.175 190.909  0.00  0.00    +0.166 HD
ATOM     50  H   UNK A   5     142.385 162.872 189.574  0.00  0.00    +0.064 HD
ATOM     51  H   UNK A   5     141.529 162.137 187.359  0.00  0.00    +0.062 HD
ATOM     52  H   UNK A   5     141.354 163.739 185.487  0.00  0.00    +0.062 HD
ATOM     53  H   UNK A   5     142.024 166.094 185.776  0.00  0.00    +0.062 HD
ATOM     54  H   UNK A   5     145.655 166.918 192.383  0.00  0.00    +0.040 HD
ATOM     55  H   UNK A   5     145.813 166.158 190.804  0.00  0.00    +0.040 HD
ATOM     56  H   UNK A   5     147.781 167.522 191.631  0.00  0.00    +0.060 HD
ATOM     57  HD1 HYP A   6     148.633 165.678 190.508  0.00  0.00    +0.049 HD
ATOM     58  HD2 HYP A   6     149.817 167.008 190.727  0.00  0.00    +0.049 HD
ATOM     59  HG  HYP A   6     151.158 165.383 189.491  0.00  0.00    +0.061 HD
ATOM     60  HB1 HYP A   6     151.252 167.564 188.419  0.00  0.00    +0.031 HD
ATOM     61  HB2 HYP A   6     150.867 166.507 187.040  0.00  0.00    +0.031 HD
ATOM     62  HA  HYP A   6     149.279 168.677 187.826  0.00  0.00    +0.060 HD
ATOM     63  H   ALA A   7     147.455 165.678 187.761  0.00  0.00    +0.149 HD
ATOM     64  H   UNK A   5     145.977 169.843 191.390  0.00  0.00    +0.150 HD
ATOM     65  HA  THR A   4     147.095 171.823 192.604  0.00  0.00    +0.062 HD
ATOM     66  H   THR A   4     147.716 172.551 189.829  0.00  0.00    +0.150 HD
ATOM     67  HA  ALA A   3     145.713 173.637 188.924  0.00  0.00    +0.059 HD
ATOM     68  H   ALA A   3     145.920 170.817 187.978  0.00  0.00    +0.149 HD
ATOM     69  H   UNK A   2     147.390 171.217 185.531  0.00  0.00    +0.060 HD
ATOM     70  H   UNK A   2     146.330 169.239 185.659  0.00  0.00    +0.150 HD
ENDROOT
BRANCH   1  71
ATOM     71  CB  ALA A   7     146.011 164.299 186.168  0.00  0.00    -0.038 C 
ATOM     72  HB1 ALA A   7     146.140 164.109 187.239  0.00  0.00    +0.025 HD
ATOM     73  HB2 ALA A   7     144.940 164.307 185.943  0.00  0.00    +0.025 HD
ATOM     74  HB3 ALA A   7     146.456 163.461 185.622  0.00  0.00    +0.025 HD
ENDBRANCH   1  71
BRANCH  36  75
ATOM     75  CB  ALA A   3     143.790 172.683 188.924  0.00  0.00    -0.038 C 
ATOM     76  HB1 ALA A   3     143.396 171.945 188.217  0.00  0.00    +0.025 HD
ATOM     77  HB2 ALA A   3     143.341 172.476 189.902  0.00  0.00    +0.025 HD
ATOM     78  HB3 ALA A   3     143.452 173.674 188.605  0.00  0.00    +0.025 HD
ENDBRANCH  36  75
BRANCH  40  79
ATOM     79  C   UNK A   2     145.909 171.925 184.119  0.00  0.00    +0.005 C 
ATOM     80  H   UNK A   2     146.488 172.850 183.982  0.00  0.00    +0.032 HD
ATOM     81  H   UNK A   2     144.857 172.239 184.124  0.00  0.00    +0.032 HD
BRANCH  79  82
ATOM     82  C   UNK A   2     146.178 171.044 182.881  0.00  0.00    +0.088 C 
BRANCH  82  83
ATOM     83  C   UNK A   2     146.916 171.886 181.831  0.00  0.00    -0.034 C 
ATOM     84  H   UNK A   2     146.396 171.859 180.866  0.00  0.00    +0.026 HD
ATOM     85  H   UNK A   2     146.948 172.940 182.128  0.00  0.00    +0.026 HD
ATOM     86  H   UNK A   2     147.943 171.535 181.684  0.00  0.00    +0.026 HD
ENDBRANCH  82  83
BRANCH  82  87
ATOM     87  C   UNK A   2     144.906 170.455 182.235  0.00  0.00    +0.073 C 
ATOM     88  H   UNK A   2     144.025 171.074 182.436  0.00  0.00    +0.059 HD
ATOM     89  H   UNK A   2     145.027 170.363 181.150  0.00  0.00    +0.059 HD
BRANCH  87  90
ATOM     90  O   UNK A   2     144.687 169.133 182.725  0.00  0.00    -0.392 OA
ATOM     91  H   UNK A   2     145.132 169.091 183.597  0.00  0.00    +0.210 HD
ENDBRANCH  87  90
ENDBRANCH  82  87
BRANCH  82  92
ATOM     92  O   UNK A   2     147.051 169.965 183.249  0.00  0.00    -0.387 OA
ATOM     93  H   UNK A   2     146.459 169.271 183.618  0.00  0.00    +0.210 HD
ENDBRANCH  82  92
ENDBRANCH  79  82
ENDBRANCH  40  79
BRANCH  23  94
ATOM     94  OD  HYP A   6     149.601 164.650 188.367  0.00  0.00    -0.390 OA
ATOM     95  HD  HYP A   6     148.668 164.899 188.227  0.00  0.00    +0.210 HD
ENDBRANCH  23  94
BRANCH  32  96
ATOM     96  CB  THR A   4     149.113 172.389 192.001  0.00  0.00    +0.079 C 
ATOM     97  HB  THR A   4     149.959 171.787 191.646  0.00  0.00    +0.061 HD
BRANCH  96  98
ATOM     98  CG2 THR A   4     149.332 172.756 193.465  0.00  0.00    -0.037 C 
ATOM     99 HG21 THR A   4     150.343 173.153 193.607  0.00  0.00    +0.026 HD
ATOM    100 HG22 THR A   4     149.203 171.894 194.126  0.00  0.00    +0.026 HD
ATOM    101 HG23 THR A   4     148.640 173.544 193.779  0.00  0.00    +0.026 HD
ENDBRANCH  96  98
BRANCH  96 102
ATOM    102  OG1 THR A   4     149.139 173.602 191.230  0.00  0.00    -0.390 OA
ATOM    103  HG1 THR A   4     148.240 173.977 191.229  0.00  0.00    +0.210 HD
ENDBRANCH  96 102
ENDBRANCH  32  96
TORSDOF 12
ENDMDL
MODEL 5
REMARK VINA RESULT:      -6.1     19.251     23.358
REMARK  Name = Phalloidin_conf1
REMARK  12 active torsions:
REMARK  status: ('A' for Active; 'I' for Inactive)
REMARK    1  A    between atoms: CB_1  and  CA_2
REMARK    2  A    between atoms: CG_24  and  OD_30
REMARK    3  A    between atoms: CA_34  and  CB_53
REMARK    4  A    between atoms: CA_38  and  CB_52
REMARK    5  A    between atoms: C_42  and  C_46
REMARK    6  A    between atoms: C_46  and  C_47
REMARK    7  A    between atoms: C_47  and  C_48
REMARK    8  A    between atoms: C_47  and  C_49
REMARK    9  A    between atoms: C_47  and  O_51
REMARK   10  A    between atoms: C_49  and  O_50
REMARK   11  A    between atoms: CB_53  and  CG2_54
REMARK   12  A    between atoms: CB_53  and  OG1_55
REMARK                            x       y       z     vdW  Elec       q    Type
REMARK                         _______ _______ _______ _____ _____    ______ ____
ROOT
ATOM      1  CA  ALA A   7     128.518 163.282 197.970  0.00  0.00    +0.097 C 
ATOM      2  C   ALA A   7     129.938 163.845 197.756  0.00  0.00    +0.234 C 
ATOM      3  O   ALA A   7     130.676 163.438 196.857  0.00  0.00    -0.274 OA
ATOM      4  N   UNK A   1     130.269 164.912 198.559  0.00  0.00    -0.302 N 
ATOM      5  C   UNK A   1     131.476 165.715 198.360  0.00  0.00    +0.103 C 
ATOM      6  C   UNK A   1     131.208 167.219 198.554  0.00  0.00    +0.002 C 
ATOM      7  C   UNK A   1     129.882 167.711 198.035  0.00  0.00    -0.006 A 
ATOM      8  C   UNK A   5     128.920 168.392 198.755  0.00  0.00    +0.078 A 
ATOM      9  N   UNK A   5     127.890 168.713 197.920  0.00  0.00    -0.349 N 
ATOM     10  C   UNK A   5     128.110 168.189 196.670  0.00  0.00    +0.048 A 
ATOM     11  C   UNK A   5     127.310 168.231 195.523  0.00  0.00    -0.038 A 
ATOM     12  C   UNK A   5     127.800 167.616 194.367  0.00  0.00    -0.060 A 
ATOM     13  C   UNK A   5     129.046 166.997 194.361  0.00  0.00    -0.061 A 
ATOM     14  C   UNK A   5     129.839 166.976 195.515  0.00  0.00    -0.052 A 
ATOM     15  C   UNK A   5     129.364 167.574 196.702  0.00  0.00    +0.004 A 
ATOM     16  S   UNK A   5     128.880 168.931 200.401  0.00  0.00    -0.105 S 
ATOM     17  C   UNK A   5     127.397 168.095 201.060  0.00  0.00    +0.027 C 
ATOM     18  C   UNK A   5     127.651 167.131 202.225  0.00  0.00    +0.109 C 
ATOM     19  C   UNK A   5     128.234 165.783 201.742  0.00  0.00    +0.237 C 
ATOM     20  O   UNK A   5     129.411 165.668 201.379  0.00  0.00    -0.274 OA
ATOM     21  N   HYP A   6     127.406 164.680 201.784  0.00  0.00    -0.286 N 
ATOM     22  CD  HYP A   6     125.984 164.651 202.109  0.00  0.00    +0.042 C 
ATOM     23  CG  HYP A   6     125.563 163.216 201.803  0.00  0.00    +0.073 C 
ATOM     24  CB  HYP A   6     126.803 162.412 202.179  0.00  0.00    +0.002 C 
ATOM     25  CA  HYP A   6     127.966 163.323 201.767  0.00  0.00    +0.105 C 
ATOM     26  C   HYP A   6     128.538 162.886 200.412  0.00  0.00    +0.234 C 
ATOM     27  O   HYP A   6     129.324 161.949 200.313  0.00  0.00    -0.274 OA
ATOM     28  N   ALA A   7     128.042 163.558 199.321  0.00  0.00    -0.303 N 
ATOM     29  N   UNK A   5     128.556 167.626 203.252  0.00  0.00    -0.302 N 
ATOM     30  C   THR A   4     128.573 167.048 204.505  0.00  0.00    +0.237 C 
ATOM     31  O   THR A   4     127.667 166.305 204.882  0.00  0.00    -0.274 OA
ATOM     32  CA  THR A   4     129.790 167.422 205.378  0.00  0.00    +0.125 C 
ATOM     33  N   THR A   4     131.018 167.008 204.686  0.00  0.00    -0.300 N 
ATOM     34  C   ALA A   3     131.615 167.763 203.704  0.00  0.00    +0.234 C 
ATOM     35  O   ALA A   3     131.108 168.812 203.312  0.00  0.00    -0.274 OA
ATOM     36  CA  ALA A   3     132.918 167.167 203.151  0.00  0.00    +0.097 C 
ATOM     37  N   ALA A   3     132.623 165.935 202.430  0.00  0.00    -0.303 N 
ATOM     38  C   UNK A   2     133.591 164.963 202.255  0.00  0.00    +0.234 C 
ATOM     39  O   UNK A   2     134.608 164.942 202.949  0.00  0.00    -0.274 OA
ATOM     40  C   UNK A   2     133.221 163.836 201.249  0.00  0.00    +0.102 C 
ATOM     41  N   UNK A   2     132.301 164.336 200.231  0.00  0.00    -0.302 N 
ATOM     42  C   UNK A   1     132.618 165.313 199.314  0.00  0.00    +0.234 C 
ATOM     43  O   UNK A   1     133.711 165.876 199.288  0.00  0.00    -0.274 OA
ATOM     44  HA  ALA A   7     128.568 162.194 197.836  0.00  0.00    +0.059 HD
ATOM     45  H   UNK A   1     129.677 165.135 199.356  0.00  0.00    +0.150 HD
ATOM     46  H   UNK A   1     131.847 165.535 197.345  0.00  0.00    +0.060 HD
ATOM     47  H   UNK A   1     131.288 167.458 199.623  0.00  0.00    +0.034 HD
ATOM     48  H   UNK A   1     132.008 167.795 198.067  0.00  0.00    +0.034 HD
ATOM     49  H   UNK A   5     127.091 169.272 198.179  0.00  0.00    +0.166 HD
ATOM     50  H   UNK A   5     126.344 168.723 195.519  0.00  0.00    +0.064 HD
ATOM     51  H   UNK A   5     127.202 167.629 193.458  0.00  0.00    +0.062 HD
ATOM     52  H   UNK A   5     129.413 166.527 193.452  0.00  0.00    +0.062 HD
ATOM     53  H   UNK A   5     130.809 166.489 195.484  0.00  0.00    +0.062 HD
ATOM     54  H   UNK A   5     126.745 168.901 201.415  0.00  0.00    +0.040 HD
ATOM     55  H   UNK A   5     126.855 167.577 200.260  0.00  0.00    +0.040 HD
ATOM     56  H   UNK A   5     126.688 166.960 202.712  0.00  0.00    +0.060 HD
ATOM     57  HD1 HYP A   6     125.454 165.401 201.515  0.00  0.00    +0.049 HD
ATOM     58  HD2 HYP A   6     125.880 164.873 203.175  0.00  0.00    +0.049 HD
ATOM     59  HG  HYP A   6     124.666 162.918 202.356  0.00  0.00    +0.061 HD
ATOM     60  HB1 HYP A   6     126.826 162.266 203.267  0.00  0.00    +0.031 HD
ATOM     61  HB2 HYP A   6     126.836 161.431 201.696  0.00  0.00    +0.031 HD
ATOM     62  HA  HYP A   6     128.790 163.274 202.490  0.00  0.00    +0.060 HD
ATOM     63  H   ALA A   7     127.270 164.203 199.465  0.00  0.00    +0.149 HD
ATOM     64  H   UNK A   5     129.344 168.217 202.971  0.00  0.00    +0.150 HD
ATOM     65  HA  THR A   4     129.819 168.514 205.487  0.00  0.00    +0.062 HD
ATOM     66  H   THR A   4     131.460 166.136 204.968  0.00  0.00    +0.150 HD
ATOM     67  HA  ALA A   3     133.567 166.936 204.004  0.00  0.00    +0.059 HD
ATOM     68  H   ALA A   3     131.765 165.858 201.888  0.00  0.00    +0.149 HD
ATOM     69  H   UNK A   2     132.641 163.113 201.835  0.00  0.00    +0.060 HD
ATOM     70  H   UNK A   2     131.497 163.752 200.009  0.00  0.00    +0.150 HD
ENDROOT
BRANCH   1  71
ATOM     71  CB  ALA A   7     127.577 163.905 196.947  0.00  0.00    -0.038 C 
ATOM     72  HB1 ALA A   7     127.666 164.996 196.940  0.00  0.00    +0.025 HD
ATOM     73  HB2 ALA A   7     127.793 163.532 195.942  0.00  0.00    +0.025 HD
ATOM     74  HB3 ALA A   7     126.535 163.654 197.176  0.00  0.00    +0.025 HD
ENDBRANCH   1  71
BRANCH  36  75
ATOM     75  CB  ALA A   3     133.633 168.160 202.242  0.00  0.00    -0.038 C 
ATOM     76  HB1 ALA A   3     133.507 167.889 201.189  0.00  0.00    +0.025 HD
ATOM     77  HB2 ALA A   3     133.237 169.174 202.371  0.00  0.00    +0.025 HD
ATOM     78  HB3 ALA A   3     134.706 168.190 202.460  0.00  0.00    +0.025 HD
ENDBRANCH  36  75
BRANCH  40  79
ATOM     79  C   UNK A   2     134.485 163.155 200.700  0.00  0.00    +0.005 C 
ATOM     80  H   UNK A   2     135.321 163.484 201.334  0.00  0.00    +0.032 HD
ATOM     81  H   UNK A   2     134.716 163.532 199.696  0.00  0.00    +0.032 HD
BRANCH  79  82
ATOM     82  C   UNK A   2     134.515 161.612 200.690  0.00  0.00    +0.088 C 
BRANCH  82  83
ATOM     83  C   UNK A   2     134.599 161.114 202.140  0.00  0.00    -0.034 C 
ATOM     84  H   UNK A   2     135.637 160.902 202.425  0.00  0.00    +0.026 HD
ATOM     85  H   UNK A   2     134.246 161.882 202.837  0.00  0.00    +0.026 HD
ATOM     86  H   UNK A   2     134.004 160.208 202.290  0.00  0.00    +0.026 HD
ENDBRANCH  82  83
BRANCH  82  87
ATOM     87  C   UNK A   2     135.689 161.007 199.892  0.00  0.00    +0.073 C 
ATOM     88  H   UNK A   2     136.210 160.231 200.462  0.00  0.00    +0.059 HD
ATOM     89  H   UNK A   2     135.335 160.569 198.951  0.00  0.00    +0.059 HD
BRANCH  87  90
ATOM     90  O   UNK A   2     136.606 162.037 199.531  0.00  0.00    -0.392 OA
ATOM     91  H   UNK A   2     136.334 162.831 200.038  0.00  0.00    +0.210 HD
ENDBRANCH  87  90
ENDBRANCH  82  87
BRANCH  82  92
ATOM     92  O   UNK A   2     133.282 161.119 200.144  0.00  0.00    -0.387 OA
ATOM     93  H   UNK A   2     132.716 161.915 200.029  0.00  0.00    +0.210 HD
ENDBRANCH  82  92
ENDBRANCH  79  82
ENDBRANCH  40  79
BRANCH  23  94
ATOM     94  OD  HYP A   6     125.292 163.094 200.407  0.00  0.00    -0.390 OA
ATOM     95  HD  HYP A   6     124.323 163.048 200.299  0.00  0.00    +0.210 HD
ENDBRANCH  23  94
BRANCH  32  96
ATOM     96  CB  THR A   4     129.706 166.753 206.768  0.00  0.00    +0.079 C 
ATOM     97  HB  THR A   4     128.763 167.019 207.263  0.00  0.00    +0.061 HD
BRANCH  96  98
ATOM     98  CG2 THR A   4     130.876 167.130 207.671  0.00  0.00    -0.037 C 
ATOM     99 HG21 THR A   4     130.676 166.810 208.699  0.00  0.00    +0.026 HD
ATOM    100 HG22 THR A   4     131.058 168.209 207.674  0.00  0.00    +0.026 HD
ATOM    101 HG23 THR A   4     131.793 166.621 207.358  0.00  0.00    +0.026 HD
ENDBRANCH  96  98
BRANCH  96 102
ATOM    102  OG1 THR A   4     129.692 165.322 206.633  0.00  0.00    -0.390 OA
ATOM    103  HG1 THR A   4     128.849 165.068 206.217  0.00  0.00    +0.210 HD
ENDBRANCH  96 102
ENDBRANCH  32  96
TORSDOF 12
ENDMDL
MODEL 6
REMARK VINA RESULT:      -6.0      3.092      7.568
REMARK  Name = Phalloidin_conf1
REMARK  12 active torsions:
REMARK  status: ('A' for Active; 'I' for Inactive)
REMARK    1  A    between atoms: CB_1  and  CA_2
REMARK    2  A    between atoms: CG_24  and  OD_30
REMARK    3  A    between atoms: CA_34  and  CB_53
REMARK    4  A    between atoms: CA_38  and  CB_52
REMARK    5  A    between atoms: C_42  and  C_46
REMARK    6  A    between atoms: C_46  and  C_47
REMARK    7  A    between atoms: C_47  and  C_48
REMARK    8  A    between atoms: C_47  and  C_49
REMARK    9  A    between atoms: C_47  and  O_51
REMARK   10  A    between atoms: C_49  and  O_50
REMARK   11  A    between atoms: CB_53  and  CG2_54
REMARK   12  A    between atoms: CB_53  and  OG1_55
REMARK                            x       y       z     vdW  Elec       q    Type
REMARK                         _______ _______ _______ _____ _____    ______ ____
ROOT
ATOM      1  CA  ALA A   7     143.709 164.050 186.311  0.00  0.00    +0.097 C 
ATOM      2  C   ALA A   7     144.949 163.154 186.105  0.00  0.00    +0.234 C 
ATOM      3  O   ALA A   7     144.936 162.181 185.351  0.00  0.00    -0.274 OA
ATOM      4  N   UNK A   1     146.095 163.594 186.727  0.00  0.00    -0.302 N 
ATOM      5  C   UNK A   1     147.412 163.007 186.477  0.00  0.00    +0.103 C 
ATOM      6  C   UNK A   1     148.513 164.079 186.379  0.00  0.00    +0.002 C 
ATOM      7  C   UNK A   1     148.112 165.354 185.684  0.00  0.00    -0.006 A 
ATOM      8  C   UNK A   5     148.205 166.633 186.197  0.00  0.00    +0.078 A 
ATOM      9  N   UNK A   5     147.798 167.521 185.243  0.00  0.00    -0.349 N 
ATOM     10  C   UNK A   5     147.360 166.852 184.128  0.00  0.00    +0.048 A 
ATOM     11  C   UNK A   5     146.820 167.347 182.935  0.00  0.00    -0.038 A 
ATOM     12  C   UNK A   5     146.470 166.422 181.947  0.00  0.00    -0.060 A 
ATOM     13  C   UNK A   5     146.665 165.059 182.145  0.00  0.00    -0.061 A 
ATOM     14  C   UNK A   5     147.218 164.581 183.340  0.00  0.00    -0.052 A 
ATOM     15  C   UNK A   5     147.566 165.490 184.362  0.00  0.00    +0.004 A 
ATOM     16  S   UNK A   5     148.799 167.226 187.712  0.00  0.00    -0.105 S 
ATOM     17  C   UNK A   5     147.348 168.095 188.398  0.00  0.00    +0.027 C 
ATOM     18  C   UNK A   5     146.827 167.550 189.732  0.00  0.00    +0.109 C 
ATOM     19  C   UNK A   5     146.000 166.256 189.544  0.00  0.00    +0.237 C 
ATOM     20  O   UNK A   5     146.531 165.167 189.295  0.00  0.00    -0.274 OA
ATOM     21  N   HYP A   6     144.634 166.343 189.720  0.00  0.00    -0.286 N 
ATOM     22  CD  HYP A   6     143.843 167.549 189.939  0.00  0.00    +0.042 C 
ATOM     23  CG  HYP A   6     142.398 167.064 189.864  0.00  0.00    +0.073 C 
ATOM     24  CB  HYP A   6     142.479 165.666 190.469  0.00  0.00    +0.002 C 
ATOM     25  CA  HYP A   6     143.837 165.139 189.988  0.00  0.00    +0.105 C 
ATOM     26  C   HYP A   6     143.657 164.212 188.778  0.00  0.00    +0.234 C 
ATOM     27  O   HYP A   6     143.323 163.038 188.907  0.00  0.00    -0.274 OA
ATOM     28  N   ALA A   7     143.812 164.810 187.552  0.00  0.00    -0.303 N 
ATOM     29  N   UNK A   5     147.852 167.241 190.718  0.00  0.00    -0.302 N 
ATOM     30  C   THR A   4     147.522 167.114 192.052  0.00  0.00    +0.237 C 
ATOM     31  O   THR A   4     146.442 167.515 192.489  0.00  0.00    -0.274 OA
ATOM     32  CA  THR A   4     148.608 166.459 192.932  0.00  0.00    +0.125 C 
ATOM     33  N   THR A   4     148.887 165.110 192.419  0.00  0.00    -0.300 N 
ATOM     34  C   ALA A   3     149.737 164.873 191.364  0.00  0.00    +0.234 C 
ATOM     35  O   ALA A   3     150.269 165.798 190.755  0.00  0.00    -0.274 OA
ATOM     36  CA  ALA A   3     149.925 163.387 191.025  0.00  0.00    +0.097 C 
ATOM     37  N   ALA A   3     148.673 162.841 190.516  0.00  0.00    -0.303 N 
ATOM     38  C   UNK A   2     148.405 161.486 190.591  0.00  0.00    +0.234 C 
ATOM     39  O   UNK A   2     149.035 160.751 191.350  0.00  0.00    -0.274 OA
ATOM     40  C   UNK A   2     147.166 161.014 189.777  0.00  0.00    +0.102 C 
ATOM     41  N   UNK A   2     146.947 161.879 188.621  0.00  0.00    -0.302 N 
ATOM     42  C   UNK A   1     147.829 162.002 187.570  0.00  0.00    +0.234 C 
ATOM     43  O   UNK A   1     148.903 161.406 187.525  0.00  0.00    -0.274 OA
ATOM     44  HA  ALA A   7     142.833 163.394 186.377  0.00  0.00    +0.059 HD
ATOM     45  H   UNK A   1     146.028 164.330 187.425  0.00  0.00    +0.150 HD
ATOM     46  H   UNK A   1     147.366 162.440 185.542  0.00  0.00    +0.060 HD
ATOM     47  H   UNK A   1     148.868 164.317 187.390  0.00  0.00    +0.034 HD
ATOM     48  H   UNK A   1     149.384 163.657 185.858  0.00  0.00    +0.034 HD
ATOM     49  H   UNK A   5     147.832 168.524 185.339  0.00  0.00    +0.166 HD
ATOM     50  H   UNK A   5     146.678 168.410 182.772  0.00  0.00    +0.064 HD
ATOM     51  H   UNK A   5     146.046 166.774 181.009  0.00  0.00    +0.062 HD
ATOM     52  H   UNK A   5     146.390 164.354 181.364  0.00  0.00    +0.062 HD
ATOM     53  H   UNK A   5     147.363 163.513 183.468  0.00  0.00    +0.062 HD
ATOM     54  H   UNK A   5     147.679 169.129 188.554  0.00  0.00    +0.040 HD
ATOM     55  H   UNK A   5     146.533 168.130 187.666  0.00  0.00    +0.040 HD
ATOM     56  H   UNK A   5     146.196 168.327 190.170  0.00  0.00    +0.060 HD
ATOM     57  HD1 HYP A   6     144.095 168.299 189.183  0.00  0.00    +0.049 HD
ATOM     58  HD2 HYP A   6     144.080 167.928 190.938  0.00  0.00    +0.049 HD
ATOM     59  HG  HYP A   6     141.707 167.728 190.394  0.00  0.00    +0.061 HD
ATOM     60  HB1 HYP A   6     142.489 165.744 191.564  0.00  0.00    +0.031 HD
ATOM     61  HB2 HYP A   6     141.643 165.026 190.173  0.00  0.00    +0.031 HD
ATOM     62  HA  HYP A   6     144.339 164.552 190.767  0.00  0.00    +0.060 HD
ATOM     63  H   ALA A   7     143.920 165.820 187.521  0.00  0.00    +0.149 HD
ATOM     64  H   UNK A   5     148.750 166.870 190.396  0.00  0.00    +0.150 HD
ATOM     65  HA  THR A   4     149.530 167.048 192.847  0.00  0.00    +0.062 HD
ATOM     66  H   THR A   4     148.453 164.318 192.884  0.00  0.00    +0.150 HD
ATOM     67  HA  ALA A   3     150.193 162.864 191.952  0.00  0.00    +0.059 HD
ATOM     68  H   ALA A   3     148.069 163.417 189.935  0.00  0.00    +0.149 HD
ATOM     69  H   UNK A   2     146.309 161.191 190.438  0.00  0.00    +0.060 HD
ATOM     70  H   UNK A   2     145.992 162.186 188.448  0.00  0.00    +0.150 HD
ENDROOT
BRANCH   1  71
ATOM     71  CB  ALA A   7     143.580 164.998 185.126  0.00  0.00    -0.038 C 
ATOM     72  HB1 ALA A   7     142.600 164.901 184.646  0.00  0.00    +0.025 HD
ATOM     73  HB2 ALA A   7     143.709 166.037 185.444  0.00  0.00    +0.025 HD
ATOM     74  HB3 ALA A   7     144.347 164.785 184.374  0.00  0.00    +0.025 HD
ENDBRANCH   1  71
BRANCH  36  75
ATOM     75  CB  ALA A   3     151.045 163.193 190.009  0.00  0.00    -0.038 C 
ATOM     76  HB1 ALA A   3     150.681 162.665 189.121  0.00  0.00    +0.025 HD
ATOM     77  HB2 ALA A   3     151.452 164.156 189.677  0.00  0.00    +0.025 HD
ATOM     78  HB3 ALA A   3     151.868 162.613 190.437  0.00  0.00    +0.025 HD
ENDBRANCH  36  75
BRANCH  40  79
ATOM     79  C   UNK A   2     147.263 159.514 189.454  0.00  0.00    +0.005 C 
ATOM     80  H   UNK A   2     148.319 159.233 189.572  0.00  0.00    +0.032 HD
ATOM     81  H   UNK A   2     147.031 159.335 188.396  0.00  0.00    +0.032 HD
BRANCH  79  82
ATOM     82  C   UNK A   2     146.444 158.543 190.332  0.00  0.00    +0.088 C 
BRANCH  82  83
ATOM     83  C   UNK A   2     147.119 157.164 190.298  0.00  0.00    -0.034 C 
ATOM     84  H   UNK A   2     146.610 156.493 189.596  0.00  0.00    +0.026 HD
ATOM     85  H   UNK A   2     148.153 157.245 189.945  0.00  0.00    +0.026 HD
ATOM     86  H   UNK A   2     147.126 156.696 191.288  0.00  0.00    +0.026 HD
ENDBRANCH  82  83
BRANCH  82  87
ATOM     87  C   UNK A   2     144.973 158.382 189.895  0.00  0.00    +0.073 C 
ATOM     88  H   UNK A   2     144.544 159.333 189.560  0.00  0.00    +0.059 HD
ATOM     89  H   UNK A   2     144.885 157.654 189.081  0.00  0.00    +0.059 HD
BRANCH  87  90
ATOM     90  O   UNK A   2     144.204 157.862 190.978  0.00  0.00    -0.392 OA
ATOM     91  H   UNK A   2     144.306 158.503 191.714  0.00  0.00    +0.210 HD
ENDBRANCH  87  90
ENDBRANCH  82  87
BRANCH  82  92
ATOM     92  O   UNK A   2     146.475 158.997 191.693  0.00  0.00    -0.387 OA
ATOM     93  H   UNK A   2     147.193 159.668 191.724  0.00  0.00    +0.210 HD
ENDBRANCH  82  92
ENDBRANCH  79  82
ENDBRANCH  40  79
BRANCH  23  94
ATOM     94  OD  HYP A   6     141.996 166.994 188.496  0.00  0.00    -0.390 OA
ATOM     95  HD  HYP A   6     141.360 167.718 188.340  0.00  0.00    +0.210 HD
ENDBRANCH  23  94
BRANCH  32  96
ATOM     96  CB  THR A   4     148.161 166.387 194.410  0.00  0.00    +0.079 C 
ATOM     97  HB  THR A   4     147.682 167.329 194.709  0.00  0.00    +0.061 HD
BRANCH  96  98
ATOM     98  CG2 THR A   4     149.316 166.083 195.357  0.00  0.00    -0.037 C 
ATOM     99 HG21 THR A   4     149.377 166.852 196.135  0.00  0.00    +0.026 HD
ATOM    100 HG22 THR A   4     150.275 166.046 194.833  0.00  0.00    +0.026 HD
ATOM    101 HG23 THR A   4     149.161 165.130 195.872  0.00  0.00    +0.026 HD
ENDBRANCH  96  98
BRANCH  96 102
ATOM    102  OG1 THR A   4     147.165 165.365 194.580  0.00  0.00    -0.390 OA
ATOM    103  HG1 THR A   4     146.458 165.724 195.146  0.00  0.00    +0.210 HD
ENDBRANCH  96 102
ENDBRANCH  32  96
TORSDOF 12
ENDMDL
MODEL 7
REMARK VINA RESULT:      -5.9      2.638      7.251
REMARK  Name = Phalloidin_conf1
REMARK  12 active torsions:
REMARK  status: ('A' for Active; 'I' for Inactive)
REMARK    1  A    between atoms: CB_1  and  CA_2
REMARK    2  A    between atoms: CG_24  and  OD_30
REMARK    3  A    between atoms: CA_34  and  CB_53
REMARK    4  A    between atoms: CA_38  and  CB_52
REMARK    5  A    between atoms: C_42  and  C_46
REMARK    6  A    between atoms: C_46  and  C_47
REMARK    7  A    between atoms: C_47  and  C_48
REMARK    8  A    between atoms: C_47  and  C_49
REMARK    9  A    between atoms: C_47  and  O_51
REMARK   10  A    between atoms: C_49  and  O_50
REMARK   11  A    between atoms: CB_53  and  CG2_54
REMARK   12  A    between atoms: CB_53  and  OG1_55
REMARK                            x       y       z     vdW  Elec       q    Type
REMARK                         _______ _______ _______ _____ _____    ______ ____
ROOT
ATOM      1  CA  ALA A   7     150.814 162.150 189.391  0.00  0.00    +0.097 C 
ATOM      2  C   ALA A   7     151.352 163.492 189.929  0.00  0.00    +0.234 C 
ATOM      3  O   ALA A   7     152.428 163.576 190.522  0.00  0.00    -0.274 OA
ATOM      4  N   UNK A   1     150.606 164.597 189.591  0.00  0.00    -0.302 N 
ATOM      5  C   UNK A   1     151.063 165.968 189.819  0.00  0.00    +0.103 C 
ATOM      6  C   UNK A   1     150.730 166.894 188.634  0.00  0.00    +0.002 C 
ATOM      7  C   UNK A   1     150.869 166.270 187.270  0.00  0.00    -0.006 A 
ATOM      8  C   UNK A   5     149.895 166.206 186.293  0.00  0.00    +0.078 A 
ATOM      9  N   UNK A   5     150.423 165.617 185.181  0.00  0.00    -0.349 N 
ATOM     10  C   UNK A   5     151.713 165.215 185.424  0.00  0.00    +0.048 A 
ATOM     11  C   UNK A   5     152.616 164.539 184.596  0.00  0.00    -0.038 A 
ATOM     12  C   UNK A   5     153.889 164.268 185.108  0.00  0.00    -0.060 A 
ATOM     13  C   UNK A   5     154.242 164.671 186.391  0.00  0.00    -0.061 A 
ATOM     14  C   UNK A   5     153.330 165.358 187.202  0.00  0.00    -0.052 A 
ATOM     15  C   UNK A   5     152.033 165.631 186.719  0.00  0.00    +0.004 A 
ATOM     16  S   UNK A   5     148.267 166.797 186.249  0.00  0.00    -0.105 S 
ATOM     17  C   UNK A   5     147.297 165.279 185.955  0.00  0.00    +0.027 C 
ATOM     18  C   UNK A   5     146.286 164.924 187.050  0.00  0.00    +0.109 C 
ATOM     19  C   UNK A   5     146.969 164.285 188.282  0.00  0.00    +0.237 C 
ATOM     20  O   UNK A   5     147.625 164.953 189.090  0.00  0.00    -0.274 OA
ATOM     21  N   HYP A   6     146.775 162.934 188.487  0.00  0.00    -0.286 N 
ATOM     22  CD  HYP A   6     146.102 161.991 187.601  0.00  0.00    +0.042 C 
ATOM     23  CG  HYP A   6     146.364 160.629 188.241  0.00  0.00    +0.073 C 
ATOM     24  CB  HYP A   6     146.357 160.949 189.732  0.00  0.00    +0.002 C 
ATOM     25  CA  HYP A   6     147.004 162.338 189.809  0.00  0.00    +0.105 C 
ATOM     26  C   HYP A   6     148.481 162.224 190.210  0.00  0.00    +0.234 C 
ATOM     27  O   HYP A   6     148.824 162.072 191.379  0.00  0.00    -0.274 OA
ATOM     28  N   ALA A   7     149.374 162.215 189.167  0.00  0.00    -0.303 N 
ATOM     29  N   UNK A   5     145.498 166.041 187.551  0.00  0.00    -0.302 N 
ATOM     30  C   THR A   4     144.322 165.813 188.237  0.00  0.00    +0.237 C 
ATOM     31  O   THR A   4     143.766 164.715 188.213  0.00  0.00    -0.274 OA
ATOM     32  CA  THR A   4     143.768 167.034 189.002  0.00  0.00    +0.125 C 
ATOM     33  N   THR A   4     144.770 167.476 189.983  0.00  0.00    -0.300 N 
ATOM     34  C   ALA A   3     145.831 168.287 189.655  0.00  0.00    +0.234 C 
ATOM     35  O   ALA A   3     146.027 168.640 188.495  0.00  0.00    -0.274 OA
ATOM     36  CA  ALA A   3     146.726 168.669 190.843  0.00  0.00    +0.097 C 
ATOM     37  N   ALA A   3     147.411 167.480 191.339  0.00  0.00    -0.303 N 
ATOM     38  C   UNK A   2     147.876 167.418 192.640  0.00  0.00    +0.234 C 
ATOM     39  O   UNK A   2     147.465 168.193 193.503  0.00  0.00    -0.274 OA
ATOM     40  C   UNK A   2     148.812 166.214 192.948  0.00  0.00    +0.102 C 
ATOM     41  N   UNK A   2     149.536 165.803 191.749  0.00  0.00    -0.302 N 
ATOM     42  C   UNK A   1     150.451 166.592 191.090  0.00  0.00    +0.234 C 
ATOM     43  O   UNK A   1     150.725 167.737 191.444  0.00  0.00    -0.274 OA
ATOM     44  HA  ALA A   7     151.012 161.384 190.151  0.00  0.00    +0.059 HD
ATOM     45  H   UNK A   1     149.674 164.466 189.203  0.00  0.00    +0.150 HD
ATOM     46  H   UNK A   1     152.146 165.949 189.978  0.00  0.00    +0.060 HD
ATOM     47  H   UNK A   1     149.706 167.270 188.755  0.00  0.00    +0.034 HD
ATOM     48  H   UNK A   1     151.373 167.784 188.678  0.00  0.00    +0.034 HD
ATOM     49  H   UNK A   5     149.941 165.511 184.301  0.00  0.00    +0.166 HD
ATOM     50  H   UNK A   5     152.349 164.233 183.590  0.00  0.00    +0.064 HD
ATOM     51  H   UNK A   5     154.614 163.742 184.491  0.00  0.00    +0.062 HD
ATOM     52  H   UNK A   5     155.238 164.456 186.772  0.00  0.00    +0.062 HD
ATOM     53  H   UNK A   5     153.632 165.665 188.199  0.00  0.00    +0.062 HD
ATOM     54  H   UNK A   5     146.747 165.465 185.025  0.00  0.00    +0.040 HD
ATOM     55  H   UNK A   5     147.958 164.426 185.767  0.00  0.00    +0.040 HD
ATOM     56  H   UNK A   5     145.579 164.214 186.613  0.00  0.00    +0.060 HD
ATOM     57  HD1 HYP A   6     146.503 162.084 186.587  0.00  0.00    +0.049 HD
ATOM     58  HD2 HYP A   6     145.034 162.229 187.608  0.00  0.00    +0.049 HD
ATOM     59  HG  HYP A   6     145.618 159.882 187.952  0.00  0.00    +0.061 HD
ATOM     60  HB1 HYP A   6     145.320 161.014 190.085  0.00  0.00    +0.031 HD
ATOM     61  HB2 HYP A   6     146.883 160.199 190.330  0.00  0.00    +0.031 HD
ATOM     62  HA  HYP A   6     146.517 162.966 190.566  0.00  0.00    +0.060 HD
ATOM     63  H   ALA A   7     149.005 162.172 188.220  0.00  0.00    +0.149 HD
ATOM     64  H   UNK A   5     145.939 166.963 187.622  0.00  0.00    +0.150 HD
ATOM     65  HA  THR A   4     143.614 167.854 188.289  0.00  0.00    +0.062 HD
ATOM     66  H   THR A   4     144.654 167.191 190.952  0.00  0.00    +0.150 HD
ATOM     67  HA  ALA A   3     146.079 169.065 191.635  0.00  0.00    +0.059 HD
ATOM     68  H   ALA A   3     147.721 166.765 190.685  0.00  0.00    +0.149 HD
ATOM     69  H   UNK A   2     148.136 165.382 193.180  0.00  0.00    +0.060 HD
ATOM     70  H   UNK A   2     149.576 164.805 191.554  0.00  0.00    +0.150 HD
ENDROOT
BRANCH   1  71
ATOM     71  CB  ALA A   7     151.531 161.813 188.090  0.00  0.00    -0.038 C 
ATOM     72  HB1 ALA A   7     152.423 162.433 187.957  0.00  0.00    +0.025 HD
ATOM     73  HB2 ALA A   7     151.833 160.761 188.074  0.00  0.00    +0.025 HD
ATOM     74  HB3 ALA A   7     150.872 161.980 187.231  0.00  0.00    +0.025 HD
ENDBRANCH   1  71
BRANCH  36  75
ATOM     75  CB  ALA A   3     147.735 169.741 190.448  0.00  0.00    -0.038 C 
ATOM     76  HB1 ALA A   3     148.709 169.297 190.216  0.00  0.00    +0.025 HD
ATOM     77  HB2 ALA A   3     147.403 170.291 189.559  0.00  0.00    +0.025 HD
ATOM     78  HB3 ALA A   3     147.874 170.466 191.256  0.00  0.00    +0.025 HD
ENDBRANCH  36  75
BRANCH  40  79
ATOM     79  C   UNK A   2     149.698 166.509 194.169  0.00  0.00    +0.005 C 
ATOM     80  H   UNK A   2     149.025 166.829 194.978  0.00  0.00    +0.032 HD
ATOM     81  H   UNK A   2     150.346 167.372 193.972  0.00  0.00    +0.032 HD
BRANCH  79  82
ATOM     82  C   UNK A   2     150.546 165.347 194.731  0.00  0.00    +0.088 C 
BRANCH  82  83
ATOM     83  C   UNK A   2     150.226 165.184 196.224  0.00  0.00    -0.034 C 
ATOM     84  H   UNK A   2     151.144 165.149 196.822  0.00  0.00    +0.026 HD
ATOM     85  H   UNK A   2     149.653 166.040 196.596  0.00  0.00    +0.026 HD
ATOM     86  H   UNK A   2     149.651 164.271 196.414  0.00  0.00    +0.026 HD
ENDBRANCH  82  83
BRANCH  82  87
ATOM     87  C   UNK A   2     152.068 165.540 194.571  0.00  0.00    +0.073 C 
ATOM     88  H   UNK A   2     152.574 165.591 195.540  0.00  0.00    +0.059 HD
ATOM     89  H   UNK A   2     152.506 164.719 193.992  0.00  0.00    +0.059 HD
BRANCH  87  90
ATOM     90  O   UNK A   2     152.326 166.730 193.829  0.00  0.00    -0.392 OA
ATOM     91  H   UNK A   2     152.296 167.465 194.478  0.00  0.00    +0.210 HD
ENDBRANCH  87  90
ENDBRANCH  82  87
BRANCH  82  92
ATOM     92  O   UNK A   2     150.163 164.126 194.079  0.00  0.00    -0.387 OA
ATOM     93  H   UNK A   2     149.186 164.078 194.176  0.00  0.00    +0.210 HD
ENDBRANCH  82  92
ENDBRANCH  79  82
ENDBRANCH  40  79
BRANCH  23  94
ATOM     94  OD  HYP A   6     147.650 160.160 187.836  0.00  0.00    -0.390 OA
ATOM     95  HD  HYP A   6     148.319 160.705 188.294  0.00  0.00    +0.210 HD
ENDBRANCH  23  94
BRANCH  32  96
ATOM     96  CB  THR A   4     142.439 166.692 189.711  0.00  0.00    +0.079 C 
ATOM     97  HB  THR A   4     141.951 167.608 190.069  0.00  0.00    +0.061 HD
BRANCH  96  98
ATOM     98  CG2 THR A   4     142.629 165.731 190.880  0.00  0.00    -0.037 C 
ATOM     99 HG21 THR A   4     142.088 164.797 190.691  0.00  0.00    +0.026 HD
ATOM    100 HG22 THR A   4     142.268 166.155 191.821  0.00  0.00    +0.026 HD
ATOM    101 HG23 THR A   4     143.683 165.462 190.999  0.00  0.00    +0.026 HD
ENDBRANCH  96  98
BRANCH  96 102
ATOM    102  OG1 THR A   4     141.520 166.090 188.785  0.00  0.00    -0.390 OA
ATOM    103  HG1 THR A   4     140.820 166.739 188.591  0.00  0.00    +0.210 HD
ENDBRANCH  96 102
ENDBRANCH  32  96
TORSDOF 12
ENDMDL
MODEL 8
REMARK VINA RESULT:      -5.8      2.622      7.909
REMARK  Name = Phalloidin_conf1
REMARK  12 active torsions:
REMARK  status: ('A' for Active; 'I' for Inactive)
REMARK    1  A    between atoms: CB_1  and  CA_2
REMARK    2  A    between atoms: CG_24  and  OD_30
REMARK    3  A    between atoms: CA_34  and  CB_53
REMARK    4  A    between atoms: CA_38  and  CB_52
REMARK    5  A    between atoms: C_42  and  C_46
REMARK    6  A    between atoms: C_46  and  C_47
REMARK    7  A    between atoms: C_47  and  C_48
REMARK    8  A    between atoms: C_47  and  C_49
REMARK    9  A    between atoms: C_47  and  O_51
REMARK   10  A    between atoms: C_49  and  O_50
REMARK   11  A    between atoms: CB_53  and  CG2_54
REMARK   12  A    between atoms: CB_53  and  OG1_55
REMARK                            x       y       z     vdW  Elec       q    Type
REMARK                         _______ _______ _______ _____ _____    ______ ____
ROOT
ATOM      1  CA  ALA A   7     151.300 167.931 189.996  0.00  0.00    +0.097 C 
ATOM      2  C   ALA A   7     152.305 166.809 190.332  0.00  0.00    +0.234 C 
ATOM      3  O   ALA A   7     153.391 167.040 190.865  0.00  0.00    -0.274 OA
ATOM      4  N   UNK A   1     151.848 165.531 190.108  0.00  0.00    -0.302 N 
ATOM      5  C   UNK A   1     152.562 164.337 190.563  0.00  0.00    +0.103 C 
ATOM      6  C   UNK A   1     151.606 163.272 191.130  0.00  0.00    +0.002 C 
ATOM      7  C   UNK A   1     150.446 163.805 191.929  0.00  0.00    -0.006 A 
ATOM      8  C   UNK A   5     149.108 163.552 191.703  0.00  0.00    +0.078 A 
ATOM      9  N   UNK A   5     148.372 164.168 192.673  0.00  0.00    -0.349 N 
ATOM     10  C   UNK A   5     149.191 164.896 193.500  0.00  0.00    +0.048 A 
ATOM     11  C   UNK A   5     148.872 165.711 194.592  0.00  0.00    -0.038 A 
ATOM     12  C   UNK A   5     149.928 166.327 195.271  0.00  0.00    -0.060 A 
ATOM     13  C   UNK A   5     151.246 166.123 194.878  0.00  0.00    -0.061 A 
ATOM     14  C   UNK A   5     151.548 165.293 193.791  0.00  0.00    -0.052 A 
ATOM     15  C   UNK A   5     150.503 164.671 193.075  0.00  0.00    +0.004 A 
ATOM     16  S   UNK A   5     148.305 162.573 190.521  0.00  0.00    -0.105 S 
ATOM     17  C   UNK A   5     147.227 163.775 189.670  0.00  0.00    +0.027 C 
ATOM     18  C   UNK A   5     147.493 163.949 188.171  0.00  0.00    +0.109 C 
ATOM     19  C   UNK A   5     148.737 164.829 187.904  0.00  0.00    +0.237 C 
ATOM     20  O   UNK A   5     149.888 164.408 188.069  0.00  0.00    -0.274 OA
ATOM     21  N   HYP A   6     148.522 166.101 187.412  0.00  0.00    -0.286 N 
ATOM     22  CD  HYP A   6     147.243 166.778 187.233  0.00  0.00    +0.042 C 
ATOM     23  CG  HYP A   6     147.628 168.205 186.854  0.00  0.00    +0.073 C 
ATOM     24  CB  HYP A   6     148.902 168.007 186.039  0.00  0.00    +0.002 C 
ATOM     25  CA  HYP A   6     149.601 166.833 186.736  0.00  0.00    +0.105 C 
ATOM     26  C   HYP A   6     150.708 167.341 187.668  0.00  0.00    +0.234 C 
ATOM     27  O   HYP A   6     151.815 167.661 187.243  0.00  0.00    -0.274 OA
ATOM     28  N   ALA A   7     150.345 167.492 188.983  0.00  0.00    -0.303 N 
ATOM     29  N   UNK A   5     147.699 162.713 187.431  0.00  0.00    -0.302 N 
ATOM     30  C   THR A   4     147.568 162.691 186.057  0.00  0.00    +0.237 C 
ATOM     31  O   THR A   4     147.021 163.611 185.449  0.00  0.00    -0.274 OA
ATOM     32  CA  THR A   4     148.137 161.432 185.368  0.00  0.00    +0.125 C 
ATOM     33  N   THR A   4     149.571 161.329 185.675  0.00  0.00    -0.300 N 
ATOM     34  C   ALA A   3     150.049 160.785 186.844  0.00  0.00    +0.234 C 
ATOM     35  O   ALA A   3     149.284 160.405 187.728  0.00  0.00    -0.274 OA
ATOM     36  CA  ALA A   3     151.580 160.729 186.936  0.00  0.00    +0.097 C 
ATOM     37  N   ALA A   3     152.115 162.084 187.007  0.00  0.00    -0.303 N 
ATOM     38  C   UNK A   2     153.413 162.358 186.617  0.00  0.00    +0.234 C 
ATOM     39  O   UNK A   2     154.049 161.572 185.914  0.00  0.00    -0.274 OA
ATOM     40  C   UNK A   2     153.929 163.776 186.994  0.00  0.00    +0.102 C 
ATOM     41  N   UNK A   2     153.265 164.263 188.200  0.00  0.00    -0.302 N 
ATOM     42  C   UNK A   1     153.390 163.679 189.441  0.00  0.00    +0.234 C 
ATOM     43  O   UNK A   1     154.060 162.668 189.640  0.00  0.00    -0.274 OA
ATOM     44  HA  ALA A   7     151.870 168.777 189.592  0.00  0.00    +0.059 HD
ATOM     45  H   UNK A   1     150.998 165.396 189.565  0.00  0.00    +0.150 HD
ATOM     46  H   UNK A   1     153.279 164.637 191.335  0.00  0.00    +0.060 HD
ATOM     47  H   UNK A   1     151.223 162.663 190.301  0.00  0.00    +0.034 HD
ATOM     48  H   UNK A   1     152.175 162.575 191.763  0.00  0.00    +0.034 HD
ATOM     49  H   UNK A   5     147.372 164.085 192.778  0.00  0.00    +0.166 HD
ATOM     50  H   UNK A   5     147.847 165.864 194.910  0.00  0.00    +0.064 HD
ATOM     51  H   UNK A   5     149.714 166.969 196.123  0.00  0.00    +0.062 HD
ATOM     52  H   UNK A   5     152.055 166.607 195.421  0.00  0.00    +0.062 HD
ATOM     53  H   UNK A   5     152.585 165.147 193.506  0.00  0.00    +0.062 HD
ATOM     54  H   UNK A   5     146.208 163.389 189.797  0.00  0.00    +0.040 HD
ATOM     55  H   UNK A   5     147.261 164.750 190.170  0.00  0.00    +0.040 HD
ATOM     56  H   UNK A   5     146.608 164.426 187.743  0.00  0.00    +0.060 HD
ATOM     57  HD1 HYP A   6     146.656 166.710 188.154  0.00  0.00    +0.049 HD
ATOM     58  HD2 HYP A   6     146.714 166.282 186.413  0.00  0.00    +0.049 HD
ATOM     59  HG  HYP A   6     146.834 168.719 186.303  0.00  0.00    +0.061 HD
ATOM     60  HB1 HYP A   6     148.636 167.714 185.015  0.00  0.00    +0.031 HD
ATOM     61  HB2 HYP A   6     149.522 168.907 185.993  0.00  0.00    +0.031 HD
ATOM     62  HA  HYP A   6     150.078 166.162 186.010  0.00  0.00    +0.060 HD
ATOM     63  H   ALA A   7     149.367 167.371 189.228  0.00  0.00    +0.149 HD
ATOM     64  H   UNK A   5     148.184 161.937 187.891  0.00  0.00    +0.150 HD
ATOM     65  HA  THR A   4     147.640 160.549 185.789  0.00  0.00    +0.062 HD
ATOM     66  H   THR A   4     150.237 161.649 184.976  0.00  0.00    +0.150 HD
ATOM     67  HA  ALA A   3     151.952 160.245 186.024  0.00  0.00    +0.059 HD
ATOM     68  H   ALA A   3     151.606 162.802 187.517  0.00  0.00    +0.149 HD
ATOM     69  H   UNK A   2     153.579 164.429 186.186  0.00  0.00    +0.060 HD
ATOM     70  H   UNK A   2     152.924 165.222 188.184  0.00  0.00    +0.150 HD
ENDROOT
BRANCH   1  71
ATOM     71  CB  ALA A   7     150.565 168.337 191.266  0.00  0.00    -0.038 C 
ATOM     72  HB1 ALA A   7     149.559 168.706 191.041  0.00  0.00    +0.025 HD
ATOM     73  HB2 ALA A   7     150.478 167.489 191.953  0.00  0.00    +0.025 HD
ATOM     74  HB3 ALA A   7     151.107 169.131 191.790  0.00  0.00    +0.025 HD
ENDBRANCH   1  71
BRANCH  36  75
ATOM     75  CB  ALA A   3     152.028 159.914 188.144  0.00  0.00    -0.038 C 
ATOM     76  HB1 ALA A   3     151.519 158.945 188.175  0.00  0.00    +0.025 HD
ATOM     77  HB2 ALA A   3     153.106 159.720 188.116  0.00  0.00    +0.025 HD
ATOM     78  HB3 ALA A   3     151.809 160.443 189.077  0.00  0.00    +0.025 HD
ENDBRANCH  36  75
BRANCH  40  79
ATOM     79  C   UNK A   2     155.465 163.804 187.046  0.00  0.00    +0.005 C 
ATOM     80  H   UNK A   2     155.821 163.392 186.090  0.00  0.00    +0.032 HD
ATOM     81  H   UNK A   2     155.834 163.113 187.815  0.00  0.00    +0.032 HD
BRANCH  79  82
ATOM     82  C   UNK A   2     156.147 165.178 187.218  0.00  0.00    +0.088 C 
BRANCH  82  83
ATOM     83  C   UNK A   2     156.565 165.338 188.686  0.00  0.00    -0.034 C 
ATOM     84  H   UNK A   2     157.561 164.913 188.861  0.00  0.00    +0.026 HD
ATOM     85  H   UNK A   2     156.635 166.396 188.959  0.00  0.00    +0.026 HD
ATOM     86  H   UNK A   2     155.855 164.851 189.362  0.00  0.00    +0.026 HD
ENDBRANCH  82  83
BRANCH  82  87
ATOM     87  C   UNK A   2     155.259 166.378 186.824  0.00  0.00    +0.073 C 
ATOM     88  H   UNK A   2     155.798 167.089 186.188  0.00  0.00    +0.059 HD
ATOM     89  H   UNK A   2     154.364 166.041 186.290  0.00  0.00    +0.059 HD
BRANCH  87  90
ATOM     90  O   UNK A   2     154.797 167.039 188.000  0.00  0.00    -0.392 OA
ATOM     91  H   UNK A   2     155.379 167.819 188.119  0.00  0.00    +0.210 HD
ENDBRANCH  87  90
ENDBRANCH  82  87
BRANCH  82  92
ATOM     92  O   UNK A   2     157.346 165.213 186.429  0.00  0.00    -0.387 OA
ATOM     93  H   UNK A   2     157.177 164.600 185.678  0.00  0.00    +0.210 HD
ENDBRANCH  82  92
ENDBRANCH  79  82
ENDBRANCH  40  79
BRANCH  23  94
ATOM     94  OD  HYP A   6     147.905 168.948 188.042  0.00  0.00    -0.390 OA
ATOM     95  HD  HYP A   6     148.728 168.590 188.426  0.00  0.00    +0.210 HD
ENDBRANCH  23  94
BRANCH  32  96
ATOM     96  CB  THR A   4     147.919 161.486 183.839  0.00  0.00    +0.079 C 
ATOM     97  HB  THR A   4     146.864 161.693 183.612  0.00  0.00    +0.061 HD
BRANCH  96  98
ATOM     98  CG2 THR A   4     148.343 160.197 183.142  0.00  0.00    -0.037 C 
ATOM     99 HG21 THR A   4     148.489 159.401 183.880  0.00  0.00    +0.026 HD
ATOM    100 HG22 THR A   4     149.272 160.324 182.580  0.00  0.00    +0.026 HD
ATOM    101 HG23 THR A   4     147.564 159.848 182.456  0.00  0.00    +0.026 HD
ENDBRANCH  96  98
BRANCH  96 102
ATOM    102  OG1 THR A   4     148.668 162.570 183.266  0.00  0.00    -0.390 OA
ATOM    103  HG1 THR A   4     148.451 163.380 183.761  0.00  0.00    +0.210 HD
ENDBRANCH  96 102
ENDBRANCH  32  96
TORSDOF 12
ENDMDL
MODEL 9
REMARK VINA RESULT:      -5.7     17.977     21.054
REMARK  Name = Phalloidin_conf1
REMARK  12 active torsions:
REMARK  status: ('A' for Active; 'I' for Inactive)
REMARK    1  A    between atoms: CB_1  and  CA_2
REMARK    2  A    between atoms: CG_24  and  OD_30
REMARK    3  A    between atoms: CA_34  and  CB_53
REMARK    4  A    between atoms: CA_38  and  CB_52
REMARK    5  A    between atoms: C_42  and  C_46
REMARK    6  A    between atoms: C_46  and  C_47
REMARK    7  A    between atoms: C_47  and  C_48
REMARK    8  A    between atoms: C_47  and  C_49
REMARK    9  A    between atoms: C_47  and  O_51
REMARK   10  A    between atoms: C_49  and  O_50
REMARK   11  A    between atoms: CB_53  and  CG2_54
REMARK   12  A    between atoms: CB_53  and  OG1_55
REMARK                            x       y       z     vdW  Elec       q    Type
REMARK                         _______ _______ _______ _____ _____    ______ ____
ROOT
ATOM      1  CA  ALA A   7     136.212 156.061 201.176  0.00  0.00    +0.097 C 
ATOM      2  C   ALA A   7     136.146 154.750 200.366  0.00  0.00    +0.234 C 
ATOM      3  O   ALA A   7     136.955 153.836 200.532  0.00  0.00    -0.274 OA
ATOM      4  N   UNK A   1     135.052 154.628 199.541  0.00  0.00    -0.302 N 
ATOM      5  C   UNK A   1     134.700 153.381 198.862  0.00  0.00    +0.103 C 
ATOM      6  C   UNK A   1     133.183 153.118 198.886  0.00  0.00    +0.002 C 
ATOM      7  C   UNK A   1     132.481 153.506 200.161  0.00  0.00    -0.006 A 
ATOM      8  C   UNK A   5     131.398 154.355 200.276  0.00  0.00    +0.078 A 
ATOM      9  N   UNK A   5     131.015 154.407 201.585  0.00  0.00    -0.349 N 
ATOM     10  C   UNK A   5     131.874 153.669 202.360  0.00  0.00    +0.048 A 
ATOM     11  C   UNK A   5     131.894 153.473 203.746  0.00  0.00    -0.038 A 
ATOM     12  C   UNK A   5     132.890 152.644 204.271  0.00  0.00    -0.060 A 
ATOM     13  C   UNK A   5     133.818 152.028 203.438  0.00  0.00    -0.061 A 
ATOM     14  C   UNK A   5     133.776 152.225 202.052  0.00  0.00    -0.052 A 
ATOM     15  C   UNK A   5     132.792 153.069 201.494  0.00  0.00    +0.004 A 
ATOM     16  S   UNK A   5     130.478 155.216 199.087  0.00  0.00    -0.105 S 
ATOM     17  C   UNK A   5     130.668 156.953 199.614  0.00  0.00    +0.027 C 
ATOM     18  C   UNK A   5     131.342 157.878 198.595  0.00  0.00    +0.109 C 
ATOM     19  C   UNK A   5     132.876 157.687 198.568  0.00  0.00    +0.237 C 
ATOM     20  O   UNK A   5     133.407 156.702 198.040  0.00  0.00    -0.274 OA
ATOM     21  N   HYP A   6     133.652 158.691 199.109  0.00  0.00    -0.286 N 
ATOM     22  CD  HYP A   6     133.195 159.872 199.833  0.00  0.00    +0.042 C 
ATOM     23  CG  HYP A   6     134.481 160.507 200.357  0.00  0.00    +0.073 C 
ATOM     24  CB  HYP A   6     135.484 160.205 199.249  0.00  0.00    +0.002 C 
ATOM     25  CA  HYP A   6     135.072 158.812 198.756  0.00  0.00    +0.105 C 
ATOM     26  C   HYP A   6     135.976 157.735 199.370  0.00  0.00    +0.234 C 
ATOM     27  O   HYP A   6     137.092 157.492 198.919  0.00  0.00    -0.274 OA
ATOM     28  N   ALA A   7     135.484 157.131 200.501  0.00  0.00    -0.303 N 
ATOM     29  N   UNK A   5     130.885 157.724 197.222  0.00  0.00    -0.302 N 
ATOM     30  C   THR A   4     131.114 158.719 196.294  0.00  0.00    +0.237 C 
ATOM     31  O   THR A   4     131.451 159.853 196.637  0.00  0.00    -0.274 OA
ATOM     32  CA  THR A   4     130.895 158.302 194.824  0.00  0.00    +0.125 C 
ATOM     33  N   THR A   4     131.799 157.189 194.505  0.00  0.00    -0.300 N 
ATOM     34  C   ALA A   3     131.513 155.880 194.816  0.00  0.00    +0.234 C 
ATOM     35  O   ALA A   3     130.495 155.582 195.437  0.00  0.00    -0.274 OA
ATOM     36  CA  ALA A   3     132.572 154.872 194.346  0.00  0.00    +0.097 C 
ATOM     37  N   ALA A   3     133.809 155.083 195.089  0.00  0.00    -0.303 N 
ATOM     38  C   UNK A   2     135.027 154.682 194.571  0.00  0.00    +0.234 C 
ATOM     39  O   UNK A   2     135.162 154.436 193.372  0.00  0.00    -0.274 OA
ATOM     40  C   UNK A   2     136.216 154.724 195.573  0.00  0.00    +0.102 C 
ATOM     41  N   UNK A   2     135.746 154.519 196.941  0.00  0.00    -0.302 N 
ATOM     42  C   UNK A   1     135.159 153.358 197.390  0.00  0.00    +0.234 C 
ATOM     43  O   UNK A   1     134.954 152.387 196.664  0.00  0.00    -0.274 OA
ATOM     44  HA  ALA A   7     137.266 156.353 201.251  0.00  0.00    +0.059 HD
ATOM     45  H   UNK A   1     134.480 155.448 199.353  0.00  0.00    +0.150 HD
ATOM     46  H   UNK A   1     135.224 152.557 199.359  0.00  0.00    +0.060 HD
ATOM     47  H   UNK A   1     132.718 153.646 198.044  0.00  0.00    +0.034 HD
ATOM     48  H   UNK A   1     132.997 152.050 198.697  0.00  0.00    +0.034 HD
ATOM     49  H   UNK A   5     130.207 154.903 201.930  0.00  0.00    +0.166 HD
ATOM     50  H   UNK A   5     131.165 153.941 204.398  0.00  0.00    +0.064 HD
ATOM     51  H   UNK A   5     132.934 152.473 205.344  0.00  0.00    +0.062 HD
ATOM     52  H   UNK A   5     134.584 151.383 203.862  0.00  0.00    +0.062 HD
ATOM     53  H   UNK A   5     134.510 151.730 201.422  0.00  0.00    +0.062 HD
ATOM     54  H   UNK A   5     129.648 157.315 199.787  0.00  0.00    +0.040 HD
ATOM     55  H   UNK A   5     131.192 157.013 200.575  0.00  0.00    +0.040 HD
ATOM     56  H   UNK A   5     131.106 158.904 198.890  0.00  0.00    +0.060 HD
ATOM     57  HD1 HYP A   6     132.498 159.576 200.622  0.00  0.00    +0.049 HD
ATOM     58  HD2 HYP A   6     132.695 160.531 199.117  0.00  0.00    +0.049 HD
ATOM     59  HG  HYP A   6     134.365 161.577 200.560  0.00  0.00    +0.061 HD
ATOM     60  HB1 HYP A   6     135.354 160.930 198.434  0.00  0.00    +0.031 HD
ATOM     61  HB2 HYP A   6     136.522 160.248 199.592  0.00  0.00    +0.031 HD
ATOM     62  HA  HYP A   6     135.171 158.727 197.666  0.00  0.00    +0.060 HD
ATOM     63  H   ALA A   7     134.632 157.503 200.912  0.00  0.00    +0.149 HD
ATOM     64  H   UNK A   5     130.631 156.789 196.889  0.00  0.00    +0.150 HD
ATOM     65  HA  THR A   4     129.865 157.940 194.713  0.00  0.00    +0.062 HD
ATOM     66  H   THR A   4     132.661 157.395 194.007  0.00  0.00    +0.150 HD
ATOM     67  HA  ALA A   3     132.758 155.056 193.281  0.00  0.00    +0.059 HD
ATOM     68  H   ALA A   3     133.771 155.353 196.069  0.00  0.00    +0.149 HD
ATOM     69  H   UNK A   2     136.576 155.759 195.542  0.00  0.00    +0.060 HD
ATOM     70  H   UNK A   2     136.113 155.146 197.653  0.00  0.00    +0.150 HD
ENDROOT
BRANCH   1  71
ATOM     71  CB  ALA A   7     135.622 155.821 202.560  0.00  0.00    -0.038 C 
ATOM     72  HB1 ALA A   7     136.046 156.512 203.296  0.00  0.00    +0.025 HD
ATOM     73  HB2 ALA A   7     134.536 155.950 202.547  0.00  0.00    +0.025 HD
ATOM     74  HB3 ALA A   7     135.830 154.800 202.897  0.00  0.00    +0.025 HD
ENDBRANCH   1  71
BRANCH  36  75
ATOM     75  CB  ALA A   3     132.082 153.439 194.521  0.00  0.00    -0.038 C 
ATOM     76  HB1 ALA A   3     132.650 152.750 193.888  0.00  0.00    +0.025 HD
ATOM     77  HB2 ALA A   3     132.195 153.104 195.559  0.00  0.00    +0.025 HD
ATOM     78  HB3 ALA A   3     131.023 153.351 194.256  0.00  0.00    +0.025 HD
ENDBRANCH  36  75
BRANCH  40  79
ATOM     79  C   UNK A   2     137.342 153.777 195.128  0.00  0.00    +0.005 C 
ATOM     80  H   UNK A   2     136.867 152.975 194.544  0.00  0.00    +0.032 HD
ATOM     81  H   UNK A   2     137.788 153.278 195.997  0.00  0.00    +0.032 HD
BRANCH  79  82
ATOM     82  C   UNK A   2     138.461 154.368 194.243  0.00  0.00    +0.088 C 
BRANCH  82  83
ATOM     83  C   UNK A   2     139.082 153.233 193.415  0.00  0.00    -0.034 C 
ATOM     84  H   UNK A   2     139.034 153.456 192.343  0.00  0.00    +0.026 HD
ATOM     85  H   UNK A   2     140.144 153.114 193.653  0.00  0.00    +0.026 HD
ATOM     86  H   UNK A   2     138.575 152.279 193.597  0.00  0.00    +0.026 HD
ENDBRANCH  82  83
BRANCH  82  87
ATOM     87  C   UNK A   2     139.583 155.075 195.031  0.00  0.00    +0.073 C 
ATOM     88  H   UNK A   2     139.361 156.136 195.187  0.00  0.00    +0.059 HD
ATOM     89  H   UNK A   2     139.730 154.603 196.009  0.00  0.00    +0.059 HD
BRANCH  87  90
ATOM     90  O   UNK A   2     140.819 154.938 194.333  0.00  0.00    -0.392 OA
ATOM     91  H   UNK A   2     140.895 153.989 194.102  0.00  0.00    +0.210 HD
ENDBRANCH  87  90
ENDBRANCH  82  87
BRANCH  82  92
ATOM     92  O   UNK A   2     137.886 155.303 193.317  0.00  0.00    -0.387 OA
ATOM     93  H   UNK A   2     138.642 155.629 192.779  0.00  0.00    +0.210 HD
ENDBRANCH  82  92
ENDBRANCH  79  82
ENDBRANCH  40  79
BRANCH  23  94
ATOM     94  OD  HYP A   6     134.864 159.858 201.569  0.00  0.00    -0.390 OA
ATOM     95  HD  HYP A   6     135.711 159.402 201.402  0.00  0.00    +0.210 HD
ENDBRANCH  23  94
BRANCH  32  96
ATOM     96  CB  THR A   4     131.145 159.487 193.864  0.00  0.00    +0.079 C 
ATOM     97  HB  THR A   4     130.521 160.345 194.147  0.00  0.00    +0.061 HD
BRANCH  96  98
ATOM     98  CG2 THR A   4     130.878 159.127 192.407  0.00  0.00    -0.037 C 
ATOM     99 HG21 THR A   4     129.814 158.911 192.261  0.00  0.00    +0.026 HD
ATOM    100 HG22 THR A   4     131.455 158.253 192.090  0.00  0.00    +0.026 HD
ATOM    101 HG23 THR A   4     131.120 159.965 191.745  0.00  0.00    +0.026 HD
ENDBRANCH  96  98
BRANCH  96 102
ATOM    102  OG1 THR A   4     132.507 159.935 193.970  0.00  0.00    -0.390 OA
ATOM    103  HG1 THR A   4     133.015 159.525 193.247  0.00  0.00    +0.210 HD
ENDBRANCH  96 102
ENDBRANCH  32  96
TORSDOF 12
ENDMDL
MODEL 10
REMARK VINA RESULT:      -5.4      2.885      7.810
REMARK  Name = Phalloidin_conf1
REMARK  12 active torsions:
REMARK  status: ('A' for Active; 'I' for Inactive)
REMARK    1  A    between atoms: CB_1  and  CA_2
REMARK    2  A    between atoms: CG_24  and  OD_30
REMARK    3  A    between atoms: CA_34  and  CB_53
REMARK    4  A    between atoms: CA_38  and  CB_52
REMARK    5  A    between atoms: C_42  and  C_46
REMARK    6  A    between atoms: C_46  and  C_47
REMARK    7  A    between atoms: C_47  and  C_48
REMARK    8  A    between atoms: C_47  and  C_49
REMARK    9  A    between atoms: C_47  and  O_51
REMARK   10  A    between atoms: C_49  and  O_50
REMARK   11  A    between atoms: CB_53  and  CG2_54
REMARK   12  A    between atoms: CB_53  and  OG1_55
REMARK                            x       y       z     vdW  Elec       q    Type
REMARK                         _______ _______ _______ _____ _____    ______ ____
ROOT
ATOM      1  CA  ALA A   7     147.034 166.112 191.429  0.00  0.00    +0.097 C 
ATOM      2  C   ALA A   7     146.359 165.271 190.325  0.00  0.00    +0.234 C 
ATOM      3  O   ALA A   7     145.148 165.044 190.322  0.00  0.00    -0.274 OA
ATOM      4  N   UNK A   1     147.184 164.901 189.288  0.00  0.00    -0.302 N 
ATOM      5  C   UNK A   1     146.688 164.293 188.053  0.00  0.00    +0.103 C 
ATOM      6  C   UNK A   1     147.398 164.853 186.807  0.00  0.00    +0.002 C 
ATOM      7  C   UNK A   1     147.710 166.326 186.849  0.00  0.00    -0.006 A 
ATOM      8  C   UNK A   5     148.950 166.908 186.676  0.00  0.00    +0.078 A 
ATOM      9  N   UNK A   5     148.811 168.265 186.727  0.00  0.00    -0.349 N 
ATOM     10  C   UNK A   5     147.510 168.599 187.010  0.00  0.00    +0.048 A 
ATOM     11  C   UNK A   5     146.924 169.856 187.196  0.00  0.00    -0.038 A 
ATOM     12  C   UNK A   5     145.552 169.899 187.461  0.00  0.00    -0.060 A 
ATOM     13  C   UNK A   5     144.799 168.731 187.523  0.00  0.00    -0.061 A 
ATOM     14  C   UNK A   5     145.400 167.482 187.321  0.00  0.00    -0.052 A 
ATOM     15  C   UNK A   5     146.786 167.405 187.069  0.00  0.00    +0.004 A 
ATOM     16  S   UNK A   5     150.507 166.225 186.341  0.00  0.00    -0.105 S 
ATOM     17  C   UNK A   5     151.508 166.796 187.757  0.00  0.00    +0.027 C 
ATOM     18  C   UNK A   5     152.100 165.687 188.632  0.00  0.00    +0.109 C 
ATOM     19  C   UNK A   5     151.046 165.077 189.585  0.00  0.00    +0.237 C 
ATOM     20  O   UNK A   5     150.166 164.305 189.184  0.00  0.00    -0.274 OA
ATOM     21  N   HYP A   6     151.151 165.379 190.927  0.00  0.00    -0.286 N 
ATOM     22  CD  HYP A   6     152.070 166.323 191.553  0.00  0.00    +0.042 C 
ATOM     23  CG  HYP A   6     151.602 166.389 193.005  0.00  0.00    +0.073 C 
ATOM     24  CB  HYP A   6     151.122 164.966 193.271  0.00  0.00    +0.002 C 
ATOM     25  CA  HYP A   6     150.496 164.538 191.937  0.00  0.00    +0.105 C 
ATOM     26  C   HYP A   6     148.969 164.677 191.989  0.00  0.00    +0.234 C 
ATOM     27  O   HYP A   6     148.260 163.826 192.518  0.00  0.00    -0.274 OA
ATOM     28  N   ALA A   7     148.468 165.851 191.483  0.00  0.00    -0.303 N 
ATOM     29  N   UNK A   5     152.689 164.572 187.903  0.00  0.00    -0.302 N 
ATOM     30  C   THR A   4     153.573 163.717 188.530  0.00  0.00    +0.237 C 
ATOM     31  O   THR A   4     154.098 164.010 189.605  0.00  0.00    -0.274 OA
ATOM     32  CA  THR A   4     153.854 162.402 187.773  0.00  0.00    +0.125 C 
ATOM     33  N   THR A   4     152.589 161.673 187.597  0.00  0.00    -0.300 N 
ATOM     34  C   ALA A   3     151.701 161.951 186.585  0.00  0.00    +0.234 C 
ATOM     35  O   ALA A   3     151.900 162.875 185.800  0.00  0.00    -0.274 OA
ATOM     36  CA  ALA A   3     150.469 161.035 186.556  0.00  0.00    +0.097 C 
ATOM     37  N   ALA A   3     149.649 161.284 187.737  0.00  0.00    -0.303 N 
ATOM     38  C   UNK A   2     148.783 160.318 188.218  0.00  0.00    +0.234 C 
ATOM     39  O   UNK A   2     148.894 159.138 187.886  0.00  0.00    -0.274 OA
ATOM     40  C   UNK A   2     147.788 160.810 189.308  0.00  0.00    +0.102 C 
ATOM     41  N   UNK A   2     147.495 162.230 189.137  0.00  0.00    -0.302 N 
ATOM     42  C   UNK A   1     146.853 162.760 188.040  0.00  0.00    +0.234 C 
ATOM     43  O   UNK A   1     146.487 162.078 187.085  0.00  0.00    -0.274 OA
ATOM     44  HA  ALA A   7     146.592 165.817 192.388  0.00  0.00    +0.059 HD
ATOM     45  H   UNK A   1     148.190 165.012 189.391  0.00  0.00    +0.150 HD
ATOM     46  H   UNK A   1     145.612 164.486 187.981  0.00  0.00    +0.060 HD
ATOM     47  H   UNK A   1     148.329 164.293 186.647  0.00  0.00    +0.034 HD
ATOM     48  H   UNK A   1     146.783 164.652 185.918  0.00  0.00    +0.034 HD
ATOM     49  H   UNK A   5     149.554 168.927 186.562  0.00  0.00    +0.166 HD
ATOM     50  H   UNK A   5     147.504 170.770 187.137  0.00  0.00    +0.064 HD
ATOM     51  H   UNK A   5     145.065 170.860 187.613  0.00  0.00    +0.062 HD
ATOM     52  H   UNK A   5     143.732 168.783 187.726  0.00  0.00    +0.062 HD
ATOM     53  H   UNK A   5     144.791 166.585 187.372  0.00  0.00    +0.062 HD
ATOM     54  H   UNK A   5     152.334 167.365 187.315  0.00  0.00    +0.040 HD
ATOM     55  H   UNK A   5     150.938 167.496 188.379  0.00  0.00    +0.040 HD
ATOM     56  H   UNK A   5     152.906 166.138 189.217  0.00  0.00    +0.060 HD
ATOM     57  HD1 HYP A   6     152.026 167.284 191.033  0.00  0.00    +0.049 HD
ATOM     58  HD2 HYP A   6     153.079 165.904 191.484  0.00  0.00    +0.049 HD
ATOM     59  HG  HYP A   6     152.396 166.714 193.685  0.00  0.00    +0.061 HD
ATOM     60  HB1 HYP A   6     151.987 164.325 193.486  0.00  0.00    +0.031 HD
ATOM     61  HB2 HYP A   6     150.423 164.903 194.110  0.00  0.00    +0.031 HD
ATOM     62  HA  HYP A   6     150.713 163.486 191.711  0.00  0.00    +0.060 HD
ATOM     63  H   ALA A   7     149.127 166.579 191.219  0.00  0.00    +0.149 HD
ATOM     64  H   UNK A   5     152.256 164.275 187.023  0.00  0.00    +0.150 HD
ATOM     65  HA  THR A   4     154.240 162.648 186.776  0.00  0.00    +0.062 HD
ATOM     66  H   THR A   4     152.379 160.912 188.238  0.00  0.00    +0.150 HD
ATOM     67  HA  ALA A   3     150.823 159.998 186.578  0.00  0.00    +0.059 HD
ATOM     68  H   ALA A   3     149.566 162.228 188.106  0.00  0.00    +0.149 HD
ATOM     69  H   UNK A   2     148.344 160.739 190.250  0.00  0.00    +0.060 HD
ATOM     70  H   UNK A   2     147.514 162.809 189.974  0.00  0.00    +0.150 HD
ENDROOT
BRANCH   1  71
ATOM     71  CB  ALA A   7     146.781 167.588 191.153  0.00  0.00    -0.038 C 
ATOM     72  HB1 ALA A   7     145.751 167.759 190.824  0.00  0.00    +0.025 HD
ATOM     73  HB2 ALA A   7     146.963 168.188 192.050  0.00  0.00    +0.025 HD
ATOM     74  HB3 ALA A   7     147.451 167.955 190.368  0.00  0.00    +0.025 HD
ENDBRANCH   1  71
BRANCH  36  75
ATOM     75  CB  ALA A   3     149.654 161.252 185.286  0.00  0.00    -0.038 C 
ATOM     76  HB1 ALA A   3     148.621 161.527 185.525  0.00  0.00    +0.025 HD
ATOM     77  HB2 ALA A   3     150.078 162.056 184.674  0.00  0.00    +0.025 HD
ATOM     78  HB3 ALA A   3     149.631 160.344 184.675  0.00  0.00    +0.025 HD
ENDBRANCH  36  75
BRANCH  40  79
ATOM     79  C   UNK A   2     146.553 159.897 189.373  0.00  0.00    +0.005 C 
ATOM     80  H   UNK A   2     146.350 159.567 188.344  0.00  0.00    +0.032 HD
ATOM     81  H   UNK A   2     145.668 160.473 189.672  0.00  0.00    +0.032 HD
BRANCH  79  82
ATOM     82  C   UNK A   2     146.654 158.622 190.237  0.00  0.00    +0.088 C 
BRANCH  82  83
ATOM     83  C   UNK A   2     146.429 157.400 189.336  0.00  0.00    -0.034 C 
ATOM     84  H   UNK A   2     146.379 157.692 188.280  0.00  0.00    +0.026 HD
ATOM     85  H   UNK A   2     147.265 156.696 189.416  0.00  0.00    +0.026 HD
ATOM     86  H   UNK A   2     145.505 156.873 189.596  0.00  0.00    +0.026 HD
ENDBRANCH  82  83
BRANCH  82  87
ATOM     87  C   UNK A   2     145.647 158.567 191.404  0.00  0.00    +0.073 C 
ATOM     88  H   UNK A   2     146.038 157.993 192.251  0.00  0.00    +0.059 HD
ATOM     89  H   UNK A   2     145.399 159.576 191.752  0.00  0.00    +0.059 HD
BRANCH  87  90
ATOM     90  O   UNK A   2     144.423 157.989 190.956  0.00  0.00    -0.392 OA
ATOM     91  H   UNK A   2     143.812 158.739 190.795  0.00  0.00    +0.210 HD
ENDBRANCH  87  90
ENDBRANCH  82  87
BRANCH  82  92
ATOM     92  O   UNK A   2     147.984 158.517 190.769  0.00  0.00    -0.387 OA
ATOM     93  H   UNK A   2     148.567 158.911 190.082  0.00  0.00    +0.210 HD
ENDBRANCH  82  92
ENDBRANCH  79  82
ENDBRANCH  40  79
BRANCH  23  94
ATOM     94  OD  HYP A   6     150.517 167.310 193.107  0.00  0.00    -0.390 OA
ATOM     95  HD  HYP A   6     149.914 167.137 192.359  0.00  0.00    +0.210 HD
ENDBRANCH  23  94
BRANCH  32  96
ATOM     96  CB  THR A   4     154.874 161.527 188.535  0.00  0.00    +0.079 C 
ATOM     97  HB  THR A   4     155.782 162.104 188.756  0.00  0.00    +0.061 HD
BRANCH  96  98
ATOM     98  CG2 THR A   4     155.252 160.265 187.767  0.00  0.00    -0.037 C 
ATOM     99 HG21 THR A   4     154.722 159.400 188.180  0.00  0.00    +0.026 HD
ATOM    100 HG22 THR A   4     156.327 160.065 187.812  0.00  0.00    +0.026 HD
ATOM    101 HG23 THR A   4     154.955 160.341 186.716  0.00  0.00    +0.026 HD
ENDBRANCH  96  98
BRANCH  96 102
ATOM    102  OG1 THR A   4     154.338 161.129 189.808  0.00  0.00    -0.390 OA
ATOM    103  HG1 THR A   4     154.365 160.156 189.855  0.00  0.00    +0.210 HD
ENDBRANCH  96 102
ENDBRANCH  32  96
TORSDOF 12
ENDMDL
