MODEL 1
REMARK VINA RESULT:      -6.2      0.000      0.000
REMARK  Name = Phalloidin_conf2
REMARK  12 active torsions:
REMARK  status: ('A' for Active; 'I' for Inactive)
REMARK    1  A    between atoms: CB_1  and  CA_2
REMARK    2  A    between atoms: CG_24  and  OD_30
REMARK    3  A    between atoms: CA_34  and  CB_53
REMARK    4  A    between atoms: CA_38  and  CB_52
REMARK    5  A    between atoms: C_42  and  C_46
REMARK    6  A    between atoms: C_46  and  C_47
REMARK    7  A    between atoms: C_47  and  C_48
REMARK    8  A    between atoms: C_47  and  C_49
REMARK    9  A    between atoms: C_47  and  O_51
REMARK   10  A    between atoms: C_49  and  O_50
REMARK   11  A    between atoms: CB_53  and  CG2_54
REMARK   12  A    between atoms: CB_53  and  OG1_55
REMARK                            x       y       z     vdW  Elec       q    Type
REMARK                         _______ _______ _______ _____ _____    ______ ____
ROOT
ATOM      1  CA  ALA A   7     146.733 171.561 189.677  0.00  0.00    +0.097 C 
ATOM      2  C   ALA A   7     147.646 170.357 189.981  0.00  0.00    +0.234 C 
ATOM      3  O   ALA A   7     147.563 169.338 189.292  0.00  0.00    -0.274 OA
ATOM      4  N   UNK A   1     148.559 170.433 191.000  0.00  0.00    -0.302 N 
ATOM      5  C   UNK A   1     149.189 169.223 191.575  0.00  0.00    +0.103 C 
ATOM      6  C   UNK A   1     148.127 168.321 192.254  0.00  0.00    +0.002 C 
ATOM      7  C   UNK A   1     148.483 166.885 192.507  0.00  0.00    -0.006 A 
ATOM      8  C   UNK A   5     147.746 165.770 192.145  0.00  0.00    +0.078 A 
ATOM      9  N   UNK A   5     148.389 164.651 192.583  0.00  0.00    -0.349 N 
ATOM     10  C   UNK A   5     149.541 164.992 193.247  0.00  0.00    +0.048 A 
ATOM     11  C   UNK A   5     150.498 164.175 193.861  0.00  0.00    -0.038 A 
ATOM     12  C   UNK A   5     151.574 164.802 194.495  0.00  0.00    -0.060 A 
ATOM     13  C   UNK A   5     151.679 166.188 194.519  0.00  0.00    -0.061 A 
ATOM     14  C   UNK A   5     150.712 166.989 193.897  0.00  0.00    -0.052 A 
ATOM     15  C   UNK A   5     149.620 166.387 193.238  0.00  0.00    +0.004 A 
ATOM     16  S   UNK A   5     146.213 165.540 191.365  0.00  0.00    -0.105 S 
ATOM     17  C   UNK A   5     146.558 166.160 189.687  0.00  0.00    +0.027 C 
ATOM     18  C   UNK A   5     145.336 166.233 188.759  0.00  0.00    +0.109 C 
ATOM     19  C   UNK A   5     144.803 167.685 188.614  0.00  0.00    +0.237 C 
ATOM     20  O   UNK A   5     145.195 168.435 187.712  0.00  0.00    -0.274 OA
ATOM     21  N   HYP A   6     143.888 168.162 189.531  0.00  0.00    -0.286 N 
ATOM     22  CD  HYP A   6     143.121 167.392 190.501  0.00  0.00    +0.042 C 
ATOM     23  CG  HYP A   6     142.250 168.412 191.239  0.00  0.00    +0.073 C 
ATOM     24  CB  HYP A   6     142.136 169.583 190.267  0.00  0.00    +0.002 C 
ATOM     25  CA  HYP A   6     143.454 169.560 189.490  0.00  0.00    +0.105 C 
ATOM     26  C   HYP A   6     144.550 170.419 190.158  0.00  0.00    +0.234 C 
ATOM     27  O   HYP A   6     144.678 170.488 191.379  0.00  0.00    -0.274 OA
ATOM     28  N   ALA A   7     145.453 170.967 189.271  0.00  0.00    -0.303 N 
ATOM     29  N   UNK A   5     145.750 165.817 187.413  0.00  0.00    -0.302 N 
ATOM     30  C   THR A   4     145.162 164.800 186.708  0.00  0.00    +0.237 C 
ATOM     31  O   THR A   4     144.181 164.187 187.127  0.00  0.00    -0.274 OA
ATOM     32  CA  THR A   4     145.738 164.546 185.297  0.00  0.00    +0.125 C 
ATOM     33  N   THR A   4     147.018 165.222 185.075  0.00  0.00    -0.300 N 
ATOM     34  C   ALA A   3     148.225 164.711 185.487  0.00  0.00    +0.234 C 
ATOM     35  O   ALA A   3     148.329 163.639 186.081  0.00  0.00    -0.274 OA
ATOM     36  CA  ALA A   3     149.431 165.629 185.186  0.00  0.00    +0.097 C 
ATOM     37  N   ALA A   3     150.119 165.925 186.432  0.00  0.00    -0.303 N 
ATOM     38  C   UNK A   2     149.567 166.765 187.366  0.00  0.00    +0.234 C 
ATOM     39  O   UNK A   2     148.471 167.296 187.183  0.00  0.00    -0.274 OA
ATOM     40  C   UNK A   2     150.410 166.983 188.650  0.00  0.00    +0.102 C 
ATOM     41  N   UNK A   2     149.673 167.894 189.521  0.00  0.00    -0.302 N 
ATOM     42  C   UNK A   1     150.190 168.479 190.644  0.00  0.00    +0.234 C 
ATOM     43  O   UNK A   1     151.379 168.363 190.945  0.00  0.00    -0.274 OA
ATOM     44  HA  ALA A   7     147.137 172.038 188.777  0.00  0.00    +0.059 HD
ATOM     45  H   UNK A   1     148.639 171.288 191.535  0.00  0.00    +0.150 HD
ATOM     46  H   UNK A   1     149.820 169.627 192.377  0.00  0.00    +0.060 HD
ATOM     47  H   UNK A   1     147.189 168.361 191.693  0.00  0.00    +0.034 HD
ATOM     48  H   UNK A   1     147.873 168.775 193.223  0.00  0.00    +0.034 HD
ATOM     49  H   UNK A   5     148.048 163.711 192.454  0.00  0.00    +0.166 HD
ATOM     50  H   UNK A   5     150.406 163.094 193.856  0.00  0.00    +0.064 HD
ATOM     51  H   UNK A   5     152.332 164.196 194.987  0.00  0.00    +0.062 HD
ATOM     52  H   UNK A   5     152.520 166.659 195.023  0.00  0.00    +0.062 HD
ATOM     53  H   UNK A   5     150.817 168.069 193.926  0.00  0.00    +0.062 HD
ATOM     54  H   UNK A   5     147.011 167.140 189.781  0.00  0.00    +0.040 HD
ATOM     55  H   UNK A   5     147.313 165.485 189.267  0.00  0.00    +0.040 HD
ATOM     56  H   UNK A   5     144.529 165.574 189.091  0.00  0.00    +0.060 HD
ATOM     57  HD1 HYP A   6     143.784 166.857 191.177  0.00  0.00    +0.049 HD
ATOM     58  HD2 HYP A   6     142.511 166.677 189.939  0.00  0.00    +0.049 HD
ATOM     59  HG  HYP A   6     141.271 167.992 191.488  0.00  0.00    +0.061 HD
ATOM     60  HB1 HYP A   6     141.955 170.540 190.766  0.00  0.00    +0.031 HD
ATOM     61  HB2 HYP A   6     141.310 169.390 189.571  0.00  0.00    +0.031 HD
ATOM     62  HA  HYP A   6     143.306 169.893 188.457  0.00  0.00    +0.060 HD
ATOM     63  H   ALA A   7     145.447 170.546 188.341  0.00  0.00    +0.149 HD
ATOM     64  H   UNK A   5     146.489 166.364 186.970  0.00  0.00    +0.150 HD
ATOM     65  HA  THR A   4     145.909 163.466 185.233  0.00  0.00    +0.062 HD
ATOM     66  H   THR A   4     146.967 166.084 184.543  0.00  0.00    +0.150 HD
ATOM     67  HA  ALA A   3     149.077 166.576 184.765  0.00  0.00    +0.059 HD
ATOM     68  H   ALA A   3     150.969 165.413 186.679  0.00  0.00    +0.149 HD
ATOM     69  H   UNK A   2     151.335 167.493 188.363  0.00  0.00    +0.060 HD
ATOM     70  H   UNK A   2     148.752 168.205 189.195  0.00  0.00    +0.150 HD
ENDROOT
BRANCH   1  71
ATOM     71  CB  ALA A   7     146.613 172.616 190.767  0.00  0.00    -0.038 C 
ATOM     72  HB1 ALA A   7     147.598 172.896 191.152  0.00  0.00    +0.025 HD
ATOM     73  HB2 ALA A   7     146.110 173.524 190.420  0.00  0.00    +0.025 HD
ATOM     74  HB3 ALA A   7     146.024 172.229 191.606  0.00  0.00    +0.025 HD
ENDBRANCH   1  71
BRANCH  36  75
ATOM     75  CB  ALA A   3     150.358 164.952 184.188  0.00  0.00    -0.038 C 
ATOM     76  HB1 ALA A   3     149.939 164.011 183.811  0.00  0.00    +0.025 HD
ATOM     77  HB2 ALA A   3     151.324 164.721 184.650  0.00  0.00    +0.025 HD
ATOM     78  HB3 ALA A   3     150.537 165.604 183.326  0.00  0.00    +0.025 HD
ENDBRANCH  36  75
BRANCH  40  79
ATOM     79  C   UNK A   2     150.667 165.641 189.362  0.00  0.00    +0.005 C 
ATOM     80  H   UNK A   2     149.906 164.916 189.040  0.00  0.00    +0.032 HD
ATOM     81  H   UNK A   2     150.535 165.739 190.444  0.00  0.00    +0.032 HD
BRANCH  79  82
ATOM     82  C   UNK A   2     152.064 165.049 189.113  0.00  0.00    +0.088 C 
BRANCH  82  83
ATOM     83  C   UNK A   2     152.455 164.134 190.283  0.00  0.00    -0.034 C 
ATOM     84  H   UNK A   2     151.756 163.298 190.388  0.00  0.00    +0.026 HD
ATOM     85  H   UNK A   2     152.415 164.681 191.233  0.00  0.00    +0.026 HD
ATOM     86  H   UNK A   2     153.466 163.732 190.154  0.00  0.00    +0.026 HD
ENDBRANCH  82  83
BRANCH  82  87
ATOM     87  C   UNK A   2     153.129 166.147 188.908  0.00  0.00    +0.073 C 
ATOM     88  H   UNK A   2     152.730 167.004 188.356  0.00  0.00    +0.059 HD
ATOM     89  H   UNK A   2     154.007 165.756 188.388  0.00  0.00    +0.059 HD
BRANCH  87  90
ATOM     90  O   UNK A   2     153.588 166.585 190.195  0.00  0.00    -0.392 OA
ATOM     91  H   UNK A   2     154.206 167.319 190.021  0.00  0.00    +0.210 HD
ENDBRANCH  87  90
ENDBRANCH  82  87
BRANCH  82  92
ATOM     92  O   UNK A   2     152.034 164.231 187.928  0.00  0.00    -0.387 OA
ATOM     93  H   UNK A   2     151.954 163.316 188.279  0.00  0.00    +0.210 HD
ENDBRANCH  82  92
ENDBRANCH  79  82
ENDBRANCH  40  79
BRANCH  23  94
ATOM     94  OD  HYP A   6     142.843 168.820 192.468  0.00  0.00    -0.390 OA
ATOM     95  HD  HYP A   6     143.001 169.789 192.442  0.00  0.00    +0.210 HD
ENDBRANCH  23  94
BRANCH  32  96
ATOM     96  CB  THR A   4     144.683 165.012 184.261  0.00  0.00    +0.079 C 
ATOM     97  HB  THR A   4     144.042 164.178 183.945  0.00  0.00    +0.061 HD
BRANCH  96  98
ATOM     98  CG2 THR A   4     145.345 165.612 183.026  0.00  0.00    -0.037 C 
ATOM     99 HG21 THR A   4     145.042 166.657 182.898  0.00  0.00    +0.026 HD
ATOM    100 HG22 THR A   4     145.069 165.057 182.124  0.00  0.00    +0.026 HD
ATOM    101 HG23 THR A   4     146.436 165.613 183.126  0.00  0.00    +0.026 HD
ENDBRANCH  96  98
BRANCH  96 102
ATOM    102  OG1 THR A   4     143.808 166.004 184.838  0.00  0.00    -0.390 OA
ATOM    103  HG1 THR A   4     144.266 166.367 185.617  0.00  0.00    +0.210 HD
ENDBRANCH  96 102
ENDBRANCH  32  96
TORSDOF 12
ENDMDL
MODEL 2
REMARK VINA RESULT:      -6.2      2.913      8.949
REMARK  Name = Phalloidin_conf2
REMARK  12 active torsions:
REMARK  status: ('A' for Active; 'I' for Inactive)
REMARK    1  A    between atoms: CB_1  and  CA_2
REMARK    2  A    between atoms: CG_24  and  OD_30
REMARK    3  A    between atoms: CA_34  and  CB_53
REMARK    4  A    between atoms: CA_38  and  CB_52
REMARK    5  A    between atoms: C_42  and  C_46
REMARK    6  A    between atoms: C_46  and  C_47
REMARK    7  A    between atoms: C_47  and  C_48
REMARK    8  A    between atoms: C_47  and  C_49
REMARK    9  A    between atoms: C_47  and  O_51
REMARK   10  A    between atoms: C_49  and  O_50
REMARK   11  A    between atoms: CB_53  and  CG2_54
REMARK   12  A    between atoms: CB_53  and  OG1_55
REMARK                            x       y       z     vdW  Elec       q    Type
REMARK                         _______ _______ _______ _____ _____    ______ ____
ROOT
ATOM      1  CA  ALA A   7     145.855 170.384 184.146  0.00  0.00    +0.097 C 
ATOM      2  C   ALA A   7     145.085 170.797 185.415  0.00  0.00    +0.234 C 
ATOM      3  O   ALA A   7     145.636 170.723 186.516  0.00  0.00    -0.274 OA
ATOM      4  N   UNK A   1     143.800 171.263 185.312  0.00  0.00    -0.302 N 
ATOM      5  C   UNK A   1     142.895 171.321 186.482  0.00  0.00    +0.103 C 
ATOM      6  C   UNK A   1     142.604 169.898 187.024  0.00  0.00    +0.002 C 
ATOM      7  C   UNK A   1     142.078 169.773 188.424  0.00  0.00    -0.006 A 
ATOM      8  C   UNK A   5     142.583 168.970 189.432  0.00  0.00    +0.078 A 
ATOM      9  N   UNK A   5     141.807 169.112 190.544  0.00  0.00    -0.349 N 
ATOM     10  C   UNK A   5     140.779 169.987 190.298  0.00  0.00    +0.048 A 
ATOM     11  C   UNK A   5     139.750 170.421 191.143  0.00  0.00    -0.038 A 
ATOM     12  C   UNK A   5     138.810 171.310 190.614  0.00  0.00    -0.060 A 
ATOM     13  C   UNK A   5     138.894 171.736 189.293  0.00  0.00    -0.061 A 
ATOM     14  C   UNK A   5     139.933 171.292 188.464  0.00  0.00    -0.052 A 
ATOM     15  C   UNK A   5     140.905 170.403 188.971  0.00  0.00    +0.004 A 
ATOM     16  S   UNK A   5     143.881 167.821 189.523  0.00  0.00    -0.105 S 
ATOM     17  C   UNK A   5     145.337 168.895 189.315  0.00  0.00    +0.027 C 
ATOM     18  C   UNK A   5     146.678 168.155 189.200  0.00  0.00    +0.109 C 
ATOM     19  C   UNK A   5     147.178 168.086 187.731  0.00  0.00    +0.237 C 
ATOM     20  O   UNK A   5     147.924 168.952 187.256  0.00  0.00    -0.274 OA
ATOM     21  N   HYP A   6     146.761 167.047 186.924  0.00  0.00    -0.286 N 
ATOM     22  CD  HYP A   6     146.101 165.815 187.336  0.00  0.00    +0.042 C 
ATOM     23  CG  HYP A   6     145.887 165.014 186.049  0.00  0.00    +0.073 C 
ATOM     24  CB  HYP A   6     146.943 165.554 185.089  0.00  0.00    +0.002 C 
ATOM     25  CA  HYP A   6     147.122 167.016 185.505  0.00  0.00    +0.105 C 
ATOM     26  C   HYP A   6     146.167 167.967 184.751  0.00  0.00    +0.234 C 
ATOM     27  O   HYP A   6     145.012 167.653 184.470  0.00  0.00    -0.274 OA
ATOM     28  N   ALA A   7     146.673 169.236 184.561  0.00  0.00    -0.303 N 
ATOM     29  N   UNK A   5     147.693 168.916 189.939  0.00  0.00    -0.302 N 
ATOM     30  C   THR A   4     148.461 168.396 190.948  0.00  0.00    +0.237 C 
ATOM     31  O   THR A   4     148.406 167.211 191.276  0.00  0.00    -0.274 OA
ATOM     32  CA  THR A   4     149.488 169.366 191.572  0.00  0.00    +0.125 C 
ATOM     33  N   THR A   4     149.251 170.763 191.201  0.00  0.00    -0.300 N 
ATOM     34  C   ALA A   3     148.339 171.570 191.836  0.00  0.00    +0.234 C 
ATOM     35  O   ALA A   3     147.642 171.183 192.772  0.00  0.00    -0.274 OA
ATOM     36  CA  ALA A   3     148.229 172.988 191.233  0.00  0.00    +0.097 C 
ATOM     37  N   ALA A   3     146.852 173.224 190.832  0.00  0.00    -0.303 N 
ATOM     38  C   UNK A   2     146.313 172.593 189.739  0.00  0.00    +0.234 C 
ATOM     39  O   UNK A   2     146.974 171.807 189.061  0.00  0.00    -0.274 OA
ATOM     40  C   UNK A   2     144.830 172.935 189.435  0.00  0.00    +0.102 C 
ATOM     41  N   UNK A   2     144.430 172.179 188.252  0.00  0.00    -0.302 N 
ATOM     42  C   UNK A   1     143.263 172.377 187.565  0.00  0.00    +0.234 C 
ATOM     43  O   UNK A   1     142.501 173.307 187.838  0.00  0.00    -0.274 OA
ATOM     44  HA  ALA A   7     146.565 171.192 183.936  0.00  0.00    +0.059 HD
ATOM     45  H   UNK A   1     143.374 171.349 184.399  0.00  0.00    +0.150 HD
ATOM     46  H   UNK A   1     141.956 171.694 186.054  0.00  0.00    +0.060 HD
ATOM     47  H   UNK A   1     143.495 169.270 186.922  0.00  0.00    +0.034 HD
ATOM     48  H   UNK A   1     141.873 169.427 186.351  0.00  0.00    +0.034 HD
ATOM     49  H   UNK A   5     141.960 168.621 191.412  0.00  0.00    +0.166 HD
ATOM     50  H   UNK A   5     139.675 170.075 192.168  0.00  0.00    +0.064 HD
ATOM     51  H   UNK A   5     137.994 171.662 191.242  0.00  0.00    +0.062 HD
ATOM     52  H   UNK A   5     138.150 172.423 188.897  0.00  0.00    +0.062 HD
ATOM     53  H   UNK A   5     139.980 171.641 187.438  0.00  0.00    +0.062 HD
ATOM     54  H   UNK A   5     145.176 169.509 188.436  0.00  0.00    +0.040 HD
ATOM     55  H   UNK A   5     145.345 169.561 190.186  0.00  0.00    +0.040 HD
ATOM     56  H   UNK A   5     146.627 167.148 189.622  0.00  0.00    +0.060 HD
ATOM     57  HD1 HYP A   6     145.164 166.032 187.843  0.00  0.00    +0.049 HD
ATOM     58  HD2 HYP A   6     146.780 165.296 188.022  0.00  0.00    +0.049 HD
ATOM     59  HG  HYP A   6     146.007 163.941 186.225  0.00  0.00    +0.061 HD
ATOM     60  HB1 HYP A   6     146.664 165.444 184.037  0.00  0.00    +0.031 HD
ATOM     61  HB2 HYP A   6     147.886 165.020 185.258  0.00  0.00    +0.031 HD
ATOM     62  HA  HYP A   6     148.156 167.342 185.358  0.00  0.00    +0.060 HD
ATOM     63  H   ALA A   7     147.477 169.467 185.147  0.00  0.00    +0.149 HD
ATOM     64  H   UNK A   5     147.860 169.876 189.635  0.00  0.00    +0.150 HD
ATOM     65  HA  THR A   4     149.362 169.278 192.658  0.00  0.00    +0.062 HD
ATOM     66  H   THR A   4     149.849 171.123 190.465  0.00  0.00    +0.150 HD
ATOM     67  HA  ALA A   3     148.855 173.058 190.336  0.00  0.00    +0.059 HD
ATOM     68  H   ALA A   3     146.233 173.772 191.434  0.00  0.00    +0.149 HD
ATOM     69  H   UNK A   2     144.776 173.996 189.170  0.00  0.00    +0.060 HD
ATOM     70  H   UNK A   2     145.128 171.548 187.846  0.00  0.00    +0.150 HD
ENDROOT
BRANCH   1  71
ATOM     71  CB  ALA A   7     145.024 170.137 182.896  0.00  0.00    -0.038 C 
ATOM     72  HB1 ALA A   7     144.638 169.113 182.878  0.00  0.00    +0.025 HD
ATOM     73  HB2 ALA A   7     144.176 170.824 182.813  0.00  0.00    +0.025 HD
ATOM     74  HB3 ALA A   7     145.636 170.279 181.999  0.00  0.00    +0.025 HD
ENDBRANCH   1  71
BRANCH  36  75
ATOM     75  CB  ALA A   3     148.695 174.019 192.249  0.00  0.00    -0.038 C 
ATOM     76  HB1 ALA A   3     148.603 173.651 193.279  0.00  0.00    +0.025 HD
ATOM     77  HB2 ALA A   3     148.101 174.936 192.173  0.00  0.00    +0.025 HD
ATOM     78  HB3 ALA A   3     149.747 174.277 192.082  0.00  0.00    +0.025 HD
ENDBRANCH  36  75
BRANCH  40  79
ATOM     79  C   UNK A   2     143.935 172.576 190.636  0.00  0.00    +0.005 C 
ATOM     80  H   UNK A   2     144.473 171.866 191.281  0.00  0.00    +0.032 HD
ATOM     81  H   UNK A   2     143.034 172.049 190.311  0.00  0.00    +0.032 HD
BRANCH  79  82
ATOM     82  C   UNK A   2     143.491 173.784 191.479  0.00  0.00    +0.088 C 
BRANCH  82  83
ATOM     83  C   UNK A   2     142.209 173.435 192.249  0.00  0.00    -0.034 C 
ATOM     84  H   UNK A   2     142.263 172.430 192.682  0.00  0.00    +0.026 HD
ATOM     85  H   UNK A   2     141.343 173.426 191.576  0.00  0.00    +0.026 HD
ATOM     86  H   UNK A   2     142.019 174.153 193.054  0.00  0.00    +0.026 HD
ENDBRANCH  82  83
BRANCH  82  87
ATOM     87  C   UNK A   2     143.275 175.044 190.614  0.00  0.00    +0.073 C 
ATOM     88  H   UNK A   2     142.272 175.071 190.177  0.00  0.00    +0.059 HD
ATOM     89  H   UNK A   2     144.021 175.112 189.819  0.00  0.00    +0.059 HD
BRANCH  87  90
ATOM     90  O   UNK A   2     143.462 176.202 191.439  0.00  0.00    -0.392 OA
ATOM     91  H   UNK A   2     144.278 176.037 191.948  0.00  0.00    +0.210 HD
ENDBRANCH  87  90
ENDBRANCH  82  87
BRANCH  82  92
ATOM     92  O   UNK A   2     144.504 174.084 192.458  0.00  0.00    -0.387 OA
ATOM     93  H   UNK A   2     144.255 174.977 192.784  0.00  0.00    +0.210 HD
ENDBRANCH  82  92
ENDBRANCH  79  82
ENDBRANCH  40  79
BRANCH  23  94
ATOM     94  OD  HYP A   6     144.575 165.198 185.527  0.00  0.00    -0.390 OA
ATOM     95  HD  HYP A   6     143.947 164.637 186.033  0.00  0.00    +0.210 HD
ENDBRANCH  23  94
BRANCH  32  96
ATOM     96  CB  THR A   4     150.903 168.911 191.131  0.00  0.00    +0.079 C 
ATOM     97  HB  THR A   4     150.852 168.254 190.253  0.00  0.00    +0.061 HD
BRANCH  96  98
ATOM     98  CG2 THR A   4     151.623 168.171 192.253  0.00  0.00    -0.037 C 
ATOM     99 HG21 THR A   4     150.927 167.939 193.067  0.00  0.00    +0.026 HD
ATOM    100 HG22 THR A   4     152.443 168.772 192.657  0.00  0.00    +0.026 HD
ATOM    101 HG23 THR A   4     152.021 167.214 191.900  0.00  0.00    +0.026 HD
ENDBRANCH  96  98
BRANCH  96 102
ATOM    102  OG1 THR A   4     151.704 170.048 190.746  0.00  0.00    -0.390 OA
ATOM    103  HG1 THR A   4     152.450 170.094 191.372  0.00  0.00    +0.210 HD
ENDBRANCH  96 102
ENDBRANCH  32  96
TORSDOF 12
ENDMDL
MODEL 3
REMARK VINA RESULT:      -6.2      3.999      8.508
REMARK  Name = Phalloidin_conf2
REMARK  12 active torsions:
REMARK  status: ('A' for Active; 'I' for Inactive)
REMARK    1  A    between atoms: CB_1  and  CA_2
REMARK    2  A    between atoms: CG_24  and  OD_30
REMARK    3  A    between atoms: CA_34  and  CB_53
REMARK    4  A    between atoms: CA_38  and  CB_52
REMARK    5  A    between atoms: C_42  and  C_46
REMARK    6  A    between atoms: C_46  and  C_47
REMARK    7  A    between atoms: C_47  and  C_48
REMARK    8  A    between atoms: C_47  and  C_49
REMARK    9  A    between atoms: C_47  and  O_51
REMARK   10  A    between atoms: C_49  and  O_50
REMARK   11  A    between atoms: CB_53  and  CG2_54
REMARK   12  A    between atoms: CB_53  and  OG1_55
REMARK                            x       y       z     vdW  Elec       q    Type
REMARK                         _______ _______ _______ _____ _____    ______ ____
ROOT
ATOM      1  CA  ALA A   7     150.991 159.104 190.355  0.00  0.00    +0.097 C 
ATOM      2  C   ALA A   7     151.436 160.314 189.510  0.00  0.00    +0.234 C 
ATOM      3  O   ALA A   7     151.116 161.453 189.856  0.00  0.00    -0.274 OA
ATOM      4  N   UNK A   1     152.203 160.118 188.390  0.00  0.00    -0.302 N 
ATOM      5  C   UNK A   1     152.348 161.164 187.353  0.00  0.00    +0.103 C 
ATOM      6  C   UNK A   1     150.986 161.461 186.676  0.00  0.00    +0.002 C 
ATOM      7  C   UNK A   1     150.839 162.753 185.928  0.00  0.00    -0.006 A 
ATOM      8  C   UNK A   5     149.835 163.694 186.083  0.00  0.00    +0.078 A 
ATOM      9  N   UNK A   5     150.038 164.710 185.197  0.00  0.00    -0.349 N 
ATOM     10  C   UNK A   5     151.153 164.464 184.437  0.00  0.00    +0.048 A 
ATOM     11  C   UNK A   5     151.726 165.227 183.412  0.00  0.00    -0.038 A 
ATOM     12  C   UNK A   5     152.865 164.716 182.783  0.00  0.00    -0.060 A 
ATOM     13  C   UNK A   5     153.398 163.488 183.160  0.00  0.00    -0.061 A 
ATOM     14  C   UNK A   5     152.811 162.740 184.190  0.00  0.00    -0.052 A 
ATOM     15  C   UNK A   5     151.668 163.234 184.853  0.00  0.00    +0.004 A 
ATOM     16  S   UNK A   5     148.408 163.783 187.066  0.00  0.00    -0.105 S 
ATOM     17  C   UNK A   5     149.121 163.910 188.737  0.00  0.00    +0.027 C 
ATOM     18  C   UNK A   5     148.100 163.858 189.884  0.00  0.00    +0.109 C 
ATOM     19  C   UNK A   5     148.073 162.468 190.575  0.00  0.00    +0.237 C 
ATOM     20  O   UNK A   5     148.782 162.215 191.557  0.00  0.00    -0.274 OA
ATOM     21  N   HYP A   6     147.256 161.478 190.068  0.00  0.00    -0.286 N 
ATOM     22  CD  HYP A   6     146.179 161.629 189.098  0.00  0.00    +0.042 C 
ATOM     23  CG  HYP A   6     145.595 160.225 188.912  0.00  0.00    +0.073 C 
ATOM     24  CB  HYP A   6     145.969 159.489 190.194  0.00  0.00    +0.002 C 
ATOM     25  CA  HYP A   6     147.293 160.124 190.625  0.00  0.00    +0.105 C 
ATOM     26  C   HYP A   6     148.520 159.398 190.031  0.00  0.00    +0.234 C 
ATOM     27  O   HYP A   6     148.521 158.935 188.891  0.00  0.00    -0.274 OA
ATOM     28  N   ALA A   7     149.644 159.453 190.827  0.00  0.00    -0.303 N 
ATOM     29  N   UNK A   5     148.514 164.817 190.917  0.00  0.00    -0.302 N 
ATOM     30  C   THR A   4     147.720 165.830 191.388  0.00  0.00    +0.237 C 
ATOM     31  O   THR A   4     146.554 165.980 191.024  0.00  0.00    -0.274 OA
ATOM     32  CA  THR A   4     148.345 166.706 192.495  0.00  0.00    +0.125 C 
ATOM     33  N   THR A   4     149.790 166.508 192.632  0.00  0.00    -0.300 N 
ATOM     34  C   ALA A   3     150.718 167.132 191.834  0.00  0.00    +0.234 C 
ATOM     35  O   ALA A   3     150.409 167.911 190.934  0.00  0.00    -0.274 OA
ATOM     36  CA  ALA A   3     152.178 166.725 192.133  0.00  0.00    +0.097 C 
ATOM     37  N   ALA A   3     152.776 166.193 190.920  0.00  0.00    -0.303 N 
ATOM     38  C   UNK A   2     152.413 164.964 190.428  0.00  0.00    +0.234 C 
ATOM     39  O   UNK A   2     151.570 164.270 190.995  0.00  0.00    -0.274 OA
ATOM     40  C   UNK A   2     153.128 164.530 189.121  0.00  0.00    +0.102 C 
ATOM     41  N   UNK A   2     152.621 163.213 188.750  0.00  0.00    -0.302 N 
ATOM     42  C   UNK A   1     153.164 162.421 187.774  0.00  0.00    +0.234 C 
ATOM     43  O   UNK A   1     154.213 162.725 187.203  0.00  0.00    -0.274 OA
ATOM     44  HA  ALA A   7     151.625 159.099 191.249  0.00  0.00    +0.059 HD
ATOM     45  H   UNK A   1     152.486 159.181 188.138  0.00  0.00    +0.150 HD
ATOM     46  H   UNK A   1     152.978 160.679 186.596  0.00  0.00    +0.060 HD
ATOM     47  H   UNK A   1     150.179 161.382 187.411  0.00  0.00    +0.034 HD
ATOM     48  H   UNK A   1     150.778 160.643 185.971  0.00  0.00    +0.034 HD
ATOM     49  H   UNK A   5     149.434 165.513 185.104  0.00  0.00    +0.166 HD
ATOM     50  H   UNK A   5     151.299 166.176 183.107  0.00  0.00    +0.064 HD
ATOM     51  H   UNK A   5     153.331 165.281 181.979  0.00  0.00    +0.062 HD
ATOM     52  H   UNK A   5     154.281 163.103 182.656  0.00  0.00    +0.062 HD
ATOM     53  H   UNK A   5     153.248 161.786 184.469  0.00  0.00    +0.062 HD
ATOM     54  H   UNK A   5     149.847 163.112 188.852  0.00  0.00    +0.040 HD
ATOM     55  H   UNK A   5     149.668 164.860 188.759  0.00  0.00    +0.040 HD
ATOM     56  H   UNK A   5     147.094 164.125 189.549  0.00  0.00    +0.060 HD
ATOM     57  HD1 HYP A   6     146.557 162.040 188.165  0.00  0.00    +0.049 HD
ATOM     58  HD2 HYP A   6     145.443 162.313 189.533  0.00  0.00    +0.049 HD
ATOM     59  HG  HYP A   6     144.512 160.263 188.764  0.00  0.00    +0.061 HD
ATOM     60  HB1 HYP A   6     146.043 158.405 190.062  0.00  0.00    +0.031 HD
ATOM     61  HB2 HYP A   6     145.210 159.696 190.960  0.00  0.00    +0.031 HD
ATOM     62  HA  HYP A   6     147.378 160.153 191.717  0.00  0.00    +0.060 HD
ATOM     63  H   ALA A   7     149.613 160.160 191.562  0.00  0.00    +0.149 HD
ATOM     64  H   UNK A   5     149.434 164.673 191.336  0.00  0.00    +0.150 HD
ATOM     65  HA  THR A   4     148.173 167.745 192.189  0.00  0.00    +0.062 HD
ATOM     66  H   THR A   4     150.074 165.909 193.399  0.00  0.00    +0.150 HD
ATOM     67  HA  ALA A   3     152.192 165.931 192.888  0.00  0.00    +0.059 HD
ATOM     68  H   ALA A   3     153.387 166.785 190.351  0.00  0.00    +0.149 HD
ATOM     69  H   UNK A   2     154.194 164.412 189.343  0.00  0.00    +0.060 HD
ATOM     70  H   UNK A   2     151.890 162.812 189.345  0.00  0.00    +0.150 HD
ENDROOT
BRANCH   1  71
ATOM     71  CB  ALA A   7     151.085 157.739 189.691  0.00  0.00    -0.038 C 
ATOM     72  HB1 ALA A   7     151.365 156.969 190.416  0.00  0.00    +0.025 HD
ATOM     73  HB2 ALA A   7     150.146 157.437 189.216  0.00  0.00    +0.025 HD
ATOM     74  HB3 ALA A   7     151.847 157.750 188.904  0.00  0.00    +0.025 HD
ENDBRANCH   1  71
BRANCH  36  75
ATOM     75  CB  ALA A   3     152.952 167.925 192.653  0.00  0.00    -0.038 C 
ATOM     76  HB1 ALA A   3     152.288 168.700 193.054  0.00  0.00    +0.025 HD
ATOM     77  HB2 ALA A   3     153.546 168.382 191.853  0.00  0.00    +0.025 HD
ATOM     78  HB3 ALA A   3     153.634 167.625 193.457  0.00  0.00    +0.025 HD
ENDBRANCH  36  75
BRANCH  40  79
ATOM     79  C   UNK A   2     152.865 165.549 187.996  0.00  0.00    +0.005 C 
ATOM     80  H   UNK A   2     152.128 166.285 188.348  0.00  0.00    +0.032 HD
ATOM     81  H   UNK A   2     152.404 165.067 187.129  0.00  0.00    +0.032 HD
BRANCH  79  82
ATOM     82  C   UNK A   2     154.121 166.290 187.506  0.00  0.00    +0.088 C 
BRANCH  82  83
ATOM     83  C   UNK A   2     154.227 166.175 185.978  0.00  0.00    -0.034 C 
ATOM     84  H   UNK A   2     154.130 167.154 185.496  0.00  0.00    +0.026 HD
ATOM     85  H   UNK A   2     153.411 165.561 185.577  0.00  0.00    +0.026 HD
ATOM     86  H   UNK A   2     155.181 165.729 185.677  0.00  0.00    +0.026 HD
ENDBRANCH  82  83
BRANCH  82  87
ATOM     87  C   UNK A   2     155.406 165.757 188.177  0.00  0.00    +0.073 C 
ATOM     88  H   UNK A   2     156.262 165.784 187.496  0.00  0.00    +0.059 HD
ATOM     89  H   UNK A   2     155.266 164.738 188.547  0.00  0.00    +0.059 HD
BRANCH  87  90
ATOM     90  O   UNK A   2     155.689 166.566 189.327  0.00  0.00    -0.392 OA
ATOM     91  H   UNK A   2     155.119 167.353 189.246  0.00  0.00    +0.210 HD
ENDBRANCH  87  90
ENDBRANCH  82  87
BRANCH  82  92
ATOM     92  O   UNK A   2     154.004 167.691 187.818  0.00  0.00    -0.387 OA
ATOM     93  H   UNK A   2     154.916 168.035 187.691  0.00  0.00    +0.210 HD
ENDBRANCH  82  92
ENDBRANCH  79  82
ENDBRANCH  40  79
BRANCH  23  94
ATOM     94  OD  HYP A   6     146.141 159.575 187.768  0.00  0.00    -0.390 OA
ATOM     95  HD  HYP A   6     145.407 159.214 187.224  0.00  0.00    +0.210 HD
ENDBRANCH  23  94
BRANCH  32  96
ATOM     96  CB  THR A   4     147.617 166.384 193.826  0.00  0.00    +0.079 C 
ATOM     97  HB  THR A   4     146.737 167.027 193.962  0.00  0.00    +0.061 HD
BRANCH  96  98
ATOM     98  CG2 THR A   4     148.543 166.566 195.023  0.00  0.00    -0.037 C 
ATOM     99 HG21 THR A   4     149.110 165.648 195.212  0.00  0.00    +0.026 HD
ATOM    100 HG22 THR A   4     147.975 166.816 195.925  0.00  0.00    +0.026 HD
ATOM    101 HG23 THR A   4     149.280 167.354 194.834  0.00  0.00    +0.026 HD
ENDBRANCH  96  98
BRANCH  96 102
ATOM    102  OG1 THR A   4     147.135 165.024 193.824  0.00  0.00    -0.390 OA
ATOM    103  HG1 THR A   4     147.321 164.656 194.706  0.00  0.00    +0.210 HD
ENDBRANCH  96 102
ENDBRANCH  32  96
TORSDOF 12
ENDMDL
MODEL 4
REMARK VINA RESULT:      -6.2      3.320      8.457
REMARK  Name = Phalloidin_conf2
REMARK  12 active torsions:
REMARK  status: ('A' for Active; 'I' for Inactive)
REMARK    1  A    between atoms: CB_1  and  CA_2
REMARK    2  A    between atoms: CG_24  and  OD_30
REMARK    3  A    between atoms: CA_34  and  CB_53
REMARK    4  A    between atoms: CA_38  and  CB_52
REMARK    5  A    between atoms: C_42  and  C_46
REMARK    6  A    between atoms: C_46  and  C_47
REMARK    7  A    between atoms: C_47  and  C_48
REMARK    8  A    between atoms: C_47  and  C_49
REMARK    9  A    between atoms: C_47  and  O_51
REMARK   10  A    between atoms: C_49  and  O_50
REMARK   11  A    between atoms: CB_53  and  CG2_54
REMARK   12  A    between atoms: CB_53  and  OG1_55
REMARK                            x       y       z     vdW  Elec       q    Type
REMARK                         _______ _______ _______ _____ _____    ______ ____
ROOT
ATOM      1  CA  ALA A   7     150.739 167.503 191.345  0.00  0.00    +0.097 C 
ATOM      2  C   ALA A   7     149.723 166.972 190.316  0.00  0.00    +0.234 C 
ATOM      3  O   ALA A   7     149.734 165.779 190.006  0.00  0.00    -0.274 OA
ATOM      4  N   UNK A   1     148.801 167.824 189.766  0.00  0.00    -0.302 N 
ATOM      5  C   UNK A   1     148.061 167.480 188.531  0.00  0.00    +0.103 C 
ATOM      6  C   UNK A   1     149.030 167.348 187.328  0.00  0.00    +0.002 C 
ATOM      7  C   UNK A   1     148.550 166.603 186.117  0.00  0.00    -0.006 A 
ATOM      8  C   UNK A   5     149.198 165.564 185.471  0.00  0.00    +0.078 A 
ATOM      9  N   UNK A   5     148.455 165.179 184.395  0.00  0.00    -0.349 N 
ATOM     10  C   UNK A   5     147.324 165.950 184.296  0.00  0.00    +0.048 A 
ATOM     11  C   UNK A   5     146.290 165.909 183.352  0.00  0.00    -0.038 A 
ATOM     12  C   UNK A   5     145.259 166.843 183.480  0.00  0.00    -0.060 A 
ATOM     13  C   UNK A   5     145.270 167.782 184.506  0.00  0.00    -0.061 A 
ATOM     14  C   UNK A   5     146.312 167.806 185.442  0.00  0.00    -0.052 A 
ATOM     15  C   UNK A   5     147.363 166.868 185.347  0.00  0.00    +0.004 A 
ATOM     16  S   UNK A   5     150.721 164.764 185.700  0.00  0.00    -0.105 S 
ATOM     17  C   UNK A   5     150.461 163.932 187.299  0.00  0.00    +0.027 C 
ATOM     18  C   UNK A   5     151.702 163.234 187.876  0.00  0.00    +0.109 C 
ATOM     19  C   UNK A   5     152.358 164.064 189.014  0.00  0.00    +0.237 C 
ATOM     20  O   UNK A   5     152.047 163.900 190.201  0.00  0.00    -0.274 OA
ATOM     21  N   HYP A   6     153.292 165.028 188.694  0.00  0.00    -0.286 N 
ATOM     22  CD  HYP A   6     153.973 165.213 187.420  0.00  0.00    +0.042 C 
ATOM     23  CG  HYP A   6     154.913 166.405 187.626  0.00  0.00    +0.073 C 
ATOM     24  CB  HYP A   6     155.142 166.446 189.134  0.00  0.00    +0.002 C 
ATOM     25  CA  HYP A   6     153.842 165.903 189.731  0.00  0.00    +0.105 C 
ATOM     26  C   HYP A   6     152.809 167.017 190.011  0.00  0.00    +0.234 C 
ATOM     27  O   HYP A   6     152.665 167.983 189.264  0.00  0.00    -0.274 OA
ATOM     28  N   ALA A   7     151.973 166.752 191.076  0.00  0.00    -0.303 N 
ATOM     29  N   UNK A   5     151.281 161.968 188.489  0.00  0.00    -0.302 N 
ATOM     30  C   THR A   4     151.794 160.743 188.153  0.00  0.00    +0.237 C 
ATOM     31  O   THR A   4     152.712 160.610 187.345  0.00  0.00    -0.274 OA
ATOM     32  CA  THR A   4     151.226 159.543 188.942  0.00  0.00    +0.125 C 
ATOM     33  N   THR A   4     150.011 159.876 189.689  0.00  0.00    -0.300 N 
ATOM     34  C   ALA A   3     148.758 159.897 189.126  0.00  0.00    +0.234 C 
ATOM     35  O   ALA A   3     148.553 159.637 187.941  0.00  0.00    -0.274 OA
ATOM     36  CA  ALA A   3     147.639 160.328 190.100  0.00  0.00    +0.097 C 
ATOM     37  N   ALA A   3     146.955 161.485 189.548  0.00  0.00    -0.303 N 
ATOM     38  C   UNK A   2     147.558 162.718 189.514  0.00  0.00    +0.234 C 
ATOM     39  O   UNK A   2     148.698 162.887 189.949  0.00  0.00    -0.274 OA
ATOM     40  C   UNK A   2     146.712 163.858 188.890  0.00  0.00    +0.102 C 
ATOM     41  N   UNK A   2     147.506 165.082 188.936  0.00  0.00    -0.302 N 
ATOM     42  C   UNK A   1     147.019 166.332 188.667  0.00  0.00    +0.234 C 
ATOM     43  O   UNK A   1     145.818 166.531 188.471  0.00  0.00    -0.274 OA
ATOM     44  HA  ALA A   7     150.395 167.160 192.328  0.00  0.00    +0.059 HD
ATOM     45  H   UNK A   1     148.783 168.793 190.055  0.00  0.00    +0.150 HD
ATOM     46  H   UNK A   1     147.451 168.375 188.348  0.00  0.00    +0.060 HD
ATOM     47  H   UNK A   1     149.979 166.915 187.659  0.00  0.00    +0.034 HD
ATOM     48  H   UNK A   1     149.303 168.364 187.006  0.00  0.00    +0.034 HD
ATOM     49  H   UNK A   5     148.719 164.446 183.753  0.00  0.00    +0.166 HD
ATOM     50  H   UNK A   5     146.291 165.187 182.543  0.00  0.00    +0.064 HD
ATOM     51  H   UNK A   5     144.443 166.842 182.760  0.00  0.00    +0.062 HD
ATOM     52  H   UNK A   5     144.462 168.505 184.587  0.00  0.00    +0.062 HD
ATOM     53  H   UNK A   5     146.298 168.546 186.236  0.00  0.00    +0.062 HD
ATOM     54  H   UNK A   5     150.090 164.669 188.002  0.00  0.00    +0.040 HD
ATOM     55  H   UNK A   5     149.660 163.202 187.131  0.00  0.00    +0.040 HD
ATOM     56  H   UNK A   5     152.444 163.014 187.104  0.00  0.00    +0.060 HD
ATOM     57  HD1 HYP A   6     153.255 165.393 186.623  0.00  0.00    +0.049 HD
ATOM     58  HD2 HYP A   6     154.532 164.295 187.213  0.00  0.00    +0.049 HD
ATOM     59  HG  HYP A   6     155.848 166.272 187.074  0.00  0.00    +0.061 HD
ATOM     60  HB1 HYP A   6     155.394 167.445 189.503  0.00  0.00    +0.031 HD
ATOM     61  HB2 HYP A   6     155.962 165.763 189.389  0.00  0.00    +0.031 HD
ATOM     62  HA  HYP A   6     154.037 165.344 190.652  0.00  0.00    +0.060 HD
ATOM     63  H   ALA A   7     151.961 165.777 191.377  0.00  0.00    +0.149 HD
ATOM     64  H   UNK A   5     150.598 162.028 189.246  0.00  0.00    +0.150 HD
ATOM     65  HA  THR A   4     150.965 158.787 188.192  0.00  0.00    +0.062 HD
ATOM     66  H   THR A   4     150.145 160.045 190.680  0.00  0.00    +0.150 HD
ATOM     67  HA  ALA A   3     148.079 160.625 191.059  0.00  0.00    +0.059 HD
ATOM     68  H   ALA A   3     146.060 161.367 189.067  0.00  0.00    +0.149 HD
ATOM     69  H   UNK A   2     145.839 164.019 189.529  0.00  0.00    +0.060 HD
ATOM     70  H   UNK A   2     148.456 165.006 189.315  0.00  0.00    +0.150 HD
ENDROOT
BRANCH   1  71
ATOM     71  CB  ALA A   7     150.927 169.012 191.401  0.00  0.00    -0.038 C 
ATOM     72  HB1 ALA A   7     150.024 169.506 191.772  0.00  0.00    +0.025 HD
ATOM     73  HB2 ALA A   7     151.766 169.308 192.039  0.00  0.00    +0.025 HD
ATOM     74  HB3 ALA A   7     151.137 169.405 190.400  0.00  0.00    +0.025 HD
ENDBRANCH   1  71
BRANCH  36  75
ATOM     75  CB  ALA A   3     146.678 159.172 190.327  0.00  0.00    -0.038 C 
ATOM     76  HB1 ALA A   3     147.205 158.244 190.584  0.00  0.00    +0.025 HD
ATOM     77  HB2 ALA A   3     146.086 158.976 189.426  0.00  0.00    +0.025 HD
ATOM     78  HB3 ALA A   3     145.988 159.399 191.147  0.00  0.00    +0.025 HD
ENDBRANCH  36  75
BRANCH  40  79
ATOM     79  C   UNK A   2     146.330 163.516 187.437  0.00  0.00    +0.005 C 
ATOM     80  H   UNK A   2     146.868 162.606 187.133  0.00  0.00    +0.032 HD
ATOM     81  H   UNK A   2     146.666 164.296 186.748  0.00  0.00    +0.032 HD
BRANCH  79  82
ATOM     82  C   UNK A   2     144.823 163.309 187.210  0.00  0.00    +0.088 C 
BRANCH  82  83
ATOM     83  C   UNK A   2     144.283 164.410 186.285  0.00  0.00    -0.034 C 
ATOM     84  H   UNK A   2     143.188 164.403 186.253  0.00  0.00    +0.026 HD
ATOM     85  H   UNK A   2     144.614 164.246 185.252  0.00  0.00    +0.026 HD
ATOM     86  H   UNK A   2     144.618 165.401 186.606  0.00  0.00    +0.026 HD
ENDBRANCH  82  83
BRANCH  82  87
ATOM     87  C   UNK A   2     144.036 163.288 188.538  0.00  0.00    +0.073 C 
ATOM     88  H   UNK A   2     143.043 163.735 188.431  0.00  0.00    +0.059 HD
ATOM     89  H   UNK A   2     144.584 163.801 189.332  0.00  0.00    +0.059 HD
BRANCH  87  90
ATOM     90  O   UNK A   2     143.897 161.925 188.964  0.00  0.00    -0.392 OA
ATOM     91  H   UNK A   2     143.563 161.436 188.189  0.00  0.00    +0.210 HD
ENDBRANCH  87  90
ENDBRANCH  82  87
BRANCH  82  92
ATOM     92  O   UNK A   2     144.606 162.051 186.543  0.00  0.00    -0.387 OA
ATOM     93  H   UNK A   2     143.634 162.028 186.400  0.00  0.00    +0.210 HD
ENDBRANCH  82  92
ENDBRANCH  79  82
ENDBRANCH  40  79
BRANCH  23  94
ATOM     94  OD  HYP A   6     154.332 167.620 187.161  0.00  0.00    -0.390 OA
ATOM     95  HD  HYP A   6     153.404 167.448 186.889  0.00  0.00    +0.210 HD
ENDBRANCH  23  94
BRANCH  32  96
ATOM     96  CB  THR A   4     152.336 159.030 189.895  0.00  0.00    +0.079 C 
ATOM     97  HB  THR A   4     152.870 158.176 189.459  0.00  0.00    +0.061 HD
BRANCH  96  98
ATOM     98  CG2 THR A   4     151.759 158.608 191.242  0.00  0.00    -0.037 C 
ATOM     99 HG21 THR A   4     152.183 157.648 191.557  0.00  0.00    +0.026 HD
ATOM    100 HG22 THR A   4     150.670 158.505 191.188  0.00  0.00    +0.026 HD
ATOM    101 HG23 THR A   4     152.012 159.333 192.023  0.00  0.00    +0.026 HD
ENDBRANCH  96  98
BRANCH  96 102
ATOM    102  OG1 THR A   4     153.323 160.058 190.124  0.00  0.00    -0.390 OA
ATOM    103  HG1 THR A   4     153.063 160.826 189.584  0.00  0.00    +0.210 HD
ENDBRANCH  96 102
ENDBRANCH  32  96
TORSDOF 12
ENDMDL
MODEL 5
REMARK VINA RESULT:      -5.8      3.185      7.745
REMARK  Name = Phalloidin_conf2
REMARK  12 active torsions:
REMARK  status: ('A' for Active; 'I' for Inactive)
REMARK    1  A    between atoms: CB_1  and  CA_2
REMARK    2  A    between atoms: CG_24  and  OD_30
REMARK    3  A    between atoms: CA_34  and  CB_53
REMARK    4  A    between atoms: CA_38  and  CB_52
REMARK    5  A    between atoms: C_42  and  C_46
REMARK    6  A    between atoms: C_46  and  C_47
REMARK    7  A    between atoms: C_47  and  C_48
REMARK    8  A    between atoms: C_47  and  C_49
REMARK    9  A    between atoms: C_47  and  O_51
REMARK   10  A    between atoms: C_49  and  O_50
REMARK   11  A    between atoms: CB_53  and  CG2_54
REMARK   12  A    between atoms: CB_53  and  OG1_55
REMARK                            x       y       z     vdW  Elec       q    Type
REMARK                         _______ _______ _______ _____ _____    ______ ____
ROOT
ATOM      1  CA  ALA A   7     147.646 165.892 194.158  0.00  0.00    +0.097 C 
ATOM      2  C   ALA A   7     147.112 165.838 192.713  0.00  0.00    +0.234 C 
ATOM      3  O   ALA A   7     147.567 165.007 191.924  0.00  0.00    -0.274 OA
ATOM      4  N   UNK A   1     146.119 166.698 192.320  0.00  0.00    -0.302 N 
ATOM      5  C   UNK A   1     145.828 166.951 190.891  0.00  0.00    +0.103 C 
ATOM      6  C   UNK A   1     147.037 167.626 190.195  0.00  0.00    +0.002 C 
ATOM      7  C   UNK A   1     147.106 167.570 188.696  0.00  0.00    -0.006 A 
ATOM      8  C   UNK A   5     148.176 167.145 187.929  0.00  0.00    +0.078 A 
ATOM      9  N   UNK A   5     147.859 167.279 186.610  0.00  0.00    -0.349 N 
ATOM     10  C   UNK A   5     146.597 167.800 186.475  0.00  0.00    +0.048 A 
ATOM     11  C   UNK A   5     145.873 168.107 185.316  0.00  0.00    -0.038 A 
ATOM     12  C   UNK A   5     144.600 168.659 185.475  0.00  0.00    -0.060 A 
ATOM     13  C   UNK A   5     144.080 168.902 186.742  0.00  0.00    -0.061 A 
ATOM     14  C   UNK A   5     144.819 168.587 187.890  0.00  0.00    -0.052 A 
ATOM     15  C   UNK A   5     146.104 168.017 187.763  0.00  0.00    +0.004 A 
ATOM     16  S   UNK A   5     149.779 166.590 188.298  0.00  0.00    -0.105 S 
ATOM     17  C   UNK A   5     149.437 165.010 189.136  0.00  0.00    +0.027 C 
ATOM     18  C   UNK A   5     150.668 164.313 189.735  0.00  0.00    +0.109 C 
ATOM     19  C   UNK A   5     150.751 164.504 191.275  0.00  0.00    +0.237 C 
ATOM     20  O   UNK A   5     150.245 163.692 192.060  0.00  0.00    -0.274 OA
ATOM     21  N   HYP A   6     151.382 165.622 191.783  0.00  0.00    -0.286 N 
ATOM     22  CD  HYP A   6     152.242 166.556 191.068  0.00  0.00    +0.042 C 
ATOM     23  CG  HYP A   6     152.685 167.585 192.111  0.00  0.00    +0.073 C 
ATOM     24  CB  HYP A   6     152.540 166.858 193.444  0.00  0.00    +0.002 C 
ATOM     25  CA  HYP A   6     151.377 165.889 193.222  0.00  0.00    +0.105 C 
ATOM     26  C   HYP A   6     150.010 166.511 193.586  0.00  0.00    +0.234 C 
ATOM     27  O   HYP A   6     149.744 167.690 193.361  0.00  0.00    -0.274 OA
ATOM     28  N   ALA A   7     149.080 165.598 194.038  0.00  0.00    -0.303 N 
ATOM     29  N   UNK A   5     150.538 162.868 189.512  0.00  0.00    -0.302 N 
ATOM     30  C   THR A   4     151.473 162.102 188.867  0.00  0.00    +0.237 C 
ATOM     31  O   THR A   4     152.545 162.560 188.475  0.00  0.00    -0.274 OA
ATOM     32  CA  THR A   4     151.147 160.596 188.766  0.00  0.00    +0.125 C 
ATOM     33  N   THR A   4     149.752 160.292 189.094  0.00  0.00    -0.300 N 
ATOM     34  C   ALA A   3     148.719 160.414 188.196  0.00  0.00    +0.234 C 
ATOM     35  O   ALA A   3     148.883 160.793 187.037  0.00  0.00    -0.274 OA
ATOM     36  CA  ALA A   3     147.331 160.086 188.788  0.00  0.00    +0.097 C 
ATOM     37  N   ALA A   3     146.462 161.239 188.616  0.00  0.00    -0.303 N 
ATOM     38  C   UNK A   2     146.638 162.378 189.361  0.00  0.00    +0.234 C 
ATOM     39  O   UNK A   2     147.536 162.465 190.199  0.00  0.00    -0.274 OA
ATOM     40  C   UNK A   2     145.642 163.531 189.065  0.00  0.00    +0.102 C 
ATOM     41  N   UNK A   2     145.978 164.649 189.940  0.00  0.00    -0.302 N 
ATOM     42  C   UNK A   1     145.198 165.760 190.112  0.00  0.00    +0.234 C 
ATOM     43  O   UNK A   1     144.074 165.844 189.613  0.00  0.00    -0.274 OA
ATOM     44  HA  ALA A   7     147.212 165.034 194.683  0.00  0.00    +0.059 HD
ATOM     45  H   UNK A   1     145.732 167.350 192.989  0.00  0.00    +0.150 HD
ATOM     46  H   UNK A   1     145.026 167.700 190.929  0.00  0.00    +0.060 HD
ATOM     47  H   UNK A   1     147.971 167.235 190.608  0.00  0.00    +0.034 HD
ATOM     48  H   UNK A   1     147.042 168.686 190.488  0.00  0.00    +0.034 HD
ATOM     49  H   UNK A   5     148.479 167.047 185.849  0.00  0.00    +0.166 HD
ATOM     50  H   UNK A   5     146.286 167.932 184.328  0.00  0.00    +0.064 HD
ATOM     51  H   UNK A   5     144.013 168.914 184.594  0.00  0.00    +0.062 HD
ATOM     52  H   UNK A   5     143.090 169.339 186.846  0.00  0.00    +0.062 HD
ATOM     53  H   UNK A   5     144.392 168.783 188.868  0.00  0.00    +0.062 HD
ATOM     54  H   UNK A   5     148.702 165.196 189.911  0.00  0.00    +0.040 HD
ATOM     55  H   UNK A   5     148.966 164.367 188.383  0.00  0.00    +0.040 HD
ATOM     56  H   UNK A   5     151.597 164.652 189.270  0.00  0.00    +0.060 HD
ATOM     57  HD1 HYP A   6     151.705 167.017 190.242  0.00  0.00    +0.049 HD
ATOM     58  HD2 HYP A   6     153.093 165.984 190.683  0.00  0.00    +0.049 HD
ATOM     59  HG  HYP A   6     153.715 167.911 191.934  0.00  0.00    +0.061 HD
ATOM     60  HB1 HYP A   6     152.373 167.535 194.287  0.00  0.00    +0.031 HD
ATOM     61  HB2 HYP A   6     153.452 166.279 193.636  0.00  0.00    +0.031 HD
ATOM     62  HA  HYP A   6     151.521 164.965 193.792  0.00  0.00    +0.060 HD
ATOM     63  H   ALA A   7     149.307 164.624 193.839  0.00  0.00    +0.149 HD
ATOM     64  H   UNK A   5     149.717 162.412 189.915  0.00  0.00    +0.150 HD
ATOM     65  HA  THR A   4     151.316 160.321 187.718  0.00  0.00    +0.062 HD
ATOM     66  H   THR A   4     149.596 159.929 190.028  0.00  0.00    +0.150 HD
ATOM     67  HA  ALA A   3     147.423 159.895 189.863  0.00  0.00    +0.059 HD
ATOM     68  H   ALA A   3     145.785 161.258 187.850  0.00  0.00    +0.149 HD
ATOM     69  H   UNK A   2     144.641 163.192 189.348  0.00  0.00    +0.060 HD
ATOM     70  H   UNK A   2     146.791 164.531 190.553  0.00  0.00    +0.150 HD
ENDROOT
BRANCH   1  71
ATOM     71  CB  ALA A   7     147.331 167.151 194.952  0.00  0.00    -0.038 C 
ATOM     72  HB1 ALA A   7     147.661 168.045 194.416  0.00  0.00    +0.025 HD
ATOM     73  HB2 ALA A   7     146.263 167.256 195.168  0.00  0.00    +0.025 HD
ATOM     74  HB3 ALA A   7     147.849 167.130 195.918  0.00  0.00    +0.025 HD
ENDBRANCH   1  71
BRANCH  36  75
ATOM     75  CB  ALA A   3     146.757 158.854 188.107  0.00  0.00    -0.038 C 
ATOM     76  HB1 ALA A   3     146.257 158.187 188.820  0.00  0.00    +0.025 HD
ATOM     77  HB2 ALA A   3     147.548 158.277 187.616  0.00  0.00    +0.025 HD
ATOM     78  HB3 ALA A   3     146.021 159.141 187.348  0.00  0.00    +0.025 HD
ENDBRANCH  36  75
BRANCH  40  79
ATOM     79  C   UNK A   2     145.730 163.954 187.586  0.00  0.00    +0.005 C 
ATOM     80  H   UNK A   2     146.580 163.437 187.118  0.00  0.00    +0.032 HD
ATOM     81  H   UNK A   2     145.952 165.022 187.495  0.00  0.00    +0.032 HD
BRANCH  79  82
ATOM     82  C   UNK A   2     144.457 163.672 186.769  0.00  0.00    +0.088 C 
BRANCH  82  83
ATOM     83  C   UNK A   2     143.901 164.987 186.205  0.00  0.00    -0.034 C 
ATOM     84  H   UNK A   2     144.650 165.513 185.603  0.00  0.00    +0.026 HD
ATOM     85  H   UNK A   2     143.632 165.674 187.017  0.00  0.00    +0.026 HD
ATOM     86  H   UNK A   2     143.014 164.812 185.587  0.00  0.00    +0.026 HD
ENDBRANCH  82  83
BRANCH  82  87
ATOM     87  C   UNK A   2     143.382 162.946 187.607  0.00  0.00    +0.073 C 
ATOM     88  H   UNK A   2     142.370 163.260 187.332  0.00  0.00    +0.059 HD
ATOM     89  H   UNK A   2     143.536 163.110 188.677  0.00  0.00    +0.059 HD
BRANCH  87  90
ATOM     90  O   UNK A   2     143.514 161.534 187.395  0.00  0.00    -0.392 OA
ATOM     91  H   UNK A   2     144.045 161.435 186.582  0.00  0.00    +0.210 HD
ENDBRANCH  87  90
ENDBRANCH  82  87
BRANCH  82  92
ATOM     92  O   UNK A   2     144.786 162.834 185.645  0.00  0.00    -0.387 OA
ATOM     93  H   UNK A   2     145.536 163.303 185.216  0.00  0.00    +0.210 HD
ENDBRANCH  82  92
ENDBRANCH  79  82
ENDBRANCH  40  79
BRANCH  23  94
ATOM     94  OD  HYP A   6     151.875 168.756 192.073  0.00  0.00    -0.390 OA
ATOM     95  HD  HYP A   6     150.935 168.500 192.204  0.00  0.00    +0.210 HD
ENDBRANCH  23  94
BRANCH  32  96
ATOM     96  CB  THR A   4     152.113 159.834 189.710  0.00  0.00    +0.079 C 
ATOM     97  HB  THR A   4     152.885 159.300 189.141  0.00  0.00    +0.061 HD
BRANCH  96  98
ATOM     98  CG2 THR A   4     151.364 158.829 190.577  0.00  0.00    -0.037 C 
ATOM     99 HG21 THR A   4     151.949 157.910 190.691  0.00  0.00    +0.026 HD
ATOM    100 HG22 THR A   4     150.396 158.572 190.134  0.00  0.00    +0.026 HD
ATOM    101 HG23 THR A   4     151.201 159.223 191.586  0.00  0.00    +0.026 HD
ENDBRANCH  96  98
BRANCH  96 102
ATOM    102  OG1 THR A   4     152.807 160.756 190.577  0.00  0.00    -0.390 OA
ATOM    103  HG1 THR A   4     152.915 161.587 190.079  0.00  0.00    +0.210 HD
ENDBRANCH  96 102
ENDBRANCH  32  96
TORSDOF 12
ENDMDL
MODEL 6
REMARK VINA RESULT:      -5.8      3.873      8.556
REMARK  Name = Phalloidin_conf2
REMARK  12 active torsions:
REMARK  status: ('A' for Active; 'I' for Inactive)
REMARK    1  A    between atoms: CB_1  and  CA_2
REMARK    2  A    between atoms: CG_24  and  OD_30
REMARK    3  A    between atoms: CA_34  and  CB_53
REMARK    4  A    between atoms: CA_38  and  CB_52
REMARK    5  A    between atoms: C_42  and  C_46
REMARK    6  A    between atoms: C_46  and  C_47
REMARK    7  A    between atoms: C_47  and  C_48
REMARK    8  A    between atoms: C_47  and  C_49
REMARK    9  A    between atoms: C_47  and  O_51
REMARK   10  A    between atoms: C_49  and  O_50
REMARK   11  A    between atoms: CB_53  and  CG2_54
REMARK   12  A    between atoms: CB_53  and  OG1_55
REMARK                            x       y       z     vdW  Elec       q    Type
REMARK                         _______ _______ _______ _____ _____    ______ ____
ROOT
ATOM      1  CA  ALA A   7     148.042 166.069 192.564  0.00  0.00    +0.097 C 
ATOM      2  C   ALA A   7     147.431 165.403 191.316  0.00  0.00    +0.234 C 
ATOM      3  O   ALA A   7     147.875 164.324 190.918  0.00  0.00    -0.274 OA
ATOM      4  N   UNK A   1     146.383 166.003 190.667  0.00  0.00    -0.302 N 
ATOM      5  C   UNK A   1     146.002 165.627 189.287  0.00  0.00    +0.103 C 
ATOM      6  C   UNK A   1     147.140 165.963 188.291  0.00  0.00    +0.002 C 
ATOM      7  C   UNK A   1     147.128 165.283 186.953  0.00  0.00    -0.006 A 
ATOM      8  C   UNK A   5     148.171 164.590 186.364  0.00  0.00    +0.078 A 
ATOM      9  N   UNK A   5     147.775 164.151 185.136  0.00  0.00    -0.349 N 
ATOM     10  C   UNK A   5     146.487 164.549 184.880  0.00  0.00    +0.048 A 
ATOM     11  C   UNK A   5     145.687 164.328 183.752  0.00  0.00    -0.038 A 
ATOM     12  C   UNK A   5     144.402 164.878 183.751  0.00  0.00    -0.060 A 
ATOM     13  C   UNK A   5     143.945 165.625 184.831  0.00  0.00    -0.061 A 
ATOM     14  C   UNK A   5     144.760 165.833 185.953  0.00  0.00    -0.052 A 
ATOM     15  C   UNK A   5     146.057 165.280 185.989  0.00  0.00    +0.004 A 
ATOM     16  S   UNK A   5     149.813 164.265 186.821  0.00  0.00    -0.105 S 
ATOM     17  C   UNK A   5     149.585 163.180 188.265  0.00  0.00    +0.027 C 
ATOM     18  C   UNK A   5     150.875 162.818 189.016  0.00  0.00    +0.109 C 
ATOM     19  C   UNK A   5     151.036 163.640 190.324  0.00  0.00    +0.237 C 
ATOM     20  O   UNK A   5     150.609 163.227 191.409  0.00  0.00    -0.274 OA
ATOM     21  N   HYP A   6     151.647 164.876 190.272  0.00  0.00    -0.286 N 
ATOM     22  CD  HYP A   6     152.426 165.435 189.175  0.00  0.00    +0.042 C 
ATOM     23  CG  HYP A   6     152.884 166.814 189.657  0.00  0.00    +0.073 C 
ATOM     24  CB  HYP A   6     152.844 166.714 191.179  0.00  0.00    +0.002 C 
ATOM     25  CA  HYP A   6     151.711 165.725 191.464  0.00  0.00    +0.105 C 
ATOM     26  C   HYP A   6     150.343 166.423 191.626  0.00  0.00    +0.234 C 
ATOM     27  O   HYP A   6     150.016 167.394 190.946  0.00  0.00    -0.274 OA
ATOM     28  N   ALA A   7     149.478 165.772 192.481  0.00  0.00    -0.303 N 
ATOM     29  N   UNK A   5     150.793 161.411 189.429  0.00  0.00    -0.302 N 
ATOM     30  C   THR A   4     151.722 160.458 189.102  0.00  0.00    +0.237 C 
ATOM     31  O   THR A   4     152.751 160.724 188.482  0.00  0.00    -0.274 OA
ATOM     32  CA  THR A   4     151.454 159.045 189.665  0.00  0.00    +0.125 C 
ATOM     33  N   THR A   4     150.094 158.887 190.184  0.00  0.00    -0.300 N 
ATOM     34  C   ALA A   3     149.008 158.605 189.390  0.00  0.00    +0.234 C 
ATOM     35  O   ALA A   3     149.091 158.463 188.171  0.00  0.00    -0.274 OA
ATOM     36  CA  ALA A   3     147.669 158.538 190.158  0.00  0.00    +0.097 C 
ATOM     37  N   ALA A   3     146.746 159.498 189.578  0.00  0.00    -0.303 N 
ATOM     38  C   UNK A   2     146.915 160.848 189.763  0.00  0.00    +0.234 C 
ATOM     39  O   UNK A   2     147.854 161.292 190.425  0.00  0.00    -0.274 OA
ATOM     40  C   UNK A   2     145.857 161.753 189.080  0.00  0.00    +0.102 C 
ATOM     41  N   UNK A   2     146.195 163.141 189.380  0.00  0.00    -0.302 N 
ATOM     42  C   UNK A   1     145.379 164.210 189.123  0.00  0.00    +0.234 C 
ATOM     43  O   UNK A   1     144.226 164.060 188.713  0.00  0.00    -0.274 OA
ATOM     44  HA  ALA A   7     147.674 165.504 193.429  0.00  0.00    +0.059 HD
ATOM     45  H   UNK A   1     146.007 166.871 191.025  0.00  0.00    +0.150 HD
ATOM     46  H   UNK A   1     145.172 166.310 189.062  0.00  0.00    +0.060 HD
ATOM     47  H   UNK A   1     148.112 165.796 188.765  0.00  0.00    +0.034 HD
ATOM     48  H   UNK A   1     147.118 167.048 188.112  0.00  0.00    +0.034 HD
ATOM     49  H   UNK A   5     148.361 163.629 184.501  0.00  0.00    +0.166 HD
ATOM     50  H   UNK A   5     146.051 163.760 182.903  0.00  0.00    +0.064 HD
ATOM     51  H   UNK A   5     143.757 164.730 182.887  0.00  0.00    +0.062 HD
ATOM     52  H   UNK A   5     142.945 166.050 184.811  0.00  0.00    +0.062 HD
ATOM     53  H   UNK A   5     144.380 166.416 186.785  0.00  0.00    +0.062 HD
ATOM     54  H   UNK A   5     148.887 163.664 188.940  0.00  0.00    +0.040 HD
ATOM     55  H   UNK A   5     149.100 162.272 187.885  0.00  0.00    +0.040 HD
ATOM     56  H   UNK A   5     151.762 162.942 188.389  0.00  0.00    +0.060 HD
ATOM     57  HD1 HYP A   6     151.826 165.498 188.270  0.00  0.00    +0.049 HD
ATOM     58  HD2 HYP A   6     153.278 164.767 189.008  0.00  0.00    +0.049 HD
ATOM     59  HG  HYP A   6     153.888 167.050 189.291  0.00  0.00    +0.061 HD
ATOM     60  HB1 HYP A   6     152.696 167.680 191.670  0.00  0.00    +0.031 HD
ATOM     61  HB2 HYP A   6     153.789 166.282 191.534  0.00  0.00    +0.031 HD
ATOM     62  HA  HYP A   6     151.926 165.129 192.357  0.00  0.00    +0.060 HD
ATOM     63  H   ALA A   7     149.734 164.807 192.694  0.00  0.00    +0.149 HD
ATOM     64  H   UNK A   5     150.016 161.156 190.040  0.00  0.00    +0.150 HD
ATOM     65  HA  THR A   4     151.575 158.357 188.819  0.00  0.00    +0.062 HD
ATOM     66  H   THR A   4     150.005 158.949 191.192  0.00  0.00    +0.150 HD
ATOM     67  HA  ALA A   3     147.830 158.817 191.205  0.00  0.00    +0.059 HD
ATOM     68  H   ALA A   3     146.026 159.182 188.923  0.00  0.00    +0.149 HD
ATOM     69  H   UNK A   2     144.888 161.552 189.547  0.00  0.00    +0.060 HD
ATOM     70  H   UNK A   2     147.044 163.304 189.930  0.00  0.00    +0.150 HD
ENDROOT
BRANCH   1  71
ATOM     71  CB  ALA A   7     147.720 167.540 192.777  0.00  0.00    -0.038 C 
ATOM     72  HB1 ALA A   7     148.236 167.930 193.659  0.00  0.00    +0.025 HD
ATOM     73  HB2 ALA A   7     147.996 168.159 191.917  0.00  0.00    +0.025 HD
ATOM     74  HB3 ALA A   7     146.644 167.675 192.932  0.00  0.00    +0.025 HD
ENDBRANCH   1  71
BRANCH  36  75
ATOM     75  CB  ALA A   3     147.110 157.125 190.098  0.00  0.00    -0.038 C 
ATOM     76  HB1 ALA A   3     147.278 156.577 191.033  0.00  0.00    +0.025 HD
ATOM     77  HB2 ALA A   3     147.584 156.553 189.292  0.00  0.00    +0.025 HD
ATOM     78  HB3 ALA A   3     146.031 157.145 189.914  0.00  0.00    +0.025 HD
ENDBRANCH  36  75
BRANCH  40  79
ATOM     79  C   UNK A   2     145.844 161.516 187.557  0.00  0.00    +0.005 C 
ATOM     80  H   UNK A   2     146.803 161.069 187.259  0.00  0.00    +0.032 HD
ATOM     81  H   UNK A   2     145.783 162.463 187.013  0.00  0.00    +0.032 HD
BRANCH  79  82
ATOM     82  C   UNK A   2     144.696 160.619 187.066  0.00  0.00    +0.088 C 
BRANCH  82  83
ATOM     83  C   UNK A   2     145.235 159.590 186.061  0.00  0.00    -0.034 C 
ATOM     84  H   UNK A   2     146.290 159.363 186.250  0.00  0.00    +0.026 HD
ATOM     85  H   UNK A   2     145.191 159.986 185.039  0.00  0.00    +0.026 HD
ATOM     86  H   UNK A   2     144.663 158.657 186.100  0.00  0.00    +0.026 HD
ENDBRANCH  82  83
BRANCH  82  87
ATOM     87  C   UNK A   2     143.551 161.441 186.433  0.00  0.00    +0.073 C 
ATOM     88  H   UNK A   2     142.928 160.830 185.772  0.00  0.00    +0.059 HD
ATOM     89  H   UNK A   2     143.939 162.299 185.879  0.00  0.00    +0.059 HD
BRANCH  87  90
ATOM     90  O   UNK A   2     142.739 161.978 187.486  0.00  0.00    -0.392 OA
ATOM     91  H   UNK A   2     141.891 161.496 187.441  0.00  0.00    +0.210 HD
ENDBRANCH  87  90
ENDBRANCH  82  87
BRANCH  82  92
ATOM     92  O   UNK A   2     144.153 159.882 188.177  0.00  0.00    -0.387 OA
ATOM     93  H   UNK A   2     144.949 159.521 188.627  0.00  0.00    +0.210 HD
ENDBRANCH  82  92
ENDBRANCH  79  82
ENDBRANCH  40  79
BRANCH  23  94
ATOM     94  OD  HYP A   6     152.025 167.848 189.187  0.00  0.00    -0.390 OA
ATOM     95  HD  HYP A   6     151.265 167.939 189.804  0.00  0.00    +0.210 HD
ENDBRANCH  23  94
BRANCH  32  96
ATOM     96  CB  THR A   4     152.502 158.766 190.772  0.00  0.00    +0.079 C 
ATOM     97  HB  THR A   4     153.091 159.664 190.996  0.00  0.00    +0.061 HD
BRANCH  96  98
ATOM     98  CG2 THR A   4     153.455 157.647 190.365  0.00  0.00    -0.037 C 
ATOM     99 HG21 THR A   4     152.894 156.784 189.990  0.00  0.00    +0.026 HD
ATOM    100 HG22 THR A   4     154.065 157.323 191.213  0.00  0.00    +0.026 HD
ATOM    101 HG23 THR A   4     154.114 157.969 189.552  0.00  0.00    +0.026 HD
ENDBRANCH  96  98
BRANCH  96 102
ATOM    102  OG1 THR A   4     151.851 158.385 192.003  0.00  0.00    -0.390 OA
ATOM    103  HG1 THR A   4     152.554 158.216 192.655  0.00  0.00    +0.210 HD
ENDBRANCH  96 102
ENDBRANCH  32  96
TORSDOF 12
ENDMDL
MODEL 7
REMARK VINA RESULT:      -5.7      3.134      6.856
REMARK  Name = Phalloidin_conf2
REMARK  12 active torsions:
REMARK  status: ('A' for Active; 'I' for Inactive)
REMARK    1  A    between atoms: CB_1  and  CA_2
REMARK    2  A    between atoms: CG_24  and  OD_30
REMARK    3  A    between atoms: CA_34  and  CB_53
REMARK    4  A    between atoms: CA_38  and  CB_52
REMARK    5  A    between atoms: C_42  and  C_46
REMARK    6  A    between atoms: C_46  and  C_47
REMARK    7  A    between atoms: C_47  and  C_48
REMARK    8  A    between atoms: C_47  and  C_49
REMARK    9  A    between atoms: C_47  and  O_51
REMARK   10  A    between atoms: C_49  and  O_50
REMARK   11  A    between atoms: CB_53  and  CG2_54
REMARK   12  A    between atoms: CB_53  and  OG1_55
REMARK                            x       y       z     vdW  Elec       q    Type
REMARK                         _______ _______ _______ _____ _____    ______ ____
ROOT
ATOM      1  CA  ALA A   7     151.660 166.950 187.468  0.00  0.00    +0.097 C 
ATOM      2  C   ALA A   7     150.999 165.562 187.563  0.00  0.00    +0.234 C 
ATOM      3  O   ALA A   7     149.826 165.466 187.933  0.00  0.00    -0.274 OA
ATOM      4  N   UNK A   1     151.711 164.442 187.217  0.00  0.00    -0.302 N 
ATOM      5  C   UNK A   1     151.280 163.087 187.628  0.00  0.00    +0.103 C 
ATOM      6  C   UNK A   1     151.318 162.942 189.171  0.00  0.00    +0.002 C 
ATOM      7  C   UNK A   1     150.529 161.826 189.792  0.00  0.00    -0.006 A 
ATOM      8  C   UNK A   5     149.612 161.931 190.823  0.00  0.00    +0.078 A 
ATOM      9  N   UNK A   5     149.137 160.689 191.123  0.00  0.00    -0.349 N 
ATOM     10  C   UNK A   5     149.729 159.746 190.321  0.00  0.00    +0.048 A 
ATOM     11  C   UNK A   5     149.549 158.358 190.285  0.00  0.00    -0.038 A 
ATOM     12  C   UNK A   5     150.313 157.629 189.371  0.00  0.00    -0.060 A 
ATOM     13  C   UNK A   5     151.225 158.265 188.536  0.00  0.00    -0.061 A 
ATOM     14  C   UNK A   5     151.390 159.655 188.585  0.00  0.00    -0.052 A 
ATOM     15  C   UNK A   5     150.625 160.421 189.489  0.00  0.00    +0.004 A 
ATOM     16  S   UNK A   5     149.048 163.245 191.806  0.00  0.00    -0.105 S 
ATOM     17  C   UNK A   5     148.158 164.262 190.585  0.00  0.00    +0.027 C 
ATOM     18  C   UNK A   5     147.647 165.611 191.113  0.00  0.00    +0.109 C 
ATOM     19  C   UNK A   5     148.547 166.792 190.656  0.00  0.00    +0.237 C 
ATOM     20  O   UNK A   5     148.317 167.420 189.614  0.00  0.00    -0.274 OA
ATOM     21  N   HYP A   6     149.646 167.136 191.415  0.00  0.00    -0.286 N 
ATOM     22  CD  HYP A   6     149.955 166.706 192.773  0.00  0.00    +0.042 C 
ATOM     23  CG  HYP A   6     151.272 167.401 193.133  0.00  0.00    +0.073 C 
ATOM     24  CB  HYP A   6     151.321 168.616 192.212  0.00  0.00    +0.002 C 
ATOM     25  CA  HYP A   6     150.577 168.167 190.952  0.00  0.00    +0.105 C 
ATOM     26  C   HYP A   6     151.516 167.526 189.907  0.00  0.00    +0.234 C 
ATOM     27  O   HYP A   6     152.462 166.807 190.226  0.00  0.00    -0.274 OA
ATOM     28  N   ALA A   7     151.110 167.706 188.601  0.00  0.00    -0.303 N 
ATOM     29  N   UNK A   5     146.322 165.864 190.535  0.00  0.00    -0.302 N 
ATOM     30  C   THR A   4     145.194 166.110 191.274  0.00  0.00    +0.237 C 
ATOM     31  O   THR A   4     145.216 166.205 192.501  0.00  0.00    -0.274 OA
ATOM     32  CA  THR A   4     143.908 166.376 190.461  0.00  0.00    +0.125 C 
ATOM     33  N   THR A   4     144.040 166.008 189.050  0.00  0.00    -0.300 N 
ATOM     34  C   ALA A   3     143.881 164.725 188.583  0.00  0.00    +0.234 C 
ATOM     35  O   ALA A   3     143.614 163.776 189.318  0.00  0.00    -0.274 OA
ATOM     36  CA  ALA A   3     144.120 164.576 187.065  0.00  0.00    +0.097 C 
ATOM     37  N   ALA A   3     145.170 163.594 186.849  0.00  0.00    -0.303 N 
ATOM     38  C   UNK A   2     146.480 163.878 187.143  0.00  0.00    +0.234 C 
ATOM     39  O   UNK A   2     146.812 164.972 187.601  0.00  0.00    -0.274 OA
ATOM     40  C   UNK A   2     147.490 162.733 186.869  0.00  0.00    +0.102 C 
ATOM     41  N   UNK A   2     148.819 163.209 187.240  0.00  0.00    -0.302 N 
ATOM     42  C   UNK A   1     149.985 162.556 186.947  0.00  0.00    +0.234 C 
ATOM     43  O   UNK A   1     150.003 161.551 186.234  0.00  0.00    -0.274 OA
ATOM     44  HA  ALA A   7     151.252 167.428 186.569  0.00  0.00    +0.059 HD
ATOM     45  H   UNK A   1     152.660 164.540 186.884  0.00  0.00    +0.150 HD
ATOM     46  H   UNK A   1     152.075 162.442 187.231  0.00  0.00    +0.060 HD
ATOM     47  H   UNK A   1     151.028 163.886 189.641  0.00  0.00    +0.034 HD
ATOM     48  H   UNK A   1     152.368 162.812 189.469  0.00  0.00    +0.034 HD
ATOM     49  H   UNK A   5     148.464 160.497 191.850  0.00  0.00    +0.166 HD
ATOM     50  H   UNK A   5     148.849 157.861 190.949  0.00  0.00    +0.064 HD
ATOM     51  H   UNK A   5     150.201 156.547 189.321  0.00  0.00    +0.062 HD
ATOM     52  H   UNK A   5     151.816 157.680 187.834  0.00  0.00    +0.062 HD
ATOM     53  H   UNK A   5     152.106 160.130 187.921  0.00  0.00    +0.062 HD
ATOM     54  H   UNK A   5     148.818 164.421 189.740  0.00  0.00    +0.040 HD
ATOM     55  H   UNK A   5     147.319 163.648 190.238  0.00  0.00    +0.040 HD
ATOM     56  H   UNK A   5     147.555 165.616 192.202  0.00  0.00    +0.060 HD
ATOM     57  HD1 HYP A   6     150.038 165.623 192.824  0.00  0.00    +0.049 HD
ATOM     58  HD2 HYP A   6     149.136 167.045 193.415  0.00  0.00    +0.049 HD
ATOM     59  HG  HYP A   6     151.292 167.689 194.189  0.00  0.00    +0.061 HD
ATOM     60  HB1 HYP A   6     152.340 168.956 192.003  0.00  0.00    +0.031 HD
ATOM     61  HB2 HYP A   6     150.766 169.440 192.677  0.00  0.00    +0.031 HD
ATOM     62  HA  HYP A   6     150.038 169.004 190.495  0.00  0.00    +0.060 HD
ATOM     63  H   ALA A   7     150.139 168.002 188.494  0.00  0.00    +0.149 HD
ATOM     64  H   UNK A   5     146.264 165.906 189.516  0.00  0.00    +0.150 HD
ATOM     65  HA  THR A   4     143.134 165.739 190.906  0.00  0.00    +0.062 HD
ATOM     66  H   THR A   4     144.210 166.781 188.415  0.00  0.00    +0.150 HD
ATOM     67  HA  ALA A   3     144.464 165.530 186.649  0.00  0.00    +0.059 HD
ATOM     68  H   ALA A   3     144.926 162.635 186.588  0.00  0.00    +0.149 HD
ATOM     69  H   UNK A   2     147.506 162.548 185.791  0.00  0.00    +0.060 HD
ATOM     70  H   UNK A   2     148.881 164.153 187.634  0.00  0.00    +0.150 HD
ENDROOT
BRANCH   1  71
ATOM     71  CB  ALA A   7     153.178 166.977 187.379  0.00  0.00    -0.038 C 
ATOM     72  HB1 ALA A   7     153.584 165.963 187.310  0.00  0.00    +0.025 HD
ATOM     73  HB2 ALA A   7     153.539 167.550 186.519  0.00  0.00    +0.025 HD
ATOM     74  HB3 ALA A   7     153.603 167.447 188.273  0.00  0.00    +0.025 HD
ENDBRANCH   1  71
BRANCH  36  75
ATOM     75  CB  ALA A   3     142.828 164.166 186.376  0.00  0.00    -0.038 C 
ATOM     76  HB1 ALA A   3     142.982 163.337 185.675  0.00  0.00    +0.025 HD
ATOM     77  HB2 ALA A   3     142.407 165.003 185.808  0.00  0.00    +0.025 HD
ATOM     78  HB3 ALA A   3     142.084 163.843 187.113  0.00  0.00    +0.025 HD
ENDBRANCH  36  75
BRANCH  40  79
ATOM     79  C   UNK A   2     147.119 161.478 187.682  0.00  0.00    +0.005 C 
ATOM     80  H   UNK A   2     146.259 161.713 188.327  0.00  0.00    +0.032 HD
ATOM     81  H   UNK A   2     147.926 161.199 188.366  0.00  0.00    +0.032 HD
BRANCH  79  82
ATOM     82  C   UNK A   2     146.783 160.244 186.827  0.00  0.00    +0.088 C 
BRANCH  82  83
ATOM     83  C   UNK A   2     146.724 160.643 185.345  0.00  0.00    -0.034 C 
ATOM     84  H   UNK A   2     146.475 159.785 184.710  0.00  0.00    +0.026 HD
ATOM     85  H   UNK A   2     147.702 160.998 184.999  0.00  0.00    +0.026 HD
ATOM     86  H   UNK A   2     145.985 161.432 185.173  0.00  0.00    +0.026 HD
ENDBRANCH  82  83
BRANCH  82  87
ATOM     87  C   UNK A   2     145.457 159.583 187.261  0.00  0.00    +0.073 C 
ATOM     88  H   UNK A   2     145.611 158.839 188.048  0.00  0.00    +0.059 HD
ATOM     89  H   UNK A   2     144.951 159.116 186.412  0.00  0.00    +0.059 HD
BRANCH  87  90
ATOM     90  O   UNK A   2     144.574 160.605 187.742  0.00  0.00    -0.392 OA
ATOM     91  H   UNK A   2     145.118 161.410 187.825  0.00  0.00    +0.210 HD
ENDBRANCH  87  90
ENDBRANCH  82  87
BRANCH  82  92
ATOM     92  O   UNK A   2     147.833 159.268 186.962  0.00  0.00    -0.387 OA
ATOM     93  H   UNK A   2     147.573 158.755 187.759  0.00  0.00    +0.210 HD
ENDBRANCH  82  92
ENDBRANCH  79  82
ENDBRANCH  40  79
BRANCH  23  94
ATOM     94  OD  HYP A   6     152.392 166.548 192.921  0.00  0.00    -0.390 OA
ATOM     95  HD  HYP A   6     152.971 166.944 192.233  0.00  0.00    +0.210 HD
ENDBRANCH  23  94
BRANCH  32  96
ATOM     96  CB  THR A   4     143.554 167.878 190.608  0.00  0.00    +0.079 C 
ATOM     97  HB  THR A   4     142.748 168.025 191.339  0.00  0.00    +0.061 HD
BRANCH  96  98
ATOM     98  CG2 THR A   4     143.119 168.478 189.276  0.00  0.00    -0.037 C 
ATOM     99 HG21 THR A   4     143.850 168.246 188.494  0.00  0.00    +0.026 HD
ATOM    100 HG22 THR A   4     143.021 169.566 189.349  0.00  0.00    +0.026 HD
ATOM    101 HG23 THR A   4     142.164 168.054 188.947  0.00  0.00    +0.026 HD
ENDBRANCH  96  98
BRANCH  96 102
ATOM    102  OG1 THR A   4     144.690 168.622 191.096  0.00  0.00    -0.390 OA
ATOM    103  HG1 THR A   4     144.634 169.512 190.705  0.00  0.00    +0.210 HD
ENDBRANCH  96 102
ENDBRANCH  32  96
TORSDOF 12
ENDMDL
MODEL 8
REMARK VINA RESULT:      -5.6      4.245      9.311
REMARK  Name = Phalloidin_conf2
REMARK  12 active torsions:
REMARK  status: ('A' for Active; 'I' for Inactive)
REMARK    1  A    between atoms: CB_1  and  CA_2
REMARK    2  A    between atoms: CG_24  and  OD_30
REMARK    3  A    between atoms: CA_34  and  CB_53
REMARK    4  A    between atoms: CA_38  and  CB_52
REMARK    5  A    between atoms: C_42  and  C_46
REMARK    6  A    between atoms: C_46  and  C_47
REMARK    7  A    between atoms: C_47  and  C_48
REMARK    8  A    between atoms: C_47  and  C_49
REMARK    9  A    between atoms: C_47  and  O_51
REMARK   10  A    between atoms: C_49  and  O_50
REMARK   11  A    between atoms: CB_53  and  CG2_54
REMARK   12  A    between atoms: CB_53  and  OG1_55
REMARK                            x       y       z     vdW  Elec       q    Type
REMARK                         _______ _______ _______ _____ _____    ______ ____
ROOT
ATOM      1  CA  ALA A   7     151.924 164.907 184.047  0.00  0.00    +0.097 C 
ATOM      2  C   ALA A   7     151.603 163.886 185.155  0.00  0.00    +0.234 C 
ATOM      3  O   ALA A   7     151.415 164.276 186.310  0.00  0.00    -0.274 OA
ATOM      4  N   UNK A   1     151.506 162.554 184.848  0.00  0.00    -0.302 N 
ATOM      5  C   UNK A   1     151.570 161.506 185.892  0.00  0.00    +0.103 C 
ATOM      6  C   UNK A   1     152.956 161.505 186.585  0.00  0.00    +0.002 C 
ATOM      7  C   UNK A   1     153.073 160.833 187.922  0.00  0.00    -0.006 A 
ATOM      8  C   UNK A   5     153.607 161.374 189.079  0.00  0.00    +0.078 A 
ATOM      9  N   UNK A   5     153.563 160.437 190.069  0.00  0.00    -0.349 N 
ATOM     10  C   UNK A   5     153.021 159.269 189.595  0.00  0.00    +0.048 A 
ATOM     11  C   UNK A   5     152.790 158.055 190.253  0.00  0.00    -0.038 A 
ATOM     12  C   UNK A   5     152.241 157.008 189.509  0.00  0.00    -0.060 A 
ATOM     13  C   UNK A   5     151.944 157.171 188.160  0.00  0.00    -0.061 A 
ATOM     14  C   UNK A   5     152.180 158.394 187.518  0.00  0.00    -0.052 A 
ATOM     15  C   UNK A   5     152.723 159.474 188.246  0.00  0.00    +0.004 A 
ATOM     16  S   UNK A   5     154.356 162.890 189.468  0.00  0.00    -0.105 S 
ATOM     17  C   UNK A   5     152.962 164.047 189.280  0.00  0.00    +0.027 C 
ATOM     18  C   UNK A   5     153.329 165.532 189.415  0.00  0.00    +0.109 C 
ATOM     19  C   UNK A   5     153.412 166.238 188.034  0.00  0.00    +0.237 C 
ATOM     20  O   UNK A   5     152.433 166.804 187.532  0.00  0.00    -0.274 OA
ATOM     21  N   HYP A   6     154.601 166.212 187.334  0.00  0.00    -0.286 N 
ATOM     22  CD  HYP A   6     155.916 165.828 187.833  0.00  0.00    +0.042 C 
ATOM     23  CG  HYP A   6     156.871 166.005 186.650  0.00  0.00    +0.073 C 
ATOM     24  CB  HYP A   6     156.172 167.018 185.749  0.00  0.00    +0.002 C 
ATOM     25  CA  HYP A   6     154.680 166.767 185.981  0.00  0.00    +0.105 C 
ATOM     26  C   HYP A   6     154.097 165.722 185.003  0.00  0.00    +0.234 C 
ATOM     27  O   HYP A   6     154.733 164.734 184.641  0.00  0.00    -0.274 OA
ATOM     28  N   ALA A   7     152.766 165.918 184.701  0.00  0.00    -0.303 N 
ATOM     29  N   UNK A   5     152.256 166.210 190.152  0.00  0.00    -0.302 N 
ATOM     30  C   THR A   4     152.448 166.932 191.301  0.00  0.00    +0.237 C 
ATOM     31  O   THR A   4     153.565 167.128 191.778  0.00  0.00    -0.274 OA
ATOM     32  CA  THR A   4     151.183 167.586 191.899  0.00  0.00    +0.125 C 
ATOM     33  N   THR A   4     149.944 167.064 191.318  0.00  0.00    -0.300 N 
ATOM     34  C   ALA A   3     149.346 165.898 191.733  0.00  0.00    +0.234 C 
ATOM     35  O   ALA A   3     149.806 165.194 192.630  0.00  0.00    -0.274 OA
ATOM     36  CA  ALA A   3     148.076 165.526 190.935  0.00  0.00    +0.097 C 
ATOM     37  N   ALA A   3     148.256 164.205 190.356  0.00  0.00    -0.303 N 
ATOM     38  C   UNK A   2     149.114 164.000 189.305  0.00  0.00    +0.234 C 
ATOM     39  O   UNK A   2     149.763 164.926 188.817  0.00  0.00    -0.274 OA
ATOM     40  C   UNK A   2     149.210 162.538 188.796  0.00  0.00    +0.102 C 
ATOM     41  N   UNK A   2     150.161 162.511 187.689  0.00  0.00    -0.302 N 
ATOM     42  C   UNK A   1     150.350 161.441 186.856  0.00  0.00    +0.234 C 
ATOM     43  O   UNK A   1     149.632 160.441 186.914  0.00  0.00    -0.274 OA
ATOM     44  HA  ALA A   7     150.983 165.416 183.810  0.00  0.00    +0.059 HD
ATOM     45  H   UNK A   1     151.629 162.253 183.890  0.00  0.00    +0.150 HD
ATOM     46  H   UNK A   1     151.505 160.574 185.315  0.00  0.00    +0.060 HD
ATOM     47  H   UNK A   1     153.333 162.529 186.668  0.00  0.00    +0.034 HD
ATOM     48  H   UNK A   1     153.670 161.017 185.905  0.00  0.00    +0.034 HD
ATOM     49  H   UNK A   5     153.905 160.583 191.007  0.00  0.00    +0.166 HD
ATOM     50  H   UNK A   5     153.038 157.924 191.301  0.00  0.00    +0.064 HD
ATOM     51  H   UNK A   5     152.054 156.049 189.989  0.00  0.00    +0.062 HD
ATOM     52  H   UNK A   5     151.522 156.343 187.594  0.00  0.00    +0.062 HD
ATOM     53  H   UNK A   5     151.937 158.498 186.466  0.00  0.00    +0.062 HD
ATOM     54  H   UNK A   5     152.506 163.864 188.314  0.00  0.00    +0.040 HD
ATOM     55  H   UNK A   5     152.233 163.765 190.048  0.00  0.00    +0.040 HD
ATOM     56  H   UNK A   5     154.266 165.675 189.961  0.00  0.00    +0.060 HD
ATOM     57  HD1 HYP A   6     155.904 164.804 188.198  0.00  0.00    +0.049 HD
ATOM     58  HD2 HYP A   6     156.163 166.510 188.653  0.00  0.00    +0.049 HD
ATOM     59  HG  HYP A   6     157.851 166.363 186.981  0.00  0.00    +0.061 HD
ATOM     60  HB1 HYP A   6     156.458 166.928 184.696  0.00  0.00    +0.031 HD
ATOM     61  HB2 HYP A   6     156.418 168.031 186.092  0.00  0.00    +0.031 HD
ATOM     62  HA  HYP A   6     154.109 167.697 185.906  0.00  0.00    +0.060 HD
ATOM     63  H   ALA A   7     152.272 166.547 185.336  0.00  0.00    +0.149 HD
ATOM     64  H   UNK A   5     151.321 166.175 189.742  0.00  0.00    +0.150 HD
ATOM     65  HA  THR A   4     151.190 167.333 192.966  0.00  0.00    +0.062 HD
ATOM     66  H   THR A   4     149.516 167.651 190.611  0.00  0.00    +0.150 HD
ATOM     67  HA  ALA A   3     147.936 166.236 190.113  0.00  0.00    +0.059 HD
ATOM     68  H   ALA A   3     147.833 163.389 190.806  0.00  0.00    +0.149 HD
ATOM     69  H   UNK A   2     148.234 162.260 188.385  0.00  0.00    +0.060 HD
ATOM     70  H   UNK A   2     150.623 163.394 187.452  0.00  0.00    +0.150 HD
ENDROOT
BRANCH   1  71
ATOM     71  CB  ALA A   7     152.508 164.350 182.757  0.00  0.00    -0.038 C 
ATOM     72  HB1 ALA A   7     152.114 163.352 182.547  0.00  0.00    +0.025 HD
ATOM     73  HB2 ALA A   7     152.302 164.988 181.892  0.00  0.00    +0.025 HD
ATOM     74  HB3 ALA A   7     153.598 164.270 182.837  0.00  0.00    +0.025 HD
ENDBRANCH   1  71
BRANCH  36  75
ATOM     75  CB  ALA A   3     146.861 165.571 191.849  0.00  0.00    -0.038 C 
ATOM     76  HB1 ALA A   3     145.987 166.005 191.348  0.00  0.00    +0.025 HD
ATOM     77  HB2 ALA A   3     147.066 166.176 192.738  0.00  0.00    +0.025 HD
ATOM     78  HB3 ALA A   3     146.588 164.561 192.176  0.00  0.00    +0.025 HD
ENDBRANCH  36  75
BRANCH  40  79
ATOM     79  C   UNK A   2     149.669 161.599 189.928  0.00  0.00    +0.005 C 
ATOM     80  H   UNK A   2     149.929 162.205 190.808  0.00  0.00    +0.032 HD
ATOM     81  H   UNK A   2     150.588 161.073 189.654  0.00  0.00    +0.032 HD
BRANCH  79  82
ATOM     82  C   UNK A   2     148.629 160.541 190.334  0.00  0.00    +0.088 C 
BRANCH  82  83
ATOM     83  C   UNK A   2     149.170 159.137 190.027  0.00  0.00    -0.034 C 
ATOM     84  H   UNK A   2     148.609 158.661 189.216  0.00  0.00    +0.026 HD
ATOM     85  H   UNK A   2     149.057 158.479 190.897  0.00  0.00    +0.026 HD
ATOM     86  H   UNK A   2     150.229 159.171 189.749  0.00  0.00    +0.026 HD
ENDBRANCH  82  83
BRANCH  82  87
ATOM     87  C   UNK A   2     147.273 160.762 189.628  0.00  0.00    +0.073 C 
ATOM     88  H   UNK A   2     147.195 161.767 189.202  0.00  0.00    +0.059 HD
ATOM     89  H   UNK A   2     146.438 160.590 190.312  0.00  0.00    +0.059 HD
BRANCH  87  90
ATOM     90  O   UNK A   2     147.140 159.792 188.581  0.00  0.00    -0.392 OA
ATOM     91  H   UNK A   2     147.674 159.025 188.859  0.00  0.00    +0.210 HD
ENDBRANCH  87  90
ENDBRANCH  82  87
BRANCH  82  92
ATOM     92  O   UNK A   2     148.407 160.608 191.755  0.00  0.00    -0.387 OA
ATOM     93  H   UNK A   2     148.106 161.533 191.901  0.00  0.00    +0.210 HD
ENDBRANCH  82  92
ENDBRANCH  79  82
ENDBRANCH  40  79
BRANCH  23  94
ATOM     94  OD  HYP A   6     157.095 164.776 185.965  0.00  0.00    -0.390 OA
ATOM     95  HD  HYP A   6     156.646 164.051 186.453  0.00  0.00    +0.210 HD
ENDBRANCH  23  94
BRANCH  32  96
ATOM     96  CB  THR A   4     151.290 169.117 191.683  0.00  0.00    +0.079 C 
ATOM     97  HB  THR A   4     151.973 169.574 192.410  0.00  0.00    +0.061 HD
BRANCH  96  98
ATOM     98  CG2 THR A   4     149.928 169.791 191.805  0.00  0.00    -0.037 C 
ATOM     99 HG21 THR A   4     149.713 170.388 190.911  0.00  0.00    +0.026 HD
ATOM    100 HG22 THR A   4     149.892 170.449 192.679  0.00  0.00    +0.026 HD
ATOM    101 HG23 THR A   4     149.127 169.048 191.883  0.00  0.00    +0.026 HD
ENDBRANCH  96  98
BRANCH  96 102
ATOM    102  OG1 THR A   4     151.828 169.409 190.376  0.00  0.00    -0.390 OA
ATOM    103  HG1 THR A   4     152.542 168.767 190.213  0.00  0.00    +0.210 HD
ENDBRANCH  96 102
ENDBRANCH  32  96
TORSDOF 12
ENDMDL
MODEL 9
REMARK VINA RESULT:      -5.6      2.760      8.593
REMARK  Name = Phalloidin_conf2
REMARK  12 active torsions:
REMARK  status: ('A' for Active; 'I' for Inactive)
REMARK    1  A    between atoms: CB_1  and  CA_2
REMARK    2  A    between atoms: CG_24  and  OD_30
REMARK    3  A    between atoms: CA_34  and  CB_53
REMARK    4  A    between atoms: CA_38  and  CB_52
REMARK    5  A    between atoms: C_42  and  C_46
REMARK    6  A    between atoms: C_46  and  C_47
REMARK    7  A    between atoms: C_47  and  C_48
REMARK    8  A    between atoms: C_47  and  C_49
REMARK    9  A    between atoms: C_47  and  O_51
REMARK   10  A    between atoms: C_49  and  O_50
REMARK   11  A    between atoms: CB_53  and  CG2_54
REMARK   12  A    between atoms: CB_53  and  OG1_55
REMARK                            x       y       z     vdW  Elec       q    Type
REMARK                         _______ _______ _______ _____ _____    ______ ____
ROOT
ATOM      1  CA  ALA A   7     151.469 165.369 184.632  0.00  0.00    +0.097 C 
ATOM      2  C   ALA A   7     150.256 164.877 185.445  0.00  0.00    +0.234 C 
ATOM      3  O   ALA A   7     149.933 165.466 186.479  0.00  0.00    -0.274 OA
ATOM      4  N   UNK A   1     149.531 163.800 185.004  0.00  0.00    -0.302 N 
ATOM      5  C   UNK A   1     148.612 163.060 185.898  0.00  0.00    +0.103 C 
ATOM      6  C   UNK A   1     149.394 162.382 187.052  0.00  0.00    +0.002 C 
ATOM      7  C   UNK A   1     148.624 161.962 188.270  0.00  0.00    -0.006 A 
ATOM      8  C   UNK A   5     148.921 162.270 189.587  0.00  0.00    +0.078 A 
ATOM      9  N   UNK A   5     148.004 161.674 190.400  0.00  0.00    -0.349 N 
ATOM     10  C   UNK A   5     147.101 160.957 189.655  0.00  0.00    +0.048 A 
ATOM     11  C   UNK A   5     146.004 160.191 190.068  0.00  0.00    -0.038 A 
ATOM     12  C   UNK A   5     145.261 159.538 189.081  0.00  0.00    -0.060 A 
ATOM     13  C   UNK A   5     145.610 159.643 187.739  0.00  0.00    -0.061 A 
ATOM     14  C   UNK A   5     146.711 160.416 187.344  0.00  0.00    -0.052 A 
ATOM     15  C   UNK A   5     147.474 161.097 188.316  0.00  0.00    +0.004 A 
ATOM     16  S   UNK A   5     150.205 163.143 190.361  0.00  0.00    -0.105 S 
ATOM     17  C   UNK A   5     149.901 164.840 189.776  0.00  0.00    +0.027 C 
ATOM     18  C   UNK A   5     150.974 165.866 190.172  0.00  0.00    +0.109 C 
ATOM     19  C   UNK A   5     151.926 166.195 188.990  0.00  0.00    +0.237 C 
ATOM     20  O   UNK A   5     151.701 167.133 188.215  0.00  0.00    -0.274 OA
ATOM     21  N   HYP A   6     153.039 165.406 188.780  0.00  0.00    -0.286 N 
ATOM     22  CD  HYP A   6     153.617 164.428 189.693  0.00  0.00    +0.042 C 
ATOM     23  CG  HYP A   6     154.844 163.866 188.969  0.00  0.00    +0.073 C 
ATOM     24  CB  HYP A   6     155.222 164.955 187.969  0.00  0.00    +0.002 C 
ATOM     25  CA  HYP A   6     153.892 165.619 187.609  0.00  0.00    +0.105 C 
ATOM     26  C   HYP A   6     153.208 164.954 186.394  0.00  0.00    +0.234 C 
ATOM     27  O   HYP A   6     153.241 163.739 186.205  0.00  0.00    -0.274 OA
ATOM     28  N   ALA A   7     152.440 165.816 185.640  0.00  0.00    -0.303 N 
ATOM     29  N   UNK A   5     150.306 167.127 190.518  0.00  0.00    -0.302 N 
ATOM     30  C   THR A   4     150.457 167.773 191.717  0.00  0.00    +0.237 C 
ATOM     31  O   THR A   4     151.228 167.375 192.590  0.00  0.00    -0.274 OA
ATOM     32  CA  THR A   4     149.682 169.101 191.861  0.00  0.00    +0.125 C 
ATOM     33  N   THR A   4     148.670 169.286 190.818  0.00  0.00    -0.300 N 
ATOM     34  C   ALA A   3     147.415 168.731 190.874  0.00  0.00    +0.234 C 
ATOM     35  O   ALA A   3     147.037 168.028 191.810  0.00  0.00    -0.274 OA
ATOM     36  CA  ALA A   3     146.543 169.024 189.633  0.00  0.00    +0.097 C 
ATOM     37  N   ALA A   3     146.125 167.763 189.044  0.00  0.00    -0.303 N 
ATOM     38  C   UNK A   2     147.014 166.963 188.372  0.00  0.00    +0.234 C 
ATOM     39  O   UNK A   2     148.196 167.284 188.244  0.00  0.00    -0.274 OA
ATOM     40  C   UNK A   2     146.429 165.644 187.803  0.00  0.00    +0.102 C 
ATOM     41  N   UNK A   2     147.509 164.929 187.129  0.00  0.00    -0.302 N 
ATOM     42  C   UNK A   1     147.331 163.831 186.332  0.00  0.00    +0.234 C 
ATOM     43  O   UNK A   1     146.207 163.426 186.029  0.00  0.00    -0.274 OA
ATOM     44  HA  ALA A   7     151.146 166.277 184.111  0.00  0.00    +0.059 HD
ATOM     45  H   UNK A   1     149.789 163.348 184.137  0.00  0.00    +0.150 HD
ATOM     46  H   UNK A   1     148.234 162.254 185.256  0.00  0.00    +0.060 HD
ATOM     47  H   UNK A   1     150.229 163.018 187.361  0.00  0.00    +0.034 HD
ATOM     48  H   UNK A   1     149.883 161.486 186.643  0.00  0.00    +0.034 HD
ATOM     49  H   UNK A   5     148.009 161.736 191.407  0.00  0.00    +0.166 HD
ATOM     50  H   UNK A   5     145.743 160.097 191.117  0.00  0.00    +0.064 HD
ATOM     51  H   UNK A   5     144.406 158.930 189.369  0.00  0.00    +0.062 HD
ATOM     52  H   UNK A   5     145.024 159.123 186.985  0.00  0.00    +0.062 HD
ATOM     53  H   UNK A   5     146.962 160.485 186.291  0.00  0.00    +0.062 HD
ATOM     54  H   UNK A   5     149.799 164.808 188.697  0.00  0.00    +0.040 HD
ATOM     55  H   UNK A   5     148.928 165.130 190.191  0.00  0.00    +0.040 HD
ATOM     56  H   UNK A   5     151.557 165.536 191.036  0.00  0.00    +0.060 HD
ATOM     57  HD1 HYP A   6     152.894 163.652 189.933  0.00  0.00    +0.049 HD
ATOM     58  HD2 HYP A   6     153.901 164.964 190.605  0.00  0.00    +0.049 HD
ATOM     59  HG  HYP A   6     155.657 163.656 189.671  0.00  0.00    +0.061 HD
ATOM     60  HB1 HYP A   6     155.754 164.569 187.094  0.00  0.00    +0.031 HD
ATOM     61  HB2 HYP A   6     155.863 165.692 188.469  0.00  0.00    +0.031 HD
ATOM     62  HA  HYP A   6     154.027 166.688 187.413  0.00  0.00    +0.060 HD
ATOM     63  H   ALA A   7     152.210 166.697 186.102  0.00  0.00    +0.149 HD
ATOM     64  H   UNK A   5     149.738 167.562 189.789  0.00  0.00    +0.150 HD
ATOM     65  HA  THR A   4     149.166 169.045 192.827  0.00  0.00    +0.062 HD
ATOM     66  H   THR A   4     148.938 169.903 190.059  0.00  0.00    +0.150 HD
ATOM     67  HA  ALA A   3     147.135 169.563 188.885  0.00  0.00    +0.059 HD
ATOM     68  H   ALA A   3     145.187 167.400 189.230  0.00  0.00    +0.149 HD
ATOM     69  H   UNK A   2     145.692 165.905 187.037  0.00  0.00    +0.060 HD
ATOM     70  H   UNK A   2     148.440 165.356 187.161  0.00  0.00    +0.150 HD
ENDROOT
BRANCH   1  71
ATOM     71  CB  ALA A   7     152.038 164.401 183.605  0.00  0.00    -0.038 C 
ATOM     72  HB1 ALA A   7     151.249 163.778 183.175  0.00  0.00    +0.025 HD
ATOM     73  HB2 ALA A   7     152.555 164.913 182.787  0.00  0.00    +0.025 HD
ATOM     74  HB3 ALA A   7     152.771 163.737 184.075  0.00  0.00    +0.025 HD
ENDBRANCH   1  71
BRANCH  36  75
ATOM     75  CB  ALA A   3     145.346 169.874 190.032  0.00  0.00    -0.038 C 
ATOM     76  HB1 ALA A   3     145.648 170.784 190.564  0.00  0.00    +0.025 HD
ATOM     77  HB2 ALA A   3     144.674 169.314 190.692  0.00  0.00    +0.025 HD
ATOM     78  HB3 ALA A   3     144.779 170.180 189.146  0.00  0.00    +0.025 HD
ENDBRANCH  36  75
BRANCH  40  79
ATOM     79  C   UNK A   2     145.833 164.784 188.934  0.00  0.00    +0.005 C 
ATOM     80  H   UNK A   2     146.037 165.273 189.897  0.00  0.00    +0.032 HD
ATOM     81  H   UNK A   2     146.329 163.811 188.991  0.00  0.00    +0.032 HD
BRANCH  79  82
ATOM     82  C   UNK A   2     144.321 164.532 188.808  0.00  0.00    +0.088 C 
BRANCH  82  83
ATOM     83  C   UNK A   2     143.569 165.354 189.865  0.00  0.00    -0.034 C 
ATOM     84  H   UNK A   2     143.112 164.709 190.623  0.00  0.00    +0.026 HD
ATOM     85  H   UNK A   2     142.742 165.911 189.407  0.00  0.00    +0.026 HD
ATOM     86  H   UNK A   2     144.235 166.066 190.365  0.00  0.00    +0.026 HD
ENDBRANCH  82  83
BRANCH  82  87
ATOM     87  C   UNK A   2     143.972 163.034 188.942  0.00  0.00    +0.073 C 
ATOM     88  H   UNK A   2     143.088 162.875 189.568  0.00  0.00    +0.059 HD
ATOM     89  H   UNK A   2     144.813 162.466 189.349  0.00  0.00    +0.059 HD
BRANCH  87  90
ATOM     90  O   UNK A   2     143.726 162.503 187.633  0.00  0.00    -0.392 OA
ATOM     91  H   UNK A   2     144.247 163.055 187.020  0.00  0.00    +0.210 HD
ENDBRANCH  87  90
ENDBRANCH  82  87
BRANCH  82  92
ATOM     92  O   UNK A   2     143.865 164.981 187.518  0.00  0.00    -0.387 OA
ATOM     93  H   UNK A   2     143.404 164.196 187.148  0.00  0.00    +0.210 HD
ENDBRANCH  82  92
ENDBRANCH  79  82
ENDBRANCH  40  79
BRANCH  23  94
ATOM     94  OD  HYP A   6     154.549 162.640 188.307  0.00  0.00    -0.390 OA
ATOM     95  HD  HYP A   6     153.591 162.616 188.090  0.00  0.00    +0.210 HD
ENDBRANCH  23  94
BRANCH  32  96
ATOM     96  CB  THR A   4     150.713 170.259 191.840  0.00  0.00    +0.079 C 
ATOM     97  HB  THR A   4     151.254 170.325 192.792  0.00  0.00    +0.061 HD
BRANCH  96  98
ATOM     98  CG2 THR A   4     150.037 171.599 191.569  0.00  0.00    -0.037 C 
ATOM     99 HG21 THR A   4     150.508 172.100 190.716  0.00  0.00    +0.026 HD
ATOM    100 HG22 THR A   4     150.106 172.257 192.441  0.00  0.00    +0.026 HD
ATOM    101 HG23 THR A   4     148.982 171.461 191.308  0.00  0.00    +0.026 HD
ENDBRANCH  96  98
BRANCH  96 102
ATOM    102  OG1 THR A   4     151.707 170.035 190.818  0.00  0.00    -0.390 OA
ATOM    103  HG1 THR A   4     152.309 170.799 190.836  0.00  0.00    +0.210 HD
ENDBRANCH  96 102
ENDBRANCH  32  96
TORSDOF 12
ENDMDL
MODEL 10
REMARK VINA RESULT:      -5.6      3.080      5.519
REMARK  Name = Phalloidin_conf2
REMARK  12 active torsions:
REMARK  status: ('A' for Active; 'I' for Inactive)
REMARK    1  A    between atoms: CB_1  and  CA_2
REMARK    2  A    between atoms: CG_24  and  OD_30
REMARK    3  A    between atoms: CA_34  and  CB_53
REMARK    4  A    between atoms: CA_38  and  CB_52
REMARK    5  A    between atoms: C_42  and  C_46
REMARK    6  A    between atoms: C_46  and  C_47
REMARK    7  A    between atoms: C_47  and  C_48
REMARK    8  A    between atoms: C_47  and  C_49
REMARK    9  A    between atoms: C_47  and  O_51
REMARK   10  A    between atoms: C_49  and  O_50
REMARK   11  A    between atoms: CB_53  and  CG2_54
REMARK   12  A    between atoms: CB_53  and  OG1_55
REMARK                            x       y       z     vdW  Elec       q    Type
REMARK                         _______ _______ _______ _____ _____    ______ ____
ROOT
ATOM      1  CA  ALA A   7     144.954 165.401 187.024  0.00  0.00    +0.097 C 
ATOM      2  C   ALA A   7     146.223 165.569 187.882  0.00  0.00    +0.234 C 
ATOM      3  O   ALA A   7     147.283 165.059 187.512  0.00  0.00    -0.274 OA
ATOM      4  N   UNK A   1     146.171 166.302 189.039  0.00  0.00    -0.302 N 
ATOM      5  C   UNK A   1     147.223 166.196 190.076  0.00  0.00    +0.103 C 
ATOM      6  C   UNK A   1     147.257 164.770 190.682  0.00  0.00    +0.002 C 
ATOM      7  C   UNK A   1     148.497 164.347 191.414  0.00  0.00    -0.006 A 
ATOM      8  C   UNK A   5     149.233 163.193 191.202  0.00  0.00    +0.078 A 
ATOM      9  N   UNK A   5     150.266 163.157 192.090  0.00  0.00    -0.349 N 
ATOM     10  C   UNK A   5     150.232 164.260 192.907  0.00  0.00    +0.048 A 
ATOM     11  C   UNK A   5     151.086 164.627 193.954  0.00  0.00    -0.038 A 
ATOM     12  C   UNK A   5     150.795 165.808 194.642  0.00  0.00    -0.060 A 
ATOM     13  C   UNK A   5     149.691 166.580 194.300  0.00  0.00    -0.061 A 
ATOM     14  C   UNK A   5     148.849 166.197 193.247  0.00  0.00    -0.052 A 
ATOM     15  C   UNK A   5     149.122 165.016 192.525  0.00  0.00    +0.004 A 
ATOM     16  S   UNK A   5     149.056 161.826 190.149  0.00  0.00    -0.105 S 
ATOM     17  C   UNK A   5     149.319 162.585 188.514  0.00  0.00    +0.027 C 
ATOM     18  C   UNK A   5     149.080 161.650 187.319  0.00  0.00    +0.109 C 
ATOM     19  C   UNK A   5     147.711 161.919 186.636  0.00  0.00    +0.237 C 
ATOM     20  O   UNK A   5     147.598 162.712 185.693  0.00  0.00    -0.274 OA
ATOM     21  N   HYP A   6     146.584 161.277 187.109  0.00  0.00    -0.286 N 
ATOM     22  CD  HYP A   6     146.528 160.144 188.023  0.00  0.00    +0.042 C 
ATOM     23  CG  HYP A   6     145.039 159.825 188.189  0.00  0.00    +0.073 C 
ATOM     24  CB  HYP A   6     144.389 160.394 186.932  0.00  0.00    +0.002 C 
ATOM     25  CA  HYP A   6     145.263 161.595 186.563  0.00  0.00    +0.105 C 
ATOM     26  C   HYP A   6     144.778 162.905 187.222  0.00  0.00    +0.234 C 
ATOM     27  O   HYP A   6     144.320 162.936 188.363  0.00  0.00    -0.274 OA
ATOM     28  N   ALA A   7     145.045 164.038 186.483  0.00  0.00    -0.303 N 
ATOM     29  N   UNK A   5     150.102 161.928 186.302  0.00  0.00    -0.302 N 
ATOM     30  C   THR A   4     150.950 160.984 185.785  0.00  0.00    +0.237 C 
ATOM     31  O   THR A   4     150.877 159.794 186.089  0.00  0.00    -0.274 OA
ATOM     32  CA  THR A   4     151.931 161.488 184.704  0.00  0.00    +0.125 C 
ATOM     33  N   THR A   4     152.007 162.949 184.641  0.00  0.00    -0.300 N 
ATOM     34  C   ALA A   3     152.792 163.703 185.480  0.00  0.00    +0.234 C 
ATOM     35  O   ALA A   3     153.497 163.209 186.358  0.00  0.00    -0.274 OA
ATOM     36  CA  ALA A   3     152.667 165.226 185.256  0.00  0.00    +0.097 C 
ATOM     37  N   ALA A   3     152.253 165.852 186.502  0.00  0.00    -0.303 N 
ATOM     38  C   UNK A   2     150.977 165.702 186.983  0.00  0.00    +0.234 C 
ATOM     39  O   UNK A   2     150.138 165.033 186.379  0.00  0.00    -0.274 OA
ATOM     40  C   UNK A   2     150.681 166.419 188.326  0.00  0.00    +0.102 C 
ATOM     41  N   UNK A   2     149.291 166.150 188.681  0.00  0.00    -0.302 N 
ATOM     42  C   UNK A   1     148.612 166.781 189.687  0.00  0.00    +0.234 C 
ATOM     43  O   UNK A   1     149.105 167.725 190.307  0.00  0.00    -0.274 OA
ATOM     44  HA  ALA A   7     145.070 166.069 186.162  0.00  0.00    +0.059 HD
ATOM     45  H   UNK A   1     145.303 166.742 189.311  0.00  0.00    +0.150 HD
ATOM     46  H   UNK A   1     146.862 166.867 190.866  0.00  0.00    +0.060 HD
ATOM     47  H   UNK A   1     147.031 164.030 189.908  0.00  0.00    +0.034 HD
ATOM     48  H   UNK A   1     146.413 164.684 191.382  0.00  0.00    +0.034 HD
ATOM     49  H   UNK A   5     150.941 162.409 192.148  0.00  0.00    +0.166 HD
ATOM     50  H   UNK A   5     151.938 164.015 194.231  0.00  0.00    +0.064 HD
ATOM     51  H   UNK A   5     151.436 166.120 195.465  0.00  0.00    +0.062 HD
ATOM     52  H   UNK A   5     149.477 167.494 194.850  0.00  0.00    +0.062 HD
ATOM     53  H   UNK A   5     147.995 166.817 192.997  0.00  0.00    +0.062 HD
ATOM     54  H   UNK A   5     148.672 163.452 188.441  0.00  0.00    +0.040 HD
ATOM     55  H   UNK A   5     150.354 162.945 188.514  0.00  0.00    +0.040 HD
ATOM     56  H   UNK A   5     149.153 160.597 187.602  0.00  0.00    +0.060 HD
ATOM     57  HD1 HYP A   6     147.000 160.391 188.971  0.00  0.00    +0.049 HD
ATOM     58  HD2 HYP A   6     147.063 159.316 187.547  0.00  0.00    +0.049 HD
ATOM     59  HG  HYP A   6     144.872 158.748 188.283  0.00  0.00    +0.061 HD
ATOM     60  HB1 HYP A   6     143.338 160.663 187.075  0.00  0.00    +0.031 HD
ATOM     61  HB2 HYP A   6     144.453 159.649 186.128  0.00  0.00    +0.031 HD
ATOM     62  HA  HYP A   6     145.311 161.728 185.477  0.00  0.00    +0.060 HD
ATOM     63  H   ALA A   7     145.736 163.912 185.742  0.00  0.00    +0.149 HD
ATOM     64  H   UNK A   5     150.135 162.879 185.930  0.00  0.00    +0.150 HD
ATOM     65  HA  THR A   4     152.918 161.109 184.994  0.00  0.00    +0.062 HD
ATOM     66  H   THR A   4     151.475 163.379 183.893  0.00  0.00    +0.150 HD
ATOM     67  HA  ALA A   3     151.892 165.427 184.508  0.00  0.00    +0.059 HD
ATOM     68  H   ALA A   3     152.947 166.312 187.096  0.00  0.00    +0.149 HD
ATOM     69  H   UNK A   2     150.765 167.498 188.158  0.00  0.00    +0.060 HD
ATOM     70  H   UNK A   2     148.761 165.537 188.052  0.00  0.00    +0.150 HD
ENDROOT
BRANCH   1  71
ATOM     71  CB  ALA A   7     143.628 165.716 187.701  0.00  0.00    -0.038 C 
ATOM     72  HB1 ALA A   7     142.878 164.955 187.466  0.00  0.00    +0.025 HD
ATOM     73  HB2 ALA A   7     143.718 165.784 188.790  0.00  0.00    +0.025 HD
ATOM     74  HB3 ALA A   7     143.245 166.682 187.354  0.00  0.00    +0.025 HD
ENDBRANCH   1  71
BRANCH  36  75
ATOM     75  CB  ALA A   3     153.993 165.787 184.767  0.00  0.00    -0.038 C 
ATOM     76  HB1 ALA A   3     153.974 166.882 184.696  0.00  0.00    +0.025 HD
ATOM     77  HB2 ALA A   3     154.238 165.396 183.774  0.00  0.00    +0.025 HD
ATOM     78  HB3 ALA A   3     154.803 165.514 185.452  0.00  0.00    +0.025 HD
ENDBRANCH  36  75
BRANCH  40  79
ATOM     79  C   UNK A   2     151.629 165.914 189.430  0.00  0.00    +0.005 C 
ATOM     80  H   UNK A   2     152.233 165.086 189.029  0.00  0.00    +0.032 HD
ATOM     81  H   UNK A   2     151.067 165.486 190.265  0.00  0.00    +0.032 HD
BRANCH  79  82
ATOM     82  C   UNK A   2     152.568 166.990 190.001  0.00  0.00    +0.088 C 
BRANCH  82  83
ATOM     83  C   UNK A   2     154.011 166.706 189.561  0.00  0.00    -0.034 C 
ATOM     84  H   UNK A   2     154.592 167.630 189.474  0.00  0.00    +0.026 HD
ATOM     85  H   UNK A   2     154.030 166.244 188.567  0.00  0.00    +0.026 HD
ATOM     86  H   UNK A   2     154.518 166.038 190.266  0.00  0.00    +0.026 HD
ENDBRANCH  82  83
BRANCH  82  87
ATOM     87  C   UNK A   2     152.480 167.076 191.540  0.00  0.00    +0.073 C 
ATOM     88  H   UNK A   2     153.460 167.253 191.995  0.00  0.00    +0.059 HD
ATOM     89  H   UNK A   2     152.040 166.169 191.963  0.00  0.00    +0.059 HD
BRANCH  87  90
ATOM     90  O   UNK A   2     151.596 168.151 191.888  0.00  0.00    -0.392 OA
ATOM     91  H   UNK A   2     151.790 168.870 191.258  0.00  0.00    +0.210 HD
ENDBRANCH  87  90
ENDBRANCH  82  87
BRANCH  82  92
ATOM     92  O   UNK A   2     152.207 168.276 189.462  0.00  0.00    -0.387 OA
ATOM     93  H   UNK A   2     151.345 168.475 189.892  0.00  0.00    +0.210 HD
ENDBRANCH  82  92
ENDBRANCH  79  82
ENDBRANCH  40  79
BRANCH  23  94
ATOM     94  OD  HYP A   6     144.500 160.425 189.363  0.00  0.00    -0.390 OA
ATOM     95  HD  HYP A   6     144.841 159.949 190.152  0.00  0.00    +0.210 HD
ENDBRANCH  23  94
BRANCH  32  96
ATOM     96  CB  THR A   4     151.482 160.901 183.341  0.00  0.00    +0.079 C 
ATOM     97  HB  THR A   4     151.990 159.950 183.132  0.00  0.00    +0.061 HD
BRANCH  96  98
ATOM     98  CG2 THR A   4     151.770 161.868 182.199  0.00  0.00    -0.037 C 
ATOM     99 HG21 THR A   4     150.875 162.010 181.582  0.00  0.00    +0.026 HD
ATOM    100 HG22 THR A   4     152.576 161.493 181.560  0.00  0.00    +0.026 HD
ATOM    101 HG23 THR A   4     152.046 162.856 182.580  0.00  0.00    +0.026 HD
ENDBRANCH  96  98
BRANCH  96 102
ATOM    102  OG1 THR A   4     150.067 160.616 183.353  0.00  0.00    -0.390 OA
ATOM    103  HG1 THR A   4     149.607 161.469 183.442  0.00  0.00    +0.210 HD
ENDBRANCH  96 102
ENDBRANCH  32  96
TORSDOF 12
ENDMDL
