MODEL 1
REMARK VINA RESULT:      -6.3      0.000      0.000
REMARK  Name = Phalloidin_conf3
REMARK  12 active torsions:
REMARK  status: ('A' for Active; 'I' for Inactive)
REMARK    1  A    between atoms: CB_1  and  CA_2
REMARK    2  A    between atoms: CG_24  and  OD_30
REMARK    3  A    between atoms: CA_34  and  CB_53
REMARK    4  A    between atoms: CA_38  and  CB_52
REMARK    5  A    between atoms: C_42  and  C_46
REMARK    6  A    between atoms: C_46  and  C_47
REMARK    7  A    between atoms: C_47  and  C_48
REMARK    8  A    between atoms: C_47  and  C_49
REMARK    9  A    between atoms: C_47  and  O_51
REMARK   10  A    between atoms: C_49  and  O_50
REMARK   11  A    between atoms: CB_53  and  CG2_54
REMARK   12  A    between atoms: CB_53  and  OG1_55
REMARK                            x       y       z     vdW  Elec       q    Type
REMARK                         _______ _______ _______ _____ _____    ______ ____
ROOT
ATOM      1  CA  ALA A   7     143.585 167.123 190.984  0.00  0.00    +0.097 C 
ATOM      2  C   ALA A   7     143.446 168.651 191.195  0.00  0.00    +0.234 C 
ATOM      3  O   ALA A   7     143.116 169.132 192.280  0.00  0.00    -0.274 OA
ATOM      4  N   UNK A   1     143.817 169.422 190.119  0.00  0.00    -0.302 N 
ATOM      5  C   UNK A   1     143.867 170.887 190.144  0.00  0.00    +0.103 C 
ATOM      6  C   UNK A   1     145.093 171.421 189.383  0.00  0.00    +0.002 C 
ATOM      7  C   UNK A   1     146.421 171.006 189.954  0.00  0.00    -0.006 A 
ATOM      8  C   UNK A   5     147.140 169.849 189.723  0.00  0.00    +0.078 A 
ATOM      9  N   UNK A   5     148.286 169.888 190.469  0.00  0.00    -0.349 N 
ATOM     10  C   UNK A   5     148.344 171.053 191.196  0.00  0.00    +0.048 A 
ATOM     11  C   UNK A   5     149.315 171.510 192.091  0.00  0.00    -0.038 A 
ATOM     12  C   UNK A   5     149.104 172.753 192.697  0.00  0.00    -0.060 A 
ATOM     13  C   UNK A   5     147.964 173.501 192.414  0.00  0.00    -0.061 A 
ATOM     14  C   UNK A   5     147.001 173.030 191.516  0.00  0.00    -0.052 A 
ATOM     15  C   UNK A   5     147.190 171.777 190.893  0.00  0.00    +0.004 A 
ATOM     16  S   UNK A   5     146.832 168.415 188.814  0.00  0.00    -0.105 S 
ATOM     17  C   UNK A   5     147.078 168.928 187.077  0.00  0.00    +0.027 C 
ATOM     18  C   UNK A   5     145.833 168.934 186.160  0.00  0.00    +0.109 C 
ATOM     19  C   UNK A   5     144.594 168.235 186.745  0.00  0.00    +0.237 C 
ATOM     20  O   UNK A   5     143.667 168.909 187.218  0.00  0.00    -0.274 OA
ATOM     21  N   HYP A   6     144.546 166.861 186.812  0.00  0.00    -0.286 N 
ATOM     22  CD  HYP A   6     145.473 165.913 186.217  0.00  0.00    +0.042 C 
ATOM     23  CG  HYP A   6     144.660 164.635 186.029  0.00  0.00    +0.073 C 
ATOM     24  CB  HYP A   6     143.625 164.709 187.148  0.00  0.00    +0.002 C 
ATOM     25  CA  HYP A   6     143.308 166.196 187.247  0.00  0.00    +0.105 C 
ATOM     26  C   HYP A   6     142.852 166.554 188.673  0.00  0.00    +0.234 C 
ATOM     27  O   HYP A   6     141.661 166.568 188.970  0.00  0.00    -0.274 OA
ATOM     28  N   ALA A   7     143.858 166.759 189.589  0.00  0.00    -0.303 N 
ATOM     29  N   UNK A   5     145.412 170.298 185.825  0.00  0.00    -0.302 N 
ATOM     30  C   THR A   4     146.101 171.079 184.927  0.00  0.00    +0.237 C 
ATOM     31  O   THR A   4     147.109 170.659 184.359  0.00  0.00    -0.274 OA
ATOM     32  CA  THR A   4     145.643 172.549 184.854  0.00  0.00    +0.125 C 
ATOM     33  N   THR A   4     144.210 172.714 185.113  0.00  0.00    -0.300 N 
ATOM     34  C   ALA A   3     143.721 173.890 185.661  0.00  0.00    +0.234 C 
ATOM     35  O   ALA A   3     144.465 174.793 186.039  0.00  0.00    -0.274 OA
ATOM     36  CA  ALA A   3     142.185 173.963 185.759  0.00  0.00    +0.097 C 
ATOM     37  N   ALA A   3     141.732 173.063 186.803  0.00  0.00    -0.303 N 
ATOM     38  C   UNK A   2     141.365 171.763 186.552  0.00  0.00    +0.234 C 
ATOM     39  O   UNK A   2     141.511 171.239 185.442  0.00  0.00    -0.274 OA
ATOM     40  C   UNK A   2     140.809 170.990 187.773  0.00  0.00    +0.102 C 
ATOM     41  N   UNK A   2     141.926 170.630 188.650  0.00  0.00    -0.302 N 
ATOM     42  C   UNK A   1     142.625 171.500 189.459  0.00  0.00    +0.234 C 
ATOM     43  O   UNK A   1     142.385 172.706 189.487  0.00  0.00    -0.274 OA
ATOM     44  HA  ALA A   7     142.625 166.678 191.272  0.00  0.00    +0.059 HD
ATOM     45  H   UNK A   1     144.088 168.953 189.263  0.00  0.00    +0.150 HD
ATOM     46  H   UNK A   1     143.884 171.227 191.186  0.00  0.00    +0.060 HD
ATOM     47  H   UNK A   1     145.047 171.117 188.333  0.00  0.00    +0.034 HD
ATOM     48  H   UNK A   1     145.057 172.517 189.368  0.00  0.00    +0.034 HD
ATOM     49  H   UNK A   5     148.976 169.153 190.499  0.00  0.00    +0.166 HD
ATOM     50  H   UNK A   5     150.209 170.933 192.312  0.00  0.00    +0.064 HD
ATOM     51  H   UNK A   5     149.845 173.147 193.390  0.00  0.00    +0.062 HD
ATOM     52  H   UNK A   5     147.820 174.472 192.891  0.00  0.00    +0.062 HD
ATOM     53  H   UNK A   5     146.134 173.644 191.303  0.00  0.00    +0.062 HD
ATOM     54  H   UNK A   5     147.781 168.190 186.675  0.00  0.00    +0.040 HD
ATOM     55  H   UNK A   5     147.607 169.885 187.052  0.00  0.00    +0.040 HD
ATOM     56  H   UNK A   5     146.090 168.459 185.205  0.00  0.00    +0.060 HD
ATOM     57  HD1 HYP A   6     145.862 166.282 185.265  0.00  0.00    +0.049 HD
ATOM     58  HD2 HYP A   6     146.318 165.762 186.895  0.00  0.00    +0.049 HD
ATOM     59  HG  HYP A   6     144.155 164.625 185.053  0.00  0.00    +0.061 HD
ATOM     60  HB1 HYP A   6     142.735 164.109 186.918  0.00  0.00    +0.031 HD
ATOM     61  HB2 HYP A   6     144.036 164.306 188.083  0.00  0.00    +0.031 HD
ATOM     62  HA  HYP A   6     142.519 166.488 186.543  0.00  0.00    +0.060 HD
ATOM     63  H   ALA A   7     144.814 166.774 189.255  0.00  0.00    +0.149 HD
ATOM     64  H   UNK A   5     144.570 170.667 186.264  0.00  0.00    +0.150 HD
ATOM     65  HA  THR A   4     146.181 173.042 185.679  0.00  0.00    +0.062 HD
ATOM     66  H   THR A   4     143.533 171.999 184.834  0.00  0.00    +0.150 HD
ATOM     67  HA  ALA A   3     141.776 173.632 184.793  0.00  0.00    +0.059 HD
ATOM     68  H   ALA A   3     141.828 173.354 187.782  0.00  0.00    +0.149 HD
ATOM     69  H   UNK A   2     140.448 170.029 187.394  0.00  0.00    +0.060 HD
ATOM     70  H   UNK A   2     142.191 169.650 188.677  0.00  0.00    +0.150 HD
ENDROOT
BRANCH   1  71
ATOM     71  CB  ALA A   7     144.694 166.585 191.886  0.00  0.00    -0.038 C 
ATOM     72  HB1 ALA A   7     144.280 166.148 192.801  0.00  0.00    +0.025 HD
ATOM     73  HB2 ALA A   7     145.383 167.385 192.181  0.00  0.00    +0.025 HD
ATOM     74  HB3 ALA A   7     145.274 165.804 191.381  0.00  0.00    +0.025 HD
ENDBRANCH   1  71
BRANCH  36  75
ATOM     75  CB  ALA A   3     141.701 175.383 186.025  0.00  0.00    -0.038 C 
ATOM     76  HB1 ALA A   3     142.241 176.099 185.397  0.00  0.00    +0.025 HD
ATOM     77  HB2 ALA A   3     140.633 175.498 185.808  0.00  0.00    +0.025 HD
ATOM     78  HB3 ALA A   3     141.866 175.654 187.075  0.00  0.00    +0.025 HD
ENDBRANCH  36  75
BRANCH  40  79
ATOM     79  C   UNK A   2     139.652 171.682 188.518  0.00  0.00    +0.005 C 
ATOM     80  H   UNK A   2     140.037 172.616 188.947  0.00  0.00    +0.032 HD
ATOM     81  H   UNK A   2     138.873 171.971 187.799  0.00  0.00    +0.032 HD
BRANCH  79  82
ATOM     82  C   UNK A   2     138.987 170.844 189.636  0.00  0.00    +0.088 C 
BRANCH  82  83
ATOM     83  C   UNK A   2     137.482 170.739 189.339  0.00  0.00    -0.034 C 
ATOM     84  H   UNK A   2     137.176 171.542 188.657  0.00  0.00    +0.026 HD
ATOM     85  H   UNK A   2     137.242 169.794 188.832  0.00  0.00    +0.026 HD
ATOM     86  H   UNK A   2     136.873 170.806 190.247  0.00  0.00    +0.026 HD
ENDBRANCH  82  83
BRANCH  82  87
ATOM     87  C   UNK A   2     139.201 171.429 191.049  0.00  0.00    +0.073 C 
ATOM     88  H   UNK A   2     138.252 171.445 191.599  0.00  0.00    +0.059 HD
ATOM     89  H   UNK A   2     139.887 170.808 191.635  0.00  0.00    +0.059 HD
BRANCH  87  90
ATOM     90  O   UNK A   2     139.708 172.751 190.988  0.00  0.00    -0.392 OA
ATOM     91  H   UNK A   2     140.025 172.896 190.081  0.00  0.00    +0.210 HD
ENDBRANCH  87  90
ENDBRANCH  82  87
BRANCH  82  92
ATOM     92  O   UNK A   2     139.526 169.515 189.596  0.00  0.00    -0.387 OA
ATOM     93  H   UNK A   2     139.452 169.188 188.682  0.00  0.00    +0.210 HD
ENDBRANCH  82  92
ENDBRANCH  79  82
ENDBRANCH  40  79
BRANCH  23  94
ATOM     94  OD  HYP A   6     145.449 163.468 186.172  0.00  0.00    -0.390 OA
ATOM     95  HD  HYP A   6     146.334 163.639 185.797  0.00  0.00    +0.210 HD
ENDBRANCH  23  94
BRANCH  32  96
ATOM     96  CB  THR A   4     146.097 173.222 183.535  0.00  0.00    +0.079 C 
ATOM     97  HB  THR A   4     145.864 174.293 183.587  0.00  0.00    +0.061 HD
BRANCH  96  98
ATOM     98  CG2 THR A   4     145.420 172.658 182.285  0.00  0.00    -0.037 C 
ATOM     99 HG21 THR A   4     146.032 171.885 181.807  0.00  0.00    +0.026 HD
ATOM    100 HG22 THR A   4     144.436 172.234 182.510  0.00  0.00    +0.026 HD
ATOM    101 HG23 THR A   4     145.296 173.450 181.537  0.00  0.00    +0.026 HD
ENDBRANCH  96  98
BRANCH  96 102
ATOM    102  OG1 THR A   4     147.514 173.138 183.357  0.00  0.00    -0.390 OA
ATOM    103  HG1 THR A   4     147.707 172.281 182.923  0.00  0.00    +0.210 HD
ENDBRANCH  96 102
ENDBRANCH  32  96
TORSDOF 12
ENDMDL
MODEL 2
REMARK VINA RESULT:      -6.3      1.727      2.326
REMARK  Name = Phalloidin_conf3
REMARK  12 active torsions:
REMARK  status: ('A' for Active; 'I' for Inactive)
REMARK    1  A    between atoms: CB_1  and  CA_2
REMARK    2  A    between atoms: CG_24  and  OD_30
REMARK    3  A    between atoms: CA_34  and  CB_53
REMARK    4  A    between atoms: CA_38  and  CB_52
REMARK    5  A    between atoms: C_42  and  C_46
REMARK    6  A    between atoms: C_46  and  C_47
REMARK    7  A    between atoms: C_47  and  C_48
REMARK    8  A    between atoms: C_47  and  C_49
REMARK    9  A    between atoms: C_47  and  O_51
REMARK   10  A    between atoms: C_49  and  O_50
REMARK   11  A    between atoms: CB_53  and  CG2_54
REMARK   12  A    between atoms: CB_53  and  OG1_55
REMARK                            x       y       z     vdW  Elec       q    Type
REMARK                         _______ _______ _______ _____ _____    ______ ____
ROOT
ATOM      1  CA  ALA A   7     143.772 166.931 190.636  0.00  0.00    +0.097 C 
ATOM      2  C   ALA A   7     143.487 168.242 191.409  0.00  0.00    +0.234 C 
ATOM      3  O   ALA A   7     143.379 168.266 192.635  0.00  0.00    -0.274 OA
ATOM      4  N   UNK A   1     143.467 169.379 190.636  0.00  0.00    -0.302 N 
ATOM      5  C   UNK A   1     143.325 170.733 191.179  0.00  0.00    +0.103 C 
ATOM      6  C   UNK A   1     144.237 171.733 190.447  0.00  0.00    +0.002 C 
ATOM      7  C   UNK A   1     145.709 171.450 190.567  0.00  0.00    -0.006 A 
ATOM      8  C   UNK A   5     146.496 170.611 189.801  0.00  0.00    +0.078 A 
ATOM      9  N   UNK A   5     147.777 170.652 190.279  0.00  0.00    -0.349 N 
ATOM     10  C   UNK A   5     147.858 171.504 191.354  0.00  0.00    +0.048 A 
ATOM     11  C   UNK A   5     148.954 171.846 192.153  0.00  0.00    -0.038 A 
ATOM     12  C   UNK A   5     148.737 172.752 193.196  0.00  0.00    -0.060 A 
ATOM     13  C   UNK A   5     147.473 173.290 193.425  0.00  0.00    -0.061 A 
ATOM     14  C   UNK A   5     146.387 172.938 192.617  0.00  0.00    -0.052 A 
ATOM     15  C   UNK A   5     146.580 172.024 191.558  0.00  0.00    +0.004 A 
ATOM     16  S   UNK A   5     146.164 169.515 188.510  0.00  0.00    -0.105 S 
ATOM     17  C   UNK A   5     145.894 170.600 187.065  0.00  0.00    +0.027 C 
ATOM     18  C   UNK A   5     144.469 170.634 186.464  0.00  0.00    +0.109 C 
ATOM     19  C   UNK A   5     143.523 169.536 186.980  0.00  0.00    +0.237 C 
ATOM     20  O   UNK A   5     142.663 169.807 187.831  0.00  0.00    -0.274 OA
ATOM     21  N   HYP A   6     143.678 168.237 186.552  0.00  0.00    -0.286 N 
ATOM     22  CD  HYP A   6     144.543 167.753 185.490  0.00  0.00    +0.042 C 
ATOM     23  CG  HYP A   6     143.889 166.460 185.009  0.00  0.00    +0.073 C 
ATOM     24  CB  HYP A   6     143.169 165.947 186.253  0.00  0.00    +0.002 C 
ATOM     25  CA  HYP A   6     142.690 167.219 186.942  0.00  0.00    +0.105 C 
ATOM     26  C   HYP A   6     142.564 166.993 188.460  0.00  0.00    +0.234 C 
ATOM     27  O   HYP A   6     141.495 166.656 188.961  0.00  0.00    -0.274 OA
ATOM     28  N   ALA A   7     143.731 167.102 189.180  0.00  0.00    -0.303 N 
ATOM     29  N   UNK A   5     143.798 171.910 186.733  0.00  0.00    -0.302 N 
ATOM     30  C   THR A   4     144.127 173.067 186.066  0.00  0.00    +0.237 C 
ATOM     31  O   THR A   4     145.006 173.078 185.205  0.00  0.00    -0.274 OA
ATOM     32  CA  THR A   4     143.472 174.348 186.619  0.00  0.00    +0.125 C 
ATOM     33  N   THR A   4     142.142 174.111 187.185  0.00  0.00    -0.300 N 
ATOM     34  C   ALA A   3     141.654 174.914 188.204  0.00  0.00    +0.234 C 
ATOM     35  O   ALA A   3     142.341 175.784 188.735  0.00  0.00    -0.274 OA
ATOM     36  CA  ALA A   3     140.196 174.622 188.610  0.00  0.00    +0.097 C 
ATOM     37  N   ALA A   3     140.146 173.358 189.322  0.00  0.00    -0.303 N 
ATOM     38  C   UNK A   2     139.905 172.162 188.692  0.00  0.00    +0.234 C 
ATOM     39  O   UNK A   2     139.836 172.067 187.462  0.00  0.00    -0.274 OA
ATOM     40  C   UNK A   2     139.783 170.937 189.632  0.00  0.00    +0.102 C 
ATOM     41  N   UNK A   2     141.123 170.562 190.090  0.00  0.00    -0.302 N 
ATOM     42  C   UNK A   1     141.881 171.253 191.012  0.00  0.00    +0.234 C 
ATOM     43  O   UNK A   1     141.495 172.306 191.519  0.00  0.00    -0.274 OA
ATOM     44  HA  ALA A   7     142.985 166.222 190.920  0.00  0.00    +0.059 HD
ATOM     45  H   UNK A   1     143.575 169.280 189.634  0.00  0.00    +0.150 HD
ATOM     46  H   UNK A   1     143.558 170.715 192.252  0.00  0.00    +0.060 HD
ATOM     47  H   UNK A   1     143.969 171.780 189.388  0.00  0.00    +0.034 HD
ATOM     48  H   UNK A   1     144.052 172.741 190.837  0.00  0.00    +0.034 HD
ATOM     49  H   UNK A   5     148.544 170.111 189.911  0.00  0.00    +0.166 HD
ATOM     50  H   UNK A   5     149.943 171.434 191.977  0.00  0.00    +0.064 HD
ATOM     51  H   UNK A   5     149.569 173.050 193.832  0.00  0.00    +0.062 HD
ATOM     52  H   UNK A   5     147.324 174.000 194.239  0.00  0.00    +0.062 HD
ATOM     53  H   UNK A   5     145.419 173.388 192.808  0.00  0.00    +0.062 HD
ATOM     54  H   UNK A   5     146.565 170.199 186.297  0.00  0.00    +0.040 HD
ATOM     55  H   UNK A   5     146.266 171.603 187.288  0.00  0.00    +0.040 HD
ATOM     56  H   UNK A   5     144.538 170.558 185.372  0.00  0.00    +0.060 HD
ATOM     57  HD1 HYP A   6     144.628 168.483 184.682  0.00  0.00    +0.049 HD
ATOM     58  HD2 HYP A   6     145.545 167.576 185.895  0.00  0.00    +0.049 HD
ATOM     59  HG  HYP A   6     143.161 166.657 184.210  0.00  0.00    +0.061 HD
ATOM     60  HB1 HYP A   6     142.338 165.278 185.994  0.00  0.00    +0.031 HD
ATOM     61  HB2 HYP A   6     143.852 165.362 186.883  0.00  0.00    +0.031 HD
ATOM     62  HA  HYP A   6     141.717 167.546 186.554  0.00  0.00    +0.060 HD
ATOM     63  H   ALA A   7     144.562 167.428 188.699  0.00  0.00    +0.149 HD
ATOM     64  H   UNK A   5     143.052 171.929 187.426  0.00  0.00    +0.150 HD
ATOM     65  HA  THR A   4     144.130 174.652 187.448  0.00  0.00    +0.062 HD
ATOM     66  H   THR A   4     141.519 173.396 186.800  0.00  0.00    +0.150 HD
ATOM     67  HA  ALA A   3     139.605 174.539 187.686  0.00  0.00    +0.059 HD
ATOM     68  H   ALA A   3     140.445 173.333 190.304  0.00  0.00    +0.149 HD
ATOM     69  H   UNK A   2     139.472 170.096 189.005  0.00  0.00    +0.060 HD
ATOM     70  H   UNK A   2     141.516 169.706 189.710  0.00  0.00    +0.150 HD
ENDROOT
BRANCH   1  71
ATOM     71  CB  ALA A   7     145.134 166.381 191.055  0.00  0.00    -0.038 C 
ATOM     72  HB1 ALA A   7     145.072 165.870 192.021  0.00  0.00    +0.025 HD
ATOM     73  HB2 ALA A   7     145.870 167.188 191.152  0.00  0.00    +0.025 HD
ATOM     74  HB3 ALA A   7     145.513 165.658 190.323  0.00  0.00    +0.025 HD
ENDBRANCH   1  71
BRANCH  36  75
ATOM     75  CB  ALA A   3     139.608 175.742 189.459  0.00  0.00    -0.038 C 
ATOM     76  HB1 ALA A   3     139.291 175.360 190.436  0.00  0.00    +0.025 HD
ATOM     77  HB2 ALA A   3     140.335 176.540 189.642  0.00  0.00    +0.025 HD
ATOM     78  HB3 ALA A   3     138.736 176.182 188.963  0.00  0.00    +0.025 HD
ENDBRANCH  36  75
BRANCH  40  79
ATOM     79  C   UNK A   2     138.770 171.088 190.780  0.00  0.00    +0.005 C 
ATOM     80  H   UNK A   2     139.009 170.337 191.544  0.00  0.00    +0.032 HD
ATOM     81  H   UNK A   2     138.902 172.068 191.261  0.00  0.00    +0.032 HD
BRANCH  79  82
ATOM     82  C   UNK A   2     137.282 170.949 190.377  0.00  0.00    +0.088 C 
BRANCH  82  83
ATOM     83  C   UNK A   2     136.700 172.355 190.161  0.00  0.00    -0.034 C 
ATOM     84  H   UNK A   2     137.188 173.072 190.832  0.00  0.00    +0.026 HD
ATOM     85  H   UNK A   2     136.888 172.711 189.138  0.00  0.00    +0.026 HD
ATOM     86  H   UNK A   2     135.620 172.391 190.344  0.00  0.00    +0.026 HD
ENDBRANCH  82  83
BRANCH  82  87
ATOM     87  C   UNK A   2     136.434 170.186 191.417  0.00  0.00    +0.073 C 
ATOM     88  H   UNK A   2     136.351 170.773 192.340  0.00  0.00    +0.059 HD
ATOM     89  H   UNK A   2     135.412 170.029 191.058  0.00  0.00    +0.059 HD
BRANCH  87  90
ATOM     90  O   UNK A   2     137.012 168.931 191.734  0.00  0.00    -0.392 OA
ATOM     91  H   UNK A   2     137.912 169.102 192.059  0.00  0.00    +0.210 HD
ENDBRANCH  87  90
ENDBRANCH  82  87
BRANCH  82  92
ATOM     92  O   UNK A   2     137.211 170.257 189.121  0.00  0.00    -0.387 OA
ATOM     93  H   UNK A   2     137.617 169.380 189.238  0.00  0.00    +0.210 HD
ENDBRANCH  82  92
ENDBRANCH  79  82
ENDBRANCH  40  79
BRANCH  23  94
ATOM     94  OD  HYP A   6     144.838 165.507 184.569  0.00  0.00    -0.390 OA
ATOM     95  HD  HYP A   6     144.622 164.641 184.965  0.00  0.00    +0.210 HD
ENDBRANCH  23  94
BRANCH  32  96
ATOM     96  CB  THR A   4     143.485 175.491 185.573  0.00  0.00    +0.079 C 
ATOM     97  HB  THR A   4     143.133 176.411 186.052  0.00  0.00    +0.061 HD
BRANCH  96  98
ATOM     98  CG2 THR A   4     142.596 175.228 184.356  0.00  0.00    -0.037 C 
ATOM     99 HG21 THR A   4     142.970 174.392 183.754  0.00  0.00    +0.026 HD
ATOM    100 HG22 THR A   4     141.562 175.015 184.645  0.00  0.00    +0.026 HD
ATOM    101 HG23 THR A   4     142.601 176.102 183.694  0.00  0.00    +0.026 HD
ENDBRANCH  96  98
BRANCH  96 102
ATOM    102  OG1 THR A   4     144.810 175.773 185.111  0.00  0.00    -0.390 OA
ATOM    103  HG1 THR A   4     144.832 175.593 184.148  0.00  0.00    +0.210 HD
ENDBRANCH  96 102
ENDBRANCH  32  96
TORSDOF 12
ENDMDL
MODEL 3
REMARK VINA RESULT:      -6.0      2.111      7.738
REMARK  Name = Phalloidin_conf3
REMARK  12 active torsions:
REMARK  status: ('A' for Active; 'I' for Inactive)
REMARK    1  A    between atoms: CB_1  and  CA_2
REMARK    2  A    between atoms: CG_24  and  OD_30
REMARK    3  A    between atoms: CA_34  and  CB_53
REMARK    4  A    between atoms: CA_38  and  CB_52
REMARK    5  A    between atoms: C_42  and  C_46
REMARK    6  A    between atoms: C_46  and  C_47
REMARK    7  A    between atoms: C_47  and  C_48
REMARK    8  A    between atoms: C_47  and  C_49
REMARK    9  A    between atoms: C_47  and  O_51
REMARK   10  A    between atoms: C_49  and  O_50
REMARK   11  A    between atoms: CB_53  and  CG2_54
REMARK   12  A    between atoms: CB_53  and  OG1_55
REMARK                            x       y       z     vdW  Elec       q    Type
REMARK                         _______ _______ _______ _____ _____    ______ ____
ROOT
ATOM      1  CA  ALA A   7     143.724 174.353 187.112  0.00  0.00    +0.097 C 
ATOM      2  C   ALA A   7     143.421 173.678 188.473  0.00  0.00    +0.234 C 
ATOM      3  O   ALA A   7     143.030 174.321 189.448  0.00  0.00    -0.274 OA
ATOM      4  N   UNK A   1     143.523 172.307 188.477  0.00  0.00    -0.302 N 
ATOM      5  C   UNK A   1     143.174 171.466 189.625  0.00  0.00    +0.103 C 
ATOM      6  C   UNK A   1     142.450 170.182 189.184  0.00  0.00    +0.002 C 
ATOM      7  C   UNK A   1     141.135 170.405 188.490  0.00  0.00    -0.006 A 
ATOM      8  C   UNK A   5     140.893 170.659 187.153  0.00  0.00    +0.078 A 
ATOM      9  N   UNK A   5     139.546 170.812 186.972  0.00  0.00    -0.349 N 
ATOM     10  C   UNK A   5     138.884 170.666 188.167  0.00  0.00    +0.048 A 
ATOM     11  C   UNK A   5     137.518 170.749 188.458  0.00  0.00    -0.038 A 
ATOM     12  C   UNK A   5     137.126 170.556 189.786  0.00  0.00    -0.060 A 
ATOM     13  C   UNK A   5     138.068 170.294 190.779  0.00  0.00    -0.061 A 
ATOM     14  C   UNK A   5     139.430 170.215 190.472  0.00  0.00    -0.052 A 
ATOM     15  C   UNK A   5     139.851 170.407 189.138  0.00  0.00    +0.004 A 
ATOM     16  S   UNK A   5     141.912 170.907 185.782  0.00  0.00    -0.105 S 
ATOM     17  C   UNK A   5     142.515 169.233 185.368  0.00  0.00    +0.027 C 
ATOM     18  C   UNK A   5     144.025 168.959 185.558  0.00  0.00    +0.109 C 
ATOM     19  C   UNK A   5     144.884 170.210 185.803  0.00  0.00    +0.237 C 
ATOM     20  O   UNK A   5     145.269 170.485 186.950  0.00  0.00    -0.274 OA
ATOM     21  N   HYP A   6     145.165 171.067 184.763  0.00  0.00    -0.286 N 
ATOM     22  CD  HYP A   6     144.901 170.859 183.350  0.00  0.00    +0.042 C 
ATOM     23  CG  HYP A   6     145.929 171.725 182.626  0.00  0.00    +0.073 C 
ATOM     24  CB  HYP A   6     146.185 172.863 183.610  0.00  0.00    +0.002 C 
ATOM     25  CA  HYP A   6     146.096 172.186 184.972  0.00  0.00    +0.105 C 
ATOM     26  C   HYP A   6     145.655 173.198 186.047  0.00  0.00    +0.234 C 
ATOM     27  O   HYP A   6     146.483 173.808 186.717  0.00  0.00    -0.274 OA
ATOM     28  N   ALA A   7     144.302 173.430 186.130  0.00  0.00    -0.303 N 
ATOM     29  N   UNK A   5     144.274 168.064 186.693  0.00  0.00    -0.302 N 
ATOM     30  C   THR A   4     144.018 166.714 186.634  0.00  0.00    +0.237 C 
ATOM     31  O   THR A   4     143.565 166.196 185.614  0.00  0.00    -0.274 OA
ATOM     32  CA  THR A   4     144.140 165.966 187.977  0.00  0.00    +0.125 C 
ATOM     33  N   THR A   4     145.158 166.542 188.860  0.00  0.00    -0.300 N 
ATOM     34  C   ALA A   3     145.039 166.438 190.238  0.00  0.00    +0.234 C 
ATOM     35  O   ALA A   3     144.043 165.953 190.772  0.00  0.00    -0.274 OA
ATOM     36  CA  ALA A   3     146.245 166.980 191.029  0.00  0.00    +0.097 C 
ATOM     37  N   ALA A   3     146.254 168.429 190.947  0.00  0.00    -0.303 N 
ATOM     38  C   UNK A   2     146.950 169.111 189.980  0.00  0.00    +0.234 C 
ATOM     39  O   UNK A   2     147.516 168.535 189.044  0.00  0.00    -0.274 OA
ATOM     40  C   UNK A   2     146.927 170.654 190.117  0.00  0.00    +0.102 C 
ATOM     41  N   UNK A   2     145.615 171.144 189.686  0.00  0.00    -0.302 N 
ATOM     42  C   UNK A   1     144.437 171.015 190.392  0.00  0.00    +0.234 C 
ATOM     43  O   UNK A   1     144.380 170.422 191.468  0.00  0.00    -0.274 OA
ATOM     44  HA  ALA A   7     144.457 175.144 187.311  0.00  0.00    +0.059 HD
ATOM     45  H   UNK A   1     143.841 171.847 187.632  0.00  0.00    +0.150 HD
ATOM     46  H   UNK A   1     142.546 172.044 190.315  0.00  0.00    +0.060 HD
ATOM     47  H   UNK A   1     143.099 169.588 188.535  0.00  0.00    +0.034 HD
ATOM     48  H   UNK A   1     142.267 169.552 190.063  0.00  0.00    +0.034 HD
ATOM     49  H   UNK A   5     139.107 171.029 186.090  0.00  0.00    +0.166 HD
ATOM     50  H   UNK A   5     136.779 170.948 187.688  0.00  0.00    +0.064 HD
ATOM     51  H   UNK A   5     136.071 170.601 190.048  0.00  0.00    +0.062 HD
ATOM     52  H   UNK A   5     137.743 170.141 191.809  0.00  0.00    +0.062 HD
ATOM     53  H   UNK A   5     140.137 169.991 191.263  0.00  0.00    +0.062 HD
ATOM     54  H   UNK A   5     142.292 169.123 184.300  0.00  0.00    +0.040 HD
ATOM     55  H   UNK A   5     141.898 168.487 185.877  0.00  0.00    +0.040 HD
ATOM     56  H   UNK A   5     144.408 168.433 184.675  0.00  0.00    +0.060 HD
ATOM     57  HD1 HYP A   6     145.002 169.806 183.077  0.00  0.00    +0.049 HD
ATOM     58  HD2 HYP A   6     143.876 171.171 183.126  0.00  0.00    +0.049 HD
ATOM     59  HG  HYP A   6     146.860 171.169 182.446  0.00  0.00    +0.061 HD
ATOM     60  HB1 HYP A   6     147.162 173.332 183.442  0.00  0.00    +0.031 HD
ATOM     61  HB2 HYP A   6     145.436 173.656 183.488  0.00  0.00    +0.031 HD
ATOM     62  HA  HYP A   6     147.060 171.755 185.272  0.00  0.00    +0.060 HD
ATOM     63  H   ALA A   7     143.682 172.852 185.573  0.00  0.00    +0.149 HD
ATOM     64  H   UNK A   5     144.668 168.459 187.545  0.00  0.00    +0.150 HD
ATOM     65  HA  THR A   4     143.163 166.120 188.461  0.00  0.00    +0.062 HD
ATOM     66  H   THR A   4     146.007 166.970 188.485  0.00  0.00    +0.150 HD
ATOM     67  HA  ALA A   3     147.155 166.586 190.555  0.00  0.00    +0.059 HD
ATOM     68  H   ALA A   3     145.603 168.961 191.536  0.00  0.00    +0.149 HD
ATOM     69  H   UNK A   2     147.617 171.043 189.362  0.00  0.00    +0.060 HD
ATOM     70  H   UNK A   2     145.578 171.640 188.801  0.00  0.00    +0.150 HD
ENDROOT
BRANCH   1  71
ATOM     71  CB  ALA A   7     142.442 174.967 186.555  0.00  0.00    -0.038 C 
ATOM     72  HB1 ALA A   7     141.557 174.449 186.940  0.00  0.00    +0.025 HD
ATOM     73  HB2 ALA A   7     142.417 174.900 185.461  0.00  0.00    +0.025 HD
ATOM     74  HB3 ALA A   7     142.353 176.024 186.834  0.00  0.00    +0.025 HD
ENDBRANCH   1  71
BRANCH  36  75
ATOM     75  CB  ALA A   3     146.221 166.524 192.482  0.00  0.00    -0.038 C 
ATOM     76  HB1 ALA A   3     146.244 167.386 193.157  0.00  0.00    +0.025 HD
ATOM     77  HB2 ALA A   3     145.317 165.951 192.716  0.00  0.00    +0.025 HD
ATOM     78  HB3 ALA A   3     147.090 165.893 192.700  0.00  0.00    +0.025 HD
ENDBRANCH  36  75
BRANCH  40  79
ATOM     79  C   UNK A   2     147.355 171.197 191.493  0.00  0.00    +0.005 C 
ATOM     80  H   UNK A   2     146.648 170.818 192.242  0.00  0.00    +0.032 HD
ATOM     81  H   UNK A   2     148.338 170.784 191.761  0.00  0.00    +0.032 HD
BRANCH  79  82
ATOM     82  C   UNK A   2     147.435 172.739 191.602  0.00  0.00    +0.088 C 
BRANCH  82  83
ATOM     83  C   UNK A   2     148.776 173.113 192.255  0.00  0.00    -0.034 C 
ATOM     84  H   UNK A   2     148.909 174.201 192.246  0.00  0.00    +0.026 HD
ATOM     85  H   UNK A   2     148.804 172.806 193.310  0.00  0.00    +0.026 HD
ATOM     86  H   UNK A   2     149.630 172.656 191.742  0.00  0.00    +0.026 HD
ENDBRANCH  82  83
BRANCH  82  87
ATOM     87  C   UNK A   2     146.272 173.357 192.408  0.00  0.00    +0.073 C 
ATOM     88  H   UNK A   2     145.766 172.582 192.997  0.00  0.00    +0.059 HD
ATOM     89  H   UNK A   2     146.636 174.101 193.124  0.00  0.00    +0.059 HD
BRANCH  87  90
ATOM     90  O   UNK A   2     145.318 173.965 191.552  0.00  0.00    -0.392 OA
ATOM     91  H   UNK A   2     145.803 174.323 190.790  0.00  0.00    +0.210 HD
ENDBRANCH  87  90
ENDBRANCH  82  87
BRANCH  82  92
ATOM     92  O   UNK A   2     147.431 173.293 190.279  0.00  0.00    -0.387 OA
ATOM     93  H   UNK A   2     148.114 172.834 189.758  0.00  0.00    +0.210 HD
ENDBRANCH  82  92
ENDBRANCH  79  82
ENDBRANCH  40  79
BRANCH  23  94
ATOM     94  OD  HYP A   6     145.435 172.240 181.404  0.00  0.00    -0.390 OA
ATOM     95  HD  HYP A   6     146.130 172.159 180.724  0.00  0.00    +0.210 HD
ENDBRANCH  23  94
BRANCH  32  96
ATOM     96  CB  THR A   4     144.319 164.443 187.766  0.00  0.00    +0.079 C 
ATOM     97  HB  THR A   4     144.266 163.943 188.740  0.00  0.00    +0.061 HD
BRANCH  96  98
ATOM     98  CG2 THR A   4     145.649 164.058 187.115  0.00  0.00    -0.037 C 
ATOM     99 HG21 THR A   4     145.527 163.242 186.394  0.00  0.00    +0.026 HD
ATOM    100 HG22 THR A   4     146.113 164.908 186.604  0.00  0.00    +0.026 HD
ATOM    101 HG23 THR A   4     146.344 163.686 187.877  0.00  0.00    +0.026 HD
ENDBRANCH  96  98
BRANCH  96 102
ATOM    102  OG1 THR A   4     143.257 163.887 186.983  0.00  0.00    -0.390 OA
ATOM    103  HG1 THR A   4     142.988 163.046 187.406  0.00  0.00    +0.210 HD
ENDBRANCH  96 102
ENDBRANCH  32  96
TORSDOF 12
ENDMDL
MODEL 4
REMARK VINA RESULT:      -5.9      8.245     12.671
REMARK  Name = Phalloidin_conf3
REMARK  12 active torsions:
REMARK  status: ('A' for Active; 'I' for Inactive)
REMARK    1  A    between atoms: CB_1  and  CA_2
REMARK    2  A    between atoms: CG_24  and  OD_30
REMARK    3  A    between atoms: CA_34  and  CB_53
REMARK    4  A    between atoms: CA_38  and  CB_52
REMARK    5  A    between atoms: C_42  and  C_46
REMARK    6  A    between atoms: C_46  and  C_47
REMARK    7  A    between atoms: C_47  and  C_48
REMARK    8  A    between atoms: C_47  and  C_49
REMARK    9  A    between atoms: C_47  and  O_51
REMARK   10  A    between atoms: C_49  and  O_50
REMARK   11  A    between atoms: CB_53  and  CG2_54
REMARK   12  A    between atoms: CB_53  and  OG1_55
REMARK                            x       y       z     vdW  Elec       q    Type
REMARK                         _______ _______ _______ _____ _____    ______ ____
ROOT
ATOM      1  CA  ALA A   7     154.880 163.088 188.232  0.00  0.00    +0.097 C 
ATOM      2  C   ALA A   7     154.253 162.402 189.471  0.00  0.00    +0.234 C 
ATOM      3  O   ALA A   7     154.930 162.066 190.443  0.00  0.00    -0.274 OA
ATOM      4  N   UNK A   1     152.883 162.293 189.443  0.00  0.00    -0.302 N 
ATOM      5  C   UNK A   1     152.082 161.778 190.557  0.00  0.00    +0.103 C 
ATOM      6  C   UNK A   1     150.784 162.585 190.739  0.00  0.00    +0.002 C 
ATOM      7  C   UNK A   1     150.985 164.035 191.081  0.00  0.00    -0.006 A 
ATOM      8  C   UNK A   5     151.193 165.105 190.232  0.00  0.00    +0.078 A 
ATOM      9  N   UNK A   5     151.342 166.239 190.982  0.00  0.00    -0.349 N 
ATOM     10  C   UNK A   5     151.238 165.944 192.320  0.00  0.00    +0.048 A 
ATOM     11  C   UNK A   5     151.332 166.778 193.438  0.00  0.00    -0.038 A 
ATOM     12  C   UNK A   5     151.186 166.191 194.699  0.00  0.00    -0.060 A 
ATOM     13  C   UNK A   5     150.957 164.823 194.828  0.00  0.00    -0.061 A 
ATOM     14  C   UNK A   5     150.866 164.001 193.700  0.00  0.00    -0.052 A 
ATOM     15  C   UNK A   5     151.011 164.570 192.416  0.00  0.00    +0.004 A 
ATOM     16  S   UNK A   5     151.393 165.251 188.524  0.00  0.00    -0.105 S 
ATOM     17  C   UNK A   5     149.704 165.036 187.859  0.00  0.00    +0.027 C 
ATOM     18  C   UNK A   5     149.435 163.771 187.011  0.00  0.00    +0.109 C 
ATOM     19  C   UNK A   5     150.694 162.992 186.594  0.00  0.00    +0.237 C 
ATOM     20  O   UNK A   5     151.007 161.952 187.192  0.00  0.00    -0.274 OA
ATOM     21  N   HYP A   6     151.513 163.487 185.605  0.00  0.00    -0.286 N 
ATOM     22  CD  HYP A   6     151.257 164.614 184.726  0.00  0.00    +0.042 C 
ATOM     23  CG  HYP A   6     152.096 164.339 183.480  0.00  0.00    +0.073 C 
ATOM     24  CB  HYP A   6     153.267 163.522 184.019  0.00  0.00    +0.002 C 
ATOM     25  CA  HYP A   6     152.638 162.674 185.117  0.00  0.00    +0.105 C 
ATOM     26  C   HYP A   6     153.686 162.317 186.187  0.00  0.00    +0.234 C 
ATOM     27  O   HYP A   6     154.318 161.267 186.127  0.00  0.00    -0.274 OA
ATOM     28  N   ALA A   7     153.923 163.283 187.138  0.00  0.00    -0.303 N 
ATOM     29  N   UNK A   5     148.580 162.815 187.721  0.00  0.00    -0.302 N 
ATOM     30  C   THR A   4     147.229 163.017 187.882  0.00  0.00    +0.237 C 
ATOM     31  O   THR A   4     146.677 164.019 187.430  0.00  0.00    -0.274 OA
ATOM     32  CA  THR A   4     146.528 162.022 188.829  0.00  0.00    +0.125 C 
ATOM     33  N   THR A   4     147.132 160.687 188.804  0.00  0.00    -0.300 N 
ATOM     34  C   ALA A   3     147.076 159.865 189.918  0.00  0.00    +0.234 C 
ATOM     35  O   ALA A   3     146.611 160.248 190.989  0.00  0.00    -0.274 OA
ATOM     36  CA  ALA A   3     147.643 158.449 189.700  0.00  0.00    +0.097 C 
ATOM     37  N   ALA A   3     149.089 158.528 189.594  0.00  0.00    -0.303 N 
ATOM     38  C   UNK A   2     149.737 158.659 188.390  0.00  0.00    +0.234 C 
ATOM     39  O   UNK A   2     149.128 158.840 187.329  0.00  0.00    -0.274 OA
ATOM     40  C   UNK A   2     151.283 158.619 188.468  0.00  0.00    +0.102 C 
ATOM     41  N   UNK A   2     151.759 159.899 188.998  0.00  0.00    -0.302 N 
ATOM     42  C   UNK A   1     151.657 160.314 190.309  0.00  0.00    +0.234 C 
ATOM     43  O   UNK A   1     151.101 159.633 191.170  0.00  0.00    -0.274 OA
ATOM     44  HA  ALA A   7     155.677 162.424 187.876  0.00  0.00    +0.059 HD
ATOM     45  H   UNK A   1     152.393 162.603 188.612  0.00  0.00    +0.150 HD
ATOM     46  H   UNK A   1     152.684 161.807 191.474  0.00  0.00    +0.060 HD
ATOM     47  H   UNK A   1     150.168 162.514 189.839  0.00  0.00    +0.034 HD
ATOM     48  H   UNK A   1     150.186 162.128 191.536  0.00  0.00    +0.034 HD
ATOM     49  H   UNK A   5     151.528 167.156 190.605  0.00  0.00    +0.166 HD
ATOM     50  H   UNK A   5     151.506 167.846 193.344  0.00  0.00    +0.064 HD
ATOM     51  H   UNK A   5     151.241 166.811 195.591  0.00  0.00    +0.062 HD
ATOM     52  H   UNK A   5     150.839 164.383 195.819  0.00  0.00    +0.062 HD
ATOM     53  H   UNK A   5     150.668 162.944 193.832  0.00  0.00    +0.062 HD
ATOM     54  H   UNK A   5     149.558 165.906 187.208  0.00  0.00    +0.040 HD
ATOM     55  H   UNK A   5     148.978 165.146 188.668  0.00  0.00    +0.040 HD
ATOM     56  H   UNK A   5     148.879 164.055 186.110  0.00  0.00    +0.060 HD
ATOM     57  HD1 HYP A   6     150.195 164.695 184.482  0.00  0.00    +0.049 HD
ATOM     58  HD2 HYP A   6     151.563 165.538 185.227  0.00  0.00    +0.049 HD
ATOM     59  HG  HYP A   6     151.534 163.747 182.745  0.00  0.00    +0.061 HD
ATOM     60  HB1 HYP A   6     153.729 162.910 183.234  0.00  0.00    +0.031 HD
ATOM     61  HB2 HYP A   6     154.057 164.182 184.400  0.00  0.00    +0.031 HD
ATOM     62  HA  HYP A   6     152.216 161.743 184.716  0.00  0.00    +0.060 HD
ATOM     63  H   ALA A   7     153.328 164.104 187.145  0.00  0.00    +0.149 HD
ATOM     64  H   UNK A   5     149.004 161.965 188.090  0.00  0.00    +0.150 HD
ATOM     65  HA  THR A   4     146.699 162.438 189.834  0.00  0.00    +0.062 HD
ATOM     66  H   THR A   4     147.547 160.307 187.949  0.00  0.00    +0.150 HD
ATOM     67  HA  ALA A   3     147.232 158.069 188.753  0.00  0.00    +0.059 HD
ATOM     68  H   ALA A   3     149.642 158.638 190.451  0.00  0.00    +0.149 HD
ATOM     69  H   UNK A   2     151.645 158.608 187.435  0.00  0.00    +0.060 HD
ATOM     70  H   UNK A   2     152.225 160.523 188.345  0.00  0.00    +0.150 HD
ENDROOT
BRANCH   1  71
ATOM     71  CB  ALA A   7     155.476 164.432 188.645  0.00  0.00    -0.038 C 
ATOM     72  HB1 ALA A   7     154.741 165.237 188.544  0.00  0.00    +0.025 HD
ATOM     73  HB2 ALA A   7     156.339 164.689 188.018  0.00  0.00    +0.025 HD
ATOM     74  HB3 ALA A   7     155.807 164.416 189.690  0.00  0.00    +0.025 HD
ENDBRANCH   1  71
BRANCH  36  75
ATOM     75  CB  ALA A   3     147.237 157.497 190.818  0.00  0.00    -0.038 C 
ATOM     76  HB1 ALA A   3     147.965 156.684 190.915  0.00  0.00    +0.025 HD
ATOM     77  HB2 ALA A   3     147.183 158.004 191.787  0.00  0.00    +0.025 HD
ATOM     78  HB3 ALA A   3     146.256 157.056 190.609  0.00  0.00    +0.025 HD
ENDBRANCH  36  75
BRANCH  40  79
ATOM     79  C   UNK A   2     151.872 157.401 189.202  0.00  0.00    +0.005 C 
ATOM     80  H   UNK A   2     151.744 157.561 190.280  0.00  0.00    +0.032 HD
ATOM     81  H   UNK A   2     151.289 156.503 188.952  0.00  0.00    +0.032 HD
BRANCH  79  82
ATOM     82  C   UNK A   2     153.362 157.103 188.904  0.00  0.00    +0.088 C 
BRANCH  82  83
ATOM     83  C   UNK A   2     153.504 155.610 188.568  0.00  0.00    -0.034 C 
ATOM     84  H   UNK A   2     153.018 155.001 189.340  0.00  0.00    +0.026 HD
ATOM     85  H   UNK A   2     153.002 155.366 187.621  0.00  0.00    +0.026 HD
ATOM     86  H   UNK A   2     154.552 155.298 188.491  0.00  0.00    +0.026 HD
ENDBRANCH  82  83
BRANCH  82  87
ATOM     87  C   UNK A   2     154.304 157.468 190.071  0.00  0.00    +0.073 C 
ATOM     88  H   UNK A   2     154.884 156.589 190.379  0.00  0.00    +0.059 HD
ATOM     89  H   UNK A   2     155.032 158.228 189.770  0.00  0.00    +0.059 HD
BRANCH  87  90
ATOM     90  O   UNK A   2     153.577 157.941 191.193  0.00  0.00    -0.392 OA
ATOM     91  H   UNK A   2     154.217 158.354 191.797  0.00  0.00    +0.210 HD
ENDBRANCH  87  90
ENDBRANCH  82  87
BRANCH  82  92
ATOM     92  O   UNK A   2     153.754 157.845 187.740  0.00  0.00    -0.387 OA
ATOM     93  H   UNK A   2     154.181 158.668 188.037  0.00  0.00    +0.210 HD
ENDBRANCH  82  92
ENDBRANCH  79  82
ENDBRANCH  40  79
BRANCH  23  94
ATOM     94  OD  HYP A   6     152.570 165.529 182.876  0.00  0.00    -0.390 OA
ATOM     95  HD  HYP A   6     152.058 165.694 182.061  0.00  0.00    +0.210 HD
ENDBRANCH  23  94
BRANCH  32  96
ATOM     96  CB  THR A   4     144.998 161.994 188.592  0.00  0.00    +0.079 C 
ATOM     97  HB  THR A   4     144.532 161.378 189.371  0.00  0.00    +0.061 HD
BRANCH  96  98
ATOM     98  CG2 THR A   4     144.590 161.418 187.236  0.00  0.00    -0.037 C 
ATOM     99 HG21 THR A   4     145.463 161.158 186.626  0.00  0.00    +0.026 HD
ATOM    100 HG22 THR A   4     143.963 160.527 187.342  0.00  0.00    +0.026 HD
ATOM    101 HG23 THR A   4     144.034 162.170 186.662  0.00  0.00    +0.026 HD
ENDBRANCH  96  98
BRANCH  96 102
ATOM    102  OG1 THR A   4     144.416 163.295 188.723  0.00  0.00    -0.390 OA
ATOM    103  HG1 THR A   4     144.437 163.534 189.673  0.00  0.00    +0.210 HD
ENDBRANCH  96 102
ENDBRANCH  32  96
TORSDOF 12
ENDMDL
MODEL 5
REMARK VINA RESULT:      -5.9      5.265      9.841
REMARK  Name = Phalloidin_conf3
REMARK  12 active torsions:
REMARK  status: ('A' for Active; 'I' for Inactive)
REMARK    1  A    between atoms: CB_1  and  CA_2
REMARK    2  A    between atoms: CG_24  and  OD_30
REMARK    3  A    between atoms: CA_34  and  CB_53
REMARK    4  A    between atoms: CA_38  and  CB_52
REMARK    5  A    between atoms: C_42  and  C_46
REMARK    6  A    between atoms: C_46  and  C_47
REMARK    7  A    between atoms: C_47  and  C_48
REMARK    8  A    between atoms: C_47  and  C_49
REMARK    9  A    between atoms: C_47  and  O_51
REMARK   10  A    between atoms: C_49  and  O_50
REMARK   11  A    between atoms: CB_53  and  CG2_54
REMARK   12  A    between atoms: CB_53  and  OG1_55
REMARK                            x       y       z     vdW  Elec       q    Type
REMARK                         _______ _______ _______ _____ _____    ______ ____
ROOT
ATOM      1  CA  ALA A   7     146.510 166.866 192.476  0.00  0.00    +0.097 C 
ATOM      2  C   ALA A   7     147.582 165.749 192.417  0.00  0.00    +0.234 C 
ATOM      3  O   ALA A   7     147.839 165.038 193.389  0.00  0.00    -0.274 OA
ATOM      4  N   UNK A   1     148.143 165.549 191.177  0.00  0.00    -0.302 N 
ATOM      5  C   UNK A   1     149.093 164.474 190.876  0.00  0.00    +0.103 C 
ATOM      6  C   UNK A   1     148.822 163.854 189.494  0.00  0.00    +0.002 C 
ATOM      7  C   UNK A   1     147.478 163.196 189.349  0.00  0.00    -0.006 A 
ATOM      8  C   UNK A   5     146.266 163.767 189.012  0.00  0.00    +0.078 A 
ATOM      9  N   UNK A   5     145.305 162.793 189.015  0.00  0.00    -0.349 N 
ATOM     10  C   UNK A   5     145.856 161.580 189.351  0.00  0.00    +0.048 A 
ATOM     11  C   UNK A   5     145.258 160.324 189.486  0.00  0.00    -0.038 A 
ATOM     12  C   UNK A   5     146.079 159.251 189.846  0.00  0.00    -0.060 A 
ATOM     13  C   UNK A   5     147.442 159.435 190.064  0.00  0.00    -0.061 A 
ATOM     14  C   UNK A   5     148.026 160.698 189.925  0.00  0.00    -0.052 A 
ATOM     15  C   UNK A   5     147.218 161.798 189.563  0.00  0.00    +0.004 A 
ATOM     16  S   UNK A   5     145.753 165.388 188.713  0.00  0.00    -0.105 S 
ATOM     17  C   UNK A   5     146.404 165.759 187.046  0.00  0.00    +0.027 C 
ATOM     18  C   UNK A   5     147.509 166.837 186.944  0.00  0.00    +0.109 C 
ATOM     19  C   UNK A   5     147.724 167.666 188.222  0.00  0.00    +0.237 C 
ATOM     20  O   UNK A   5     148.686 167.423 188.965  0.00  0.00    -0.274 OA
ATOM     21  N   HYP A   6     146.809 168.631 188.579  0.00  0.00    -0.286 N 
ATOM     22  CD  HYP A   6     145.696 169.129 187.790  0.00  0.00    +0.042 C 
ATOM     23  CG  HYP A   6     145.438 170.537 188.321  0.00  0.00    +0.073 C 
ATOM     24  CB  HYP A   6     145.892 170.452 189.776  0.00  0.00    +0.002 C 
ATOM     25  CA  HYP A   6     147.088 169.510 189.724  0.00  0.00    +0.105 C 
ATOM     26  C   HYP A   6     147.255 168.781 191.070  0.00  0.00    +0.234 C 
ATOM     27  O   HYP A   6     147.999 169.224 191.940  0.00  0.00    -0.274 OA
ATOM     28  N   ALA A   7     146.457 167.676 191.255  0.00  0.00    -0.303 N 
ATOM     29  N   UNK A   5     148.811 166.249 186.615  0.00  0.00    -0.302 N 
ATOM     30  C   THR A   4     149.113 165.793 185.353  0.00  0.00    +0.237 C 
ATOM     31  O   THR A   4     148.293 165.863 184.438  0.00  0.00    -0.274 OA
ATOM     32  CA  THR A   4     150.441 165.019 185.238  0.00  0.00    +0.125 C 
ATOM     33  N   THR A   4     151.463 165.496 186.174  0.00  0.00    -0.300 N 
ATOM     34  C   ALA A   3     152.444 164.638 186.648  0.00  0.00    +0.234 C 
ATOM     35  O   ALA A   3     152.443 163.438 186.385  0.00  0.00    -0.274 OA
ATOM     36  CA  ALA A   3     153.518 165.312 187.523  0.00  0.00    +0.097 C 
ATOM     37  N   ALA A   3     152.934 165.662 188.806  0.00  0.00    -0.303 N 
ATOM     38  C   UNK A   2     152.374 166.891 189.054  0.00  0.00    +0.234 C 
ATOM     39  O   UNK A   2     152.221 167.738 188.167  0.00  0.00    -0.274 OA
ATOM     40  C   UNK A   2     151.900 167.115 190.511  0.00  0.00    +0.102 C 
ATOM     41  N   UNK A   2     150.653 166.373 190.718  0.00  0.00    -0.302 N 
ATOM     42  C   UNK A   1     150.543 165.004 190.842  0.00  0.00    +0.234 C 
ATOM     43  O   UNK A   1     151.517 164.258 190.749  0.00  0.00    -0.274 OA
ATOM     44  HA  ALA A   7     146.787 167.521 193.310  0.00  0.00    +0.059 HD
ATOM     45  H   UNK A   1     147.872 166.167 190.422  0.00  0.00    +0.150 HD
ATOM     46  H   UNK A   1     149.028 163.709 191.660  0.00  0.00    +0.060 HD
ATOM     47  H   UNK A   1     148.934 164.612 188.713  0.00  0.00    +0.034 HD
ATOM     48  H   UNK A   1     149.593 163.104 189.280  0.00  0.00    +0.034 HD
ATOM     49  H   UNK A   5     144.327 162.951 188.826  0.00  0.00    +0.166 HD
ATOM     50  H   UNK A   5     144.196 160.173 189.313  0.00  0.00    +0.064 HD
ATOM     51  H   UNK A   5     145.650 158.256 189.949  0.00  0.00    +0.062 HD
ATOM     52  H   UNK A   5     148.068 158.585 190.338  0.00  0.00    +0.062 HD
ATOM     53  H   UNK A   5     149.094 160.806 190.082  0.00  0.00    +0.062 HD
ATOM     54  H   UNK A   5     145.533 166.127 186.492  0.00  0.00    +0.040 HD
ATOM     55  H   UNK A   5     146.697 164.828 186.554  0.00  0.00    +0.040 HD
ATOM     56  H   UNK A   5     147.271 167.516 186.117  0.00  0.00    +0.060 HD
ATOM     57  HD1 HYP A   6     145.937 169.142 186.725  0.00  0.00    +0.049 HD
ATOM     58  HD2 HYP A   6     144.831 168.474 187.935  0.00  0.00    +0.049 HD
ATOM     59  HG  HYP A   6     146.041 171.281 187.784  0.00  0.00    +0.061 HD
ATOM     60  HB1 HYP A   6     146.157 171.439 190.176  0.00  0.00    +0.031 HD
ATOM     61  HB2 HYP A   6     145.084 170.068 190.412  0.00  0.00    +0.031 HD
ATOM     62  HA  HYP A   6     148.017 170.049 189.501  0.00  0.00    +0.060 HD
ATOM     63  H   ALA A   7     145.903 167.348 190.471  0.00  0.00    +0.149 HD
ATOM     64  H   UNK A   5     149.518 166.195 187.347  0.00  0.00    +0.150 HD
ATOM     65  HA  THR A   4     150.182 163.991 185.536  0.00  0.00    +0.062 HD
ATOM     66  H   THR A   4     151.518 166.481 186.445  0.00  0.00    +0.150 HD
ATOM     67  HA  ALA A   3     153.835 166.231 187.009  0.00  0.00    +0.059 HD
ATOM     68  H   ALA A   3     152.800 164.923 189.505  0.00  0.00    +0.149 HD
ATOM     69  H   UNK A   2     151.599 168.165 190.581  0.00  0.00    +0.060 HD
ATOM     70  H   UNK A   2     149.801 166.920 190.798  0.00  0.00    +0.150 HD
ENDROOT
BRANCH   1  71
ATOM     71  CB  ALA A   7     145.143 166.242 192.745  0.00  0.00    -0.038 C 
ATOM     72  HB1 ALA A   7     144.780 166.503 193.744  0.00  0.00    +0.025 HD
ATOM     73  HB2 ALA A   7     145.191 165.148 192.684  0.00  0.00    +0.025 HD
ATOM     74  HB3 ALA A   7     144.397 166.591 192.022  0.00  0.00    +0.025 HD
ENDBRANCH   1  71
BRANCH  36  75
ATOM     75  CB  ALA A   3     154.737 164.419 187.713  0.00  0.00    -0.038 C 
ATOM     76  HB1 ALA A   3     154.938 164.261 188.778  0.00  0.00    +0.025 HD
ATOM     77  HB2 ALA A   3     154.597 163.434 187.257  0.00  0.00    +0.025 HD
ATOM     78  HB3 ALA A   3     155.624 164.880 187.261  0.00  0.00    +0.025 HD
ENDBRANCH  36  75
BRANCH  40  79
ATOM     79  C   UNK A   2     152.956 166.839 191.596  0.00  0.00    +0.005 C 
ATOM     80  H   UNK A   2     153.094 165.753 191.667  0.00  0.00    +0.032 HD
ATOM     81  H   UNK A   2     153.925 167.252 191.279  0.00  0.00    +0.032 HD
BRANCH  79  82
ATOM     82  C   UNK A   2     152.630 167.404 193.000  0.00  0.00    +0.088 C 
BRANCH  82  83
ATOM     83  C   UNK A   2     153.945 167.831 193.672  0.00  0.00    -0.034 C 
ATOM     84  H   UNK A   2     154.195 167.140 194.485  0.00  0.00    +0.026 HD
ATOM     85  H   UNK A   2     154.785 167.792 192.963  0.00  0.00    +0.026 HD
ATOM     86  H   UNK A   2     153.892 168.845 194.084  0.00  0.00    +0.026 HD
ENDBRANCH  82  83
BRANCH  82  87
ATOM     87  C   UNK A   2     151.883 166.401 193.905  0.00  0.00    +0.073 C 
ATOM     88  H   UNK A   2     152.051 165.376 193.553  0.00  0.00    +0.059 HD
ATOM     89  H   UNK A   2     152.257 166.441 194.933  0.00  0.00    +0.059 HD
BRANCH  87  90
ATOM     90  O   UNK A   2     150.487 166.652 193.909  0.00  0.00    -0.392 OA
ATOM     91  H   UNK A   2     150.213 166.767 192.983  0.00  0.00    +0.210 HD
ENDBRANCH  87  90
ENDBRANCH  82  87
BRANCH  82  92
ATOM     92  O   UNK A   2     151.825 168.582 192.844  0.00  0.00    -0.387 OA
ATOM     93  H   UNK A   2     151.983 169.158 193.612  0.00  0.00    +0.210 HD
ENDBRANCH  82  92
ENDBRANCH  79  82
ENDBRANCH  40  79
BRANCH  23  94
ATOM     94  OD  HYP A   6     144.069 170.894 188.258  0.00  0.00    -0.390 OA
ATOM     95  HD  HYP A   6     143.587 170.205 187.763  0.00  0.00    +0.210 HD
ENDBRANCH  23  94
BRANCH  32  96
ATOM     96  CB  THR A   4     150.944 164.966 183.775  0.00  0.00    +0.079 C 
ATOM     97  HB  THR A   4     150.451 165.760 183.203  0.00  0.00    +0.061 HD
BRANCH  96  98
ATOM     98  CG2 THR A   4     150.663 163.639 183.069  0.00  0.00    -0.037 C 
ATOM     99 HG21 THR A   4     149.660 163.619 182.627  0.00  0.00    +0.026 HD
ATOM    100 HG22 THR A   4     151.395 163.433 182.281  0.00  0.00    +0.026 HD
ATOM    101 HG23 THR A   4     150.690 162.816 183.794  0.00  0.00    +0.026 HD
ENDBRANCH  96  98
BRANCH  96 102
ATOM    102  OG1 THR A   4     152.348 165.235 183.686  0.00  0.00    -0.390 OA
ATOM    103  HG1 THR A   4     152.752 164.979 184.541  0.00  0.00    +0.210 HD
ENDBRANCH  96 102
ENDBRANCH  32  96
TORSDOF 12
ENDMDL
MODEL 6
REMARK VINA RESULT:      -5.8      4.386      9.172
REMARK  Name = Phalloidin_conf3
REMARK  12 active torsions:
REMARK  status: ('A' for Active; 'I' for Inactive)
REMARK    1  A    between atoms: CB_1  and  CA_2
REMARK    2  A    between atoms: CG_24  and  OD_30
REMARK    3  A    between atoms: CA_34  and  CB_53
REMARK    4  A    between atoms: CA_38  and  CB_52
REMARK    5  A    between atoms: C_42  and  C_46
REMARK    6  A    between atoms: C_46  and  C_47
REMARK    7  A    between atoms: C_47  and  C_48
REMARK    8  A    between atoms: C_47  and  C_49
REMARK    9  A    between atoms: C_47  and  O_51
REMARK   10  A    between atoms: C_49  and  O_50
REMARK   11  A    between atoms: CB_53  and  CG2_54
REMARK   12  A    between atoms: CB_53  and  OG1_55
REMARK                            x       y       z     vdW  Elec       q    Type
REMARK                         _______ _______ _______ _____ _____    ______ ____
ROOT
ATOM      1  CA  ALA A   7     151.419 164.410 187.832  0.00  0.00    +0.097 C 
ATOM      2  C   ALA A   7     150.041 164.059 187.218  0.00  0.00    +0.234 C 
ATOM      3  O   ALA A   7     149.936 163.389 186.190  0.00  0.00    -0.274 OA
ATOM      4  N   UNK A   1     148.955 164.462 187.959  0.00  0.00    -0.302 N 
ATOM      5  C   UNK A   1     147.567 164.137 187.618  0.00  0.00    +0.103 C 
ATOM      6  C   UNK A   1     146.744 163.794 188.872  0.00  0.00    +0.002 C 
ATOM      7  C   UNK A   1     147.220 162.585 189.629  0.00  0.00    -0.006 A 
ATOM      8  C   UNK A   5     148.200 162.501 190.599  0.00  0.00    +0.078 A 
ATOM      9  N   UNK A   5     148.310 161.198 191.001  0.00  0.00    -0.349 N 
ATOM     10  C   UNK A   5     147.421 160.410 190.312  0.00  0.00    +0.048 A 
ATOM     11  C   UNK A   5     147.191 159.032 190.386  0.00  0.00    -0.038 A 
ATOM     12  C   UNK A   5     146.209 158.493 189.549  0.00  0.00    -0.060 A 
ATOM     13  C   UNK A   5     145.490 159.305 188.675  0.00  0.00    -0.061 A 
ATOM     14  C   UNK A   5     145.732 160.681 188.612  0.00  0.00    -0.052 A 
ATOM     15  C   UNK A   5     146.720 161.249 189.446  0.00  0.00    +0.004 A 
ATOM     16  S   UNK A   5     149.308 163.638 191.278  0.00  0.00    -0.105 S 
ATOM     17  C   UNK A   5     148.275 164.655 192.390  0.00  0.00    +0.027 C 
ATOM     18  C   UNK A   5     148.077 166.140 192.008  0.00  0.00    +0.109 C 
ATOM     19  C   UNK A   5     149.004 166.651 190.892  0.00  0.00    +0.237 C 
ATOM     20  O   UNK A   5     148.572 166.784 189.738  0.00  0.00    -0.274 OA
ATOM     21  N   HYP A   6     150.334 166.891 191.158  0.00  0.00    -0.286 N 
ATOM     22  CD  HYP A   6     150.989 166.900 192.454  0.00  0.00    +0.042 C 
ATOM     23  CG  HYP A   6     152.203 167.808 192.274  0.00  0.00    +0.073 C 
ATOM     24  CB  HYP A   6     152.544 167.649 190.795  0.00  0.00    +0.002 C 
ATOM     25  CA  HYP A   6     151.183 167.505 190.126  0.00  0.00    +0.105 C 
ATOM     26  C   HYP A   6     151.307 166.690 188.825  0.00  0.00    +0.234 C 
ATOM     27  O   HYP A   6     151.466 167.248 187.743  0.00  0.00    -0.274 OA
ATOM     28  N   ALA A   7     151.322 165.323 188.976  0.00  0.00    -0.303 N 
ATOM     29  N   UNK A   5     146.708 166.405 191.554  0.00  0.00    -0.302 N 
ATOM     30  C   THR A   4     145.645 166.469 192.425  0.00  0.00    +0.237 C 
ATOM     31  O   THR A   4     145.802 166.305 193.635  0.00  0.00    -0.274 OA
ATOM     32  CA  THR A   4     144.258 166.546 191.758  0.00  0.00    +0.125 C 
ATOM     33  N   THR A   4     144.278 167.261 190.479  0.00  0.00    -0.300 N 
ATOM     34  C   ALA A   3     143.361 166.958 189.484  0.00  0.00    +0.234 C 
ATOM     35  O   ALA A   3     142.567 166.026 189.591  0.00  0.00    -0.274 OA
ATOM     36  CA  ALA A   3     143.427 167.877 188.249  0.00  0.00    +0.097 C 
ATOM     37  N   ALA A   3     144.632 167.575 187.497  0.00  0.00    -0.303 N 
ATOM     38  C   UNK A   2     145.815 168.242 187.696  0.00  0.00    +0.234 C 
ATOM     39  O   UNK A   2     145.966 169.059 188.611  0.00  0.00    -0.274 OA
ATOM     40  C   UNK A   2     146.959 167.855 186.727  0.00  0.00    +0.102 C 
ATOM     41  N   UNK A   2     147.491 166.549 187.126  0.00  0.00    -0.302 N 
ATOM     42  C   UNK A   1     146.862 165.335 186.945  0.00  0.00    +0.234 C 
ATOM     43  O   UNK A   1     145.741 165.247 186.446  0.00  0.00    -0.274 OA
ATOM     44  HA  ALA A   7     151.995 164.908 187.043  0.00  0.00    +0.059 HD
ATOM     45  H   UNK A   1     149.122 165.000 188.801  0.00  0.00    +0.150 HD
ATOM     46  H   UNK A   1     147.560 163.298 186.911  0.00  0.00    +0.060 HD
ATOM     47  H   UNK A   1     146.717 164.651 189.550  0.00  0.00    +0.034 HD
ATOM     48  H   UNK A   1     145.700 163.623 188.580  0.00  0.00    +0.034 HD
ATOM     49  H   UNK A   5     148.971 160.863 191.685  0.00  0.00    +0.166 HD
ATOM     50  H   UNK A   5     147.745 158.394 191.069  0.00  0.00    +0.064 HD
ATOM     51  H   UNK A   5     145.994 157.427 189.588  0.00  0.00    +0.062 HD
ATOM     52  H   UNK A   5     144.723 158.868 188.034  0.00  0.00    +0.062 HD
ATOM     53  H   UNK A   5     145.143 161.290 187.935  0.00  0.00    +0.062 HD
ATOM     54  H   UNK A   5     148.806 164.629 193.349  0.00  0.00    +0.040 HD
ATOM     55  H   UNK A   5     147.322 164.149 192.566  0.00  0.00    +0.040 HD
ATOM     56  H   UNK A   5     148.221 166.762 192.900  0.00  0.00    +0.060 HD
ATOM     57  HD1 HYP A   6     150.322 167.274 193.234  0.00  0.00    +0.049 HD
ATOM     58  HD2 HYP A   6     151.280 165.878 192.717  0.00  0.00    +0.049 HD
ATOM     59  HG  HYP A   6     151.951 168.855 192.489  0.00  0.00    +0.061 HD
ATOM     60  HB1 HYP A   6     153.105 168.512 190.413  0.00  0.00    +0.031 HD
ATOM     61  HB2 HYP A   6     153.183 166.771 190.637  0.00  0.00    +0.031 HD
ATOM     62  HA  HYP A   6     150.745 168.483 189.886  0.00  0.00    +0.060 HD
ATOM     63  H   ALA A   7     151.140 164.940 189.897  0.00  0.00    +0.149 HD
ATOM     64  H   UNK A   5     146.548 166.565 190.561  0.00  0.00    +0.150 HD
ATOM     65  HA  THR A   4     144.003 165.497 191.540  0.00  0.00    +0.062 HD
ATOM     66  H   THR A   4     144.920 168.042 190.316  0.00  0.00    +0.150 HD
ATOM     67  HA  ALA A   3     143.477 168.914 188.610  0.00  0.00    +0.059 HD
ATOM     68  H   ALA A   3     144.646 166.740 186.901  0.00  0.00    +0.149 HD
ATOM     69  H   UNK A   2     147.782 168.549 186.926  0.00  0.00    +0.060 HD
ATOM     70  H   UNK A   2     148.413 166.539 187.554  0.00  0.00    +0.150 HD
ENDROOT
BRANCH   1  71
ATOM     71  CB  ALA A   7     152.127 163.124 188.253  0.00  0.00    -0.038 C 
ATOM     72  HB1 ALA A   7     152.826 162.789 187.480  0.00  0.00    +0.025 HD
ATOM     73  HB2 ALA A   7     151.406 162.316 188.424  0.00  0.00    +0.025 HD
ATOM     74  HB3 ALA A   7     152.701 163.271 189.176  0.00  0.00    +0.025 HD
ENDBRANCH   1  71
BRANCH  36  75
ATOM     75  CB  ALA A   3     142.193 167.732 187.368  0.00  0.00    -0.038 C 
ATOM     76  HB1 ALA A   3     142.012 168.653 186.803  0.00  0.00    +0.025 HD
ATOM     77  HB2 ALA A   3     142.302 166.919 186.642  0.00  0.00    +0.025 HD
ATOM     78  HB3 ALA A   3     141.307 167.525 187.980  0.00  0.00    +0.025 HD
ENDBRANCH  36  75
BRANCH  40  79
ATOM     79  C   UNK A   2     146.608 167.934 185.230  0.00  0.00    +0.005 C 
ATOM     80  H   UNK A   2     147.314 167.297 184.683  0.00  0.00    +0.032 HD
ATOM     81  H   UNK A   2     145.611 167.503 185.063  0.00  0.00    +0.032 HD
BRANCH  79  82
ATOM     82  C   UNK A   2     146.624 169.356 184.619  0.00  0.00    +0.088 C 
BRANCH  82  83
ATOM     83  C   UNK A   2     147.727 170.173 185.311  0.00  0.00    -0.034 C 
ATOM     84  H   UNK A   2     147.302 170.766 186.129  0.00  0.00    +0.026 HD
ATOM     85  H   UNK A   2     148.483 169.516 185.765  0.00  0.00    +0.026 HD
ATOM     86  H   UNK A   2     148.236 170.854 184.619  0.00  0.00    +0.026 HD
ENDBRANCH  82  83
BRANCH  82  87
ATOM     87  C   UNK A   2     145.273 170.092 184.744  0.00  0.00    +0.073 C 
ATOM     88  H   UNK A   2     145.252 170.693 185.661  0.00  0.00    +0.059 HD
ATOM     89  H   UNK A   2     145.124 170.791 183.914  0.00  0.00    +0.059 HD
BRANCH  87  90
ATOM     90  O   UNK A   2     144.189 169.178 184.781  0.00  0.00    -0.392 OA
ATOM     91  H   UNK A   2     143.371 169.701 184.742  0.00  0.00    +0.210 HD
ENDBRANCH  87  90
ENDBRANCH  82  87
BRANCH  82  92
ATOM     92  O   UNK A   2     146.972 169.254 183.230  0.00  0.00    -0.387 OA
ATOM     93  H   UNK A   2     147.828 169.699 183.101  0.00  0.00    +0.210 HD
ENDBRANCH  82  92
ENDBRANCH  79  82
ENDBRANCH  40  79
BRANCH  23  94
ATOM     94  OD  HYP A   6     153.300 167.405 193.072  0.00  0.00    -0.390 OA
ATOM     95  HD  HYP A   6     152.961 166.987 193.886  0.00  0.00    +0.210 HD
ENDBRANCH  23  94
BRANCH  32  96
ATOM     96  CB  THR A   4     143.186 167.091 192.734  0.00  0.00    +0.079 C 
ATOM     97  HB  THR A   4     143.592 167.067 193.752  0.00  0.00    +0.061 HD
BRANCH  96  98
ATOM     98  CG2 THR A   4     141.881 166.293 192.732  0.00  0.00    -0.037 C 
ATOM     99 HG21 THR A   4     141.493 166.152 191.717  0.00  0.00    +0.026 HD
ATOM    100 HG22 THR A   4     142.004 165.309 193.197  0.00  0.00    +0.026 HD
ATOM    101 HG23 THR A   4     141.105 166.843 193.278  0.00  0.00    +0.026 HD
ENDBRANCH  96  98
BRANCH  96 102
ATOM    102  OG1 THR A   4     142.875 168.463 192.469  0.00  0.00    -0.390 OA
ATOM    103  HG1 THR A   4     142.958 168.953 193.313  0.00  0.00    +0.210 HD
ENDBRANCH  96 102
ENDBRANCH  32  96
TORSDOF 12
ENDMDL
MODEL 7
REMARK VINA RESULT:      -5.7     15.905     20.569
REMARK  Name = Phalloidin_conf3
REMARK  12 active torsions:
REMARK  status: ('A' for Active; 'I' for Inactive)
REMARK    1  A    between atoms: CB_1  and  CA_2
REMARK    2  A    between atoms: CG_24  and  OD_30
REMARK    3  A    between atoms: CA_34  and  CB_53
REMARK    4  A    between atoms: CA_38  and  CB_52
REMARK    5  A    between atoms: C_42  and  C_46
REMARK    6  A    between atoms: C_46  and  C_47
REMARK    7  A    between atoms: C_47  and  C_48
REMARK    8  A    between atoms: C_47  and  C_49
REMARK    9  A    between atoms: C_47  and  O_51
REMARK   10  A    between atoms: C_49  and  O_50
REMARK   11  A    between atoms: CB_53  and  CG2_54
REMARK   12  A    between atoms: CB_53  and  OG1_55
REMARK                            x       y       z     vdW  Elec       q    Type
REMARK                         _______ _______ _______ _____ _____    ______ ____
ROOT
ATOM      1  CA  ALA A   7     127.506 169.185 202.416  0.00  0.00    +0.097 C 
ATOM      2  C   ALA A   7     127.709 168.640 200.980  0.00  0.00    +0.234 C 
ATOM      3  O   ALA A   7     127.048 169.052 200.026  0.00  0.00    -0.274 OA
ATOM      4  N   UNK A   1     128.745 167.747 200.839  0.00  0.00    -0.302 N 
ATOM      5  C   UNK A   1     129.178 167.196 199.552  0.00  0.00    +0.103 C 
ATOM      6  C   UNK A   1     130.712 167.101 199.467  0.00  0.00    +0.002 C 
ATOM      7  C   UNK A   1     131.432 168.418 199.555  0.00  0.00    -0.006 A 
ATOM      8  C   UNK A   5     131.824 169.117 200.680  0.00  0.00    +0.078 A 
ATOM      9  N   UNK A   5     132.435 170.277 200.286  0.00  0.00    -0.349 N 
ATOM     10  C   UNK A   5     132.455 170.363 198.915  0.00  0.00    +0.048 A 
ATOM     11  C   UNK A   5     132.963 171.365 198.082  0.00  0.00    -0.038 A 
ATOM     12  C   UNK A   5     132.839 171.183 196.701  0.00  0.00    -0.060 A 
ATOM     13  C   UNK A   5     132.229 170.044 196.181  0.00  0.00    -0.061 A 
ATOM     14  C   UNK A   5     131.725 169.051 197.028  0.00  0.00    -0.052 A 
ATOM     15  C   UNK A   5     131.837 169.212 198.426  0.00  0.00    +0.004 A 
ATOM     16  S   UNK A   5     131.608 168.870 202.374  0.00  0.00    -0.105 S 
ATOM     17  C   UNK A   5     132.784 167.532 202.781  0.00  0.00    +0.027 C 
ATOM     18  C   UNK A   5     132.186 166.176 203.221  0.00  0.00    +0.109 C 
ATOM     19  C   UNK A   5     130.680 166.203 203.535  0.00  0.00    +0.237 C 
ATOM     20  O   UNK A   5     129.865 165.762 202.710  0.00  0.00    -0.274 OA
ATOM     21  N   HYP A   6     130.230 166.785 204.699  0.00  0.00    -0.286 N 
ATOM     22  CD  HYP A   6     131.027 167.248 205.821  0.00  0.00    +0.042 C 
ATOM     23  CG  HYP A   6     130.087 167.184 207.023  0.00  0.00    +0.073 C 
ATOM     24  CB  HYP A   6     128.709 167.398 206.402  0.00  0.00    +0.002 C 
ATOM     25  CA  HYP A   6     128.807 166.689 205.057  0.00  0.00    +0.105 C 
ATOM     26  C   HYP A   6     127.843 167.330 204.042  0.00  0.00    +0.234 C 
ATOM     27  O   HYP A   6     126.711 166.884 203.877  0.00  0.00    -0.274 OA
ATOM     28  N   ALA A   7     128.300 168.468 203.419  0.00  0.00    -0.303 N 
ATOM     29  N   UNK A   5     132.370 165.144 202.195  0.00  0.00    -0.302 N 
ATOM     30  C   THR A   4     133.588 164.552 201.960  0.00  0.00    +0.237 C 
ATOM     31  O   THR A   4     134.585 164.865 202.610  0.00  0.00    -0.274 OA
ATOM     32  CA  THR A   4     133.645 163.647 200.712  0.00  0.00    +0.125 C 
ATOM     33  N   THR A   4     132.371 162.978 200.433  0.00  0.00    -0.300 N 
ATOM     34  C   ALA A   3     132.025 162.629 199.137  0.00  0.00    +0.234 C 
ATOM     35  O   ALA A   3     132.713 162.947 198.170  0.00  0.00    -0.274 OA
ATOM     36  CA  ALA A   3     130.717 161.823 199.017  0.00  0.00    +0.097 C 
ATOM     37  N   ALA A   3     129.592 162.700 199.286  0.00  0.00    -0.303 N 
ATOM     38  C   UNK A   2     129.049 162.845 200.539  0.00  0.00    +0.234 C 
ATOM     39  O   UNK A   2     129.557 162.330 201.542  0.00  0.00    -0.274 OA
ATOM     40  C   UNK A   2     127.788 163.742 200.609  0.00  0.00    +0.102 C 
ATOM     41  N   UNK A   2     128.202 165.143 200.498  0.00  0.00    -0.302 N 
ATOM     42  C   UNK A   1     128.638 165.764 199.347  0.00  0.00    +0.234 C 
ATOM     43  O   UNK A   1     128.756 165.160 198.281  0.00  0.00    -0.274 OA
ATOM     44  HA  ALA A   7     126.445 169.047 202.656  0.00  0.00    +0.059 HD
ATOM     45  H   UNK A   1     129.252 167.464 201.669  0.00  0.00    +0.150 HD
ATOM     46  H   UNK A   1     128.787 167.826 198.743  0.00  0.00    +0.060 HD
ATOM     47  H   UNK A   1     131.091 166.435 200.247  0.00  0.00    +0.034 HD
ATOM     48  H   UNK A   1     130.990 166.624 198.519  0.00  0.00    +0.034 HD
ATOM     49  H   UNK A   5     132.793 170.979 200.915  0.00  0.00    +0.166 HD
ATOM     50  H   UNK A   5     133.444 172.253 198.480  0.00  0.00    +0.064 HD
ATOM     51  H   UNK A   5     133.234 171.936 196.021  0.00  0.00    +0.062 HD
ATOM     52  H   UNK A   5     132.147 169.917 195.101  0.00  0.00    +0.062 HD
ATOM     53  H   UNK A   5     131.273 168.167 196.593  0.00  0.00    +0.062 HD
ATOM     54  H   UNK A   5     133.360 167.927 203.626  0.00  0.00    +0.040 HD
ATOM     55  H   UNK A   5     133.500 167.415 201.964  0.00  0.00    +0.040 HD
ATOM     56  H   UNK A   5     132.725 165.815 204.105  0.00  0.00    +0.060 HD
ATOM     57  HD1 HYP A   6     131.908 166.620 205.970  0.00  0.00    +0.049 HD
ATOM     58  HD2 HYP A   6     131.366 168.270 205.624  0.00  0.00    +0.049 HD
ATOM     59  HG  HYP A   6     130.130 166.199 207.508  0.00  0.00    +0.061 HD
ATOM     60  HB1 HYP A   6     127.912 166.983 207.033  0.00  0.00    +0.031 HD
ATOM     61  HB2 HYP A   6     128.494 168.469 206.297  0.00  0.00    +0.031 HD
ATOM     62  HA  HYP A   6     128.565 165.622 205.144  0.00  0.00    +0.060 HD
ATOM     63  H   ALA A   7     129.262 168.746 203.575  0.00  0.00    +0.149 HD
ATOM     64  H   UNK A   5     131.559 164.848 201.653  0.00  0.00    +0.150 HD
ATOM     65  HA  THR A   4     133.835 164.344 199.881  0.00  0.00    +0.062 HD
ATOM     66  H   THR A   4     131.743 162.694 201.189  0.00  0.00    +0.150 HD
ATOM     67  HA  ALA A   3     130.746 161.030 199.778  0.00  0.00    +0.059 HD
ATOM     68  H   ALA A   3     129.284 163.348 198.551  0.00  0.00    +0.149 HD
ATOM     69  H   UNK A   2     127.405 163.658 201.631  0.00  0.00    +0.060 HD
ATOM     70  H   UNK A   2     128.141 165.708 201.340  0.00  0.00    +0.150 HD
ENDROOT
BRANCH   1  71
ATOM     71  CB  ALA A   7     127.852 170.672 202.447  0.00  0.00    -0.038 C 
ATOM     72  HB1 ALA A   7     128.492 170.945 201.601  0.00  0.00    +0.025 HD
ATOM     73  HB2 ALA A   7     128.387 170.932 203.367  0.00  0.00    +0.025 HD
ATOM     74  HB3 ALA A   7     126.949 171.291 202.390  0.00  0.00    +0.025 HD
ENDBRANCH   1  71
BRANCH  36  75
ATOM     75  CB  ALA A   3     130.576 161.172 197.647  0.00  0.00    -0.038 C 
ATOM     76  HB1 ALA A   3     131.466 161.362 197.037  0.00  0.00    +0.025 HD
ATOM     77  HB2 ALA A   3     130.456 160.086 197.721  0.00  0.00    +0.025 HD
ATOM     78  HB3 ALA A   3     129.705 161.576 197.119  0.00  0.00    +0.025 HD
ENDBRANCH  36  75
BRANCH  40  79
ATOM     79  C   UNK A   2     126.658 163.365 199.635  0.00  0.00    +0.005 C 
ATOM     80  H   UNK A   2     125.838 164.080 199.775  0.00  0.00    +0.032 HD
ATOM     81  H   UNK A   2     127.006 163.495 198.600  0.00  0.00    +0.032 HD
BRANCH  79  82
ATOM     82  C   UNK A   2     126.109 161.924 199.779  0.00  0.00    +0.088 C 
BRANCH  82  83
ATOM     83  C   UNK A   2     124.716 161.866 199.131  0.00  0.00    -0.034 C 
ATOM     84  H   UNK A   2     123.989 161.445 199.836  0.00  0.00    +0.026 HD
ATOM     85  H   UNK A   2     124.354 162.871 198.876  0.00  0.00    +0.026 HD
ATOM     86  H   UNK A   2     124.706 161.256 198.220  0.00  0.00    +0.026 HD
ENDBRANCH  82  83
BRANCH  82  87
ATOM     87  C   UNK A   2     126.025 161.446 201.244  0.00  0.00    +0.073 C 
ATOM     88  H   UNK A   2     126.258 162.272 201.927  0.00  0.00    +0.059 HD
ATOM     89  H   UNK A   2     125.011 161.115 201.495  0.00  0.00    +0.059 HD
BRANCH  87  90
ATOM     90  O   UNK A   2     126.934 160.386 201.494  0.00  0.00    -0.392 OA
ATOM     91  H   UNK A   2     126.858 160.159 202.436  0.00  0.00    +0.210 HD
ENDBRANCH  87  90
ENDBRANCH  82  87
BRANCH  82  92
ATOM     92  O   UNK A   2     126.962 161.033 199.046  0.00  0.00    -0.387 OA
ATOM     93  H   UNK A   2     126.856 160.141 199.419  0.00  0.00    +0.210 HD
ENDBRANCH  82  92
ENDBRANCH  79  82
ENDBRANCH  40  79
BRANCH  23  94
ATOM     94  OD  HYP A   6     130.356 168.198 207.972  0.00  0.00    -0.390 OA
ATOM     95  HD  HYP A   6     129.609 168.826 207.982  0.00  0.00    +0.210 HD
ENDBRANCH  23  94
BRANCH  32  96
ATOM     96  CB  THR A   4     134.839 162.663 200.776  0.00  0.00    +0.079 C 
ATOM     97  HB  THR A   4     134.947 162.175 199.801  0.00  0.00    +0.061 HD
BRANCH  96  98
ATOM     98  CG2 THR A   4     134.685 161.568 201.832  0.00  0.00    -0.037 C 
ATOM     99 HG21 THR A   4     133.863 160.884 201.591  0.00  0.00    +0.026 HD
ATOM    100 HG22 THR A   4     135.602 160.982 201.949  0.00  0.00    +0.026 HD
ATOM    101 HG23 THR A   4     134.431 162.015 202.801  0.00  0.00    +0.026 HD
ENDBRANCH  96  98
BRANCH  96 102
ATOM    102  OG1 THR A   4     136.076 163.345 201.011  0.00  0.00    -0.390 OA
ATOM    103  HG1 THR A   4     136.797 162.769 200.683  0.00  0.00    +0.210 HD
ENDBRANCH  96 102
ENDBRANCH  32  96
TORSDOF 12
ENDMDL
MODEL 8
REMARK VINA RESULT:      -5.7      8.479     13.279
REMARK  Name = Phalloidin_conf3
REMARK  12 active torsions:
REMARK  status: ('A' for Active; 'I' for Inactive)
REMARK    1  A    between atoms: CB_1  and  CA_2
REMARK    2  A    between atoms: CG_24  and  OD_30
REMARK    3  A    between atoms: CA_34  and  CB_53
REMARK    4  A    between atoms: CA_38  and  CB_52
REMARK    5  A    between atoms: C_42  and  C_46
REMARK    6  A    between atoms: C_46  and  C_47
REMARK    7  A    between atoms: C_47  and  C_48
REMARK    8  A    between atoms: C_47  and  C_49
REMARK    9  A    between atoms: C_47  and  O_51
REMARK   10  A    between atoms: C_49  and  O_50
REMARK   11  A    between atoms: CB_53  and  CG2_54
REMARK   12  A    between atoms: CB_53  and  OG1_55
REMARK                            x       y       z     vdW  Elec       q    Type
REMARK                         _______ _______ _______ _____ _____    ______ ____
ROOT
ATOM      1  CA  ALA A   7     152.248 166.494 187.263  0.00  0.00    +0.097 C 
ATOM      2  C   ALA A   7     152.934 165.819 188.477  0.00  0.00    +0.234 C 
ATOM      3  O   ALA A   7     153.783 166.400 189.153  0.00  0.00    -0.274 OA
ATOM      4  N   UNK A   1     152.449 164.573 188.799  0.00  0.00    -0.302 N 
ATOM      5  C   UNK A   1     152.879 163.809 189.973  0.00  0.00    +0.103 C 
ATOM      6  C   UNK A   1     151.694 163.089 190.642  0.00  0.00    +0.002 C 
ATOM      7  C   UNK A   1     150.623 163.999 191.178  0.00  0.00    -0.006 A 
ATOM      8  C   UNK A   5     149.544 164.551 190.515  0.00  0.00    +0.078 A 
ATOM      9  N   UNK A   5     148.841 165.330 191.393  0.00  0.00    -0.349 N 
ATOM     10  C   UNK A   5     149.435 165.308 192.632  0.00  0.00    +0.048 A 
ATOM     11  C   UNK A   5     149.074 165.957 193.817  0.00  0.00    -0.038 A 
ATOM     12  C   UNK A   5     149.880 165.749 194.940  0.00  0.00    -0.060 A 
ATOM     13  C   UNK A   5     151.003 164.927 194.873  0.00  0.00    -0.061 A 
ATOM     14  C   UNK A   5     151.352 164.286 193.680  0.00  0.00    -0.052 A 
ATOM     15  C   UNK A   5     150.554 164.480 192.531  0.00  0.00    +0.004 A 
ATOM     16  S   UNK A   5     149.013 164.527 188.873  0.00  0.00    -0.105 S 
ATOM     17  C   UNK A   5     148.306 162.856 188.659  0.00  0.00    +0.027 C 
ATOM     18  C   UNK A   5     149.043 161.896 187.697  0.00  0.00    +0.109 C 
ATOM     19  C   UNK A   5     150.121 162.557 186.821  0.00  0.00    +0.237 C 
ATOM     20  O   UNK A   5     151.320 162.433 187.112  0.00  0.00    -0.274 OA
ATOM     21  N   HYP A   6     149.752 163.348 185.757  0.00  0.00    -0.286 N 
ATOM     22  CD  HYP A   6     148.421 163.519 185.201  0.00  0.00    +0.042 C 
ATOM     23  CG  HYP A   6     148.651 163.926 183.748  0.00  0.00    +0.073 C 
ATOM     24  CB  HYP A   6     149.998 164.642 183.792  0.00  0.00    +0.002 C 
ATOM     25  CA  HYP A   6     150.782 163.867 184.844  0.00  0.00    +0.105 C 
ATOM     26  C   HYP A   6     151.832 164.777 185.509  0.00  0.00    +0.234 C 
ATOM     27  O   HYP A   6     152.985 164.822 185.089  0.00  0.00    -0.274 OA
ATOM     28  N   ALA A   7     151.368 165.584 186.522  0.00  0.00    -0.303 N 
ATOM     29  N   UNK A   5     149.716 160.813 188.423  0.00  0.00    -0.302 N 
ATOM     30  C   THR A   4     149.025 159.760 188.975  0.00  0.00    +0.237 C 
ATOM     31  O   THR A   4     147.801 159.681 188.880  0.00  0.00    -0.274 OA
ATOM     32  CA  THR A   4     149.862 158.830 189.876  0.00  0.00    +0.125 C 
ATOM     33  N   THR A   4     151.259 158.723 189.444  0.00  0.00    -0.300 N 
ATOM     34  C   ALA A   3     152.264 158.460 190.362  0.00  0.00    +0.234 C 
ATOM     35  O   ALA A   3     152.046 158.403 191.571  0.00  0.00    -0.274 OA
ATOM     36  CA  ALA A   3     153.660 158.253 189.744  0.00  0.00    +0.097 C 
ATOM     37  N   ALA A   3     154.163 159.530 189.269  0.00  0.00    -0.303 N 
ATOM     38  C   UNK A   2     153.976 159.967 187.982  0.00  0.00    +0.234 C 
ATOM     39  O   UNK A   2     153.263 159.358 187.175  0.00  0.00    -0.274 OA
ATOM     40  C   UNK A   2     154.676 161.303 187.633  0.00  0.00    +0.102 C 
ATOM     41  N   UNK A   2     153.921 162.402 188.241  0.00  0.00    -0.302 N 
ATOM     42  C   UNK A   1     153.895 162.712 189.584  0.00  0.00    +0.234 C 
ATOM     43  O   UNK A   1     154.497 162.042 190.423  0.00  0.00    -0.274 OA
ATOM     44  HA  ALA A   7     153.051 166.818 186.591  0.00  0.00    +0.059 HD
ATOM     45  H   UNK A   1     151.741 164.164 188.201  0.00  0.00    +0.150 HD
ATOM     46  H   UNK A   1     153.366 164.487 190.684  0.00  0.00    +0.060 HD
ATOM     47  H   UNK A   1     151.242 162.380 189.943  0.00  0.00    +0.034 HD
ATOM     48  H   UNK A   1     152.067 162.478 191.472  0.00  0.00    +0.034 HD
ATOM     49  H   UNK A   5     148.020 165.864 191.155  0.00  0.00    +0.166 HD
ATOM     50  H   UNK A   5     148.198 166.595 193.877  0.00  0.00    +0.064 HD
ATOM     51  H   UNK A   5     149.623 166.228 195.883  0.00  0.00    +0.062 HD
ATOM     52  H   UNK A   5     151.616 164.772 195.761  0.00  0.00    +0.062 HD
ATOM     53  H   UNK A   5     152.220 163.637 193.664  0.00  0.00    +0.062 HD
ATOM     54  H   UNK A   5     147.308 163.037 188.242  0.00  0.00    +0.040 HD
ATOM     55  H   UNK A   5     148.140 162.402 189.639  0.00  0.00    +0.040 HD
ATOM     56  H   UNK A   5     148.309 161.406 187.046  0.00  0.00    +0.060 HD
ATOM     57  HD1 HYP A   6     147.839 162.597 185.271  0.00  0.00    +0.049 HD
ATOM     58  HD2 HYP A   6     147.894 164.297 185.762  0.00  0.00    +0.049 HD
ATOM     59  HG  HYP A   6     148.718 163.044 183.095  0.00  0.00    +0.061 HD
ATOM     60  HB1 HYP A   6     150.495 164.633 182.814  0.00  0.00    +0.031 HD
ATOM     61  HB2 HYP A   6     149.866 165.698 184.062  0.00  0.00    +0.031 HD
ATOM     62  HA  HYP A   6     151.295 163.001 184.408  0.00  0.00    +0.060 HD
ATOM     63  H   ALA A   7     150.415 165.454 186.839  0.00  0.00    +0.149 HD
ATOM     64  H   UNK A   5     150.731 160.839 188.501  0.00  0.00    +0.150 HD
ATOM     65  HA  THR A   4     149.862 159.331 190.856  0.00  0.00    +0.062 HD
ATOM     66  H   THR A   4     151.515 158.771 188.455  0.00  0.00    +0.150 HD
ATOM     67  HA  ALA A   3     153.546 157.570 188.890  0.00  0.00    +0.059 HD
ATOM     68  H   ALA A   3     154.543 160.195 189.952  0.00  0.00    +0.149 HD
ATOM     69  H   UNK A   2     154.541 161.453 186.556  0.00  0.00    +0.060 HD
ATOM     70  H   UNK A   2     153.390 162.998 187.613  0.00  0.00    +0.150 HD
ENDROOT
BRANCH   1  71
ATOM     71  CB  ALA A   7     151.454 167.708 187.740  0.00  0.00    -0.038 C 
ATOM     72  HB1 ALA A   7     151.834 168.630 187.288  0.00  0.00    +0.025 HD
ATOM     73  HB2 ALA A   7     151.522 167.819 188.829  0.00  0.00    +0.025 HD
ATOM     74  HB3 ALA A   7     150.395 167.622 187.472  0.00  0.00    +0.025 HD
ENDBRANCH   1  71
BRANCH  36  75
ATOM     75  CB  ALA A   3     154.632 157.627 190.735  0.00  0.00    -0.038 C 
ATOM     76  HB1 ALA A   3     154.369 156.581 190.925  0.00  0.00    +0.025 HD
ATOM     77  HB2 ALA A   3     155.662 157.642 190.362  0.00  0.00    +0.025 HD
ATOM     78  HB3 ALA A   3     154.608 158.166 191.689  0.00  0.00    +0.025 HD
ENDBRANCH  36  75
BRANCH  40  79
ATOM     79  C   UNK A   2     156.182 161.357 187.944  0.00  0.00    +0.005 C 
ATOM     80  H   UNK A   2     156.301 161.373 189.035  0.00  0.00    +0.032 HD
ATOM     81  H   UNK A   2     156.663 160.432 187.596  0.00  0.00    +0.032 HD
BRANCH  79  82
ATOM     82  C   UNK A   2     156.946 162.556 187.331  0.00  0.00    +0.088 C 
BRANCH  82  83
ATOM     83  C   UNK A   2     158.244 162.034 186.695  0.00  0.00    -0.034 C 
ATOM     84  H   UNK A   2     158.810 162.864 186.256  0.00  0.00    +0.026 HD
ATOM     85  H   UNK A   2     158.900 161.577 187.450  0.00  0.00    +0.026 HD
ATOM     86  H   UNK A   2     158.055 161.292 185.911  0.00  0.00    +0.026 HD
ENDBRANCH  82  83
BRANCH  82  87
ATOM     87  C   UNK A   2     157.273 163.662 188.356  0.00  0.00    +0.073 C 
ATOM     88  H   UNK A   2     157.336 163.237 189.365  0.00  0.00    +0.059 HD
ATOM     89  H   UNK A   2     158.249 164.116 188.151  0.00  0.00    +0.059 HD
BRANCH  87  90
ATOM     90  O   UNK A   2     156.281 164.676 188.356  0.00  0.00    -0.392 OA
ATOM     91  H   UNK A   2     155.559 164.371 187.781  0.00  0.00    +0.210 HD
ENDBRANCH  87  90
ENDBRANCH  82  87
BRANCH  82  92
ATOM     92  O   UNK A   2     156.147 163.117 186.279  0.00  0.00    -0.387 OA
ATOM     93  H   UNK A   2     156.540 162.852 185.429  0.00  0.00    +0.210 HD
ENDBRANCH  82  92
ENDBRANCH  79  82
ENDBRANCH  40  79
BRANCH  23  94
ATOM     94  OD  HYP A   6     147.649 164.803 183.268  0.00  0.00    -0.390 OA
ATOM     95  HD  HYP A   6     147.982 165.719 183.317  0.00  0.00    +0.210 HD
ENDBRANCH  23  94
BRANCH  32  96
ATOM     96  CB  THR A   4     149.182 157.450 190.058  0.00  0.00    +0.079 C 
ATOM     97  HB  THR A   4     149.760 156.865 190.783  0.00  0.00    +0.061 HD
BRANCH  96  98
ATOM     98  CG2 THR A   4     149.084 156.632 188.770  0.00  0.00    -0.037 C 
ATOM     99 HG21 THR A   4     148.441 155.753 188.896  0.00  0.00    +0.026 HD
ATOM    100 HG22 THR A   4     148.699 157.227 187.936  0.00  0.00    +0.026 HD
ATOM    101 HG23 THR A   4     150.073 156.245 188.496  0.00  0.00    +0.026 HD
ENDBRANCH  96  98
BRANCH  96 102
ATOM    102  OG1 THR A   4     147.869 157.575 190.614  0.00  0.00    -0.390 OA
ATOM    103  HG1 THR A   4     147.228 157.333 189.914  0.00  0.00    +0.210 HD
ENDBRANCH  96 102
ENDBRANCH  32  96
TORSDOF 12
ENDMDL
MODEL 9
REMARK VINA RESULT:      -5.6      5.776      9.163
REMARK  Name = Phalloidin_conf3
REMARK  12 active torsions:
REMARK  status: ('A' for Active; 'I' for Inactive)
REMARK    1  A    between atoms: CB_1  and  CA_2
REMARK    2  A    between atoms: CG_24  and  OD_30
REMARK    3  A    between atoms: CA_34  and  CB_53
REMARK    4  A    between atoms: CA_38  and  CB_52
REMARK    5  A    between atoms: C_42  and  C_46
REMARK    6  A    between atoms: C_46  and  C_47
REMARK    7  A    between atoms: C_47  and  C_48
REMARK    8  A    between atoms: C_47  and  C_49
REMARK    9  A    between atoms: C_47  and  O_51
REMARK   10  A    between atoms: C_49  and  O_50
REMARK   11  A    between atoms: CB_53  and  CG2_54
REMARK   12  A    between atoms: CB_53  and  OG1_55
REMARK                            x       y       z     vdW  Elec       q    Type
REMARK                         _______ _______ _______ _____ _____    ______ ____
ROOT
ATOM      1  CA  ALA A   7     150.764 160.879 190.491  0.00  0.00    +0.097 C 
ATOM      2  C   ALA A   7     151.295 162.333 190.448  0.00  0.00    +0.234 C 
ATOM      3  O   ALA A   7     152.453 162.615 190.759  0.00  0.00    -0.274 OA
ATOM      4  N   UNK A   1     150.413 163.258 189.941  0.00  0.00    -0.302 N 
ATOM      5  C   UNK A   1     150.751 164.666 189.710  0.00  0.00    +0.103 C 
ATOM      6  C   UNK A   1     150.138 165.184 188.397  0.00  0.00    +0.002 C 
ATOM      7  C   UNK A   1     150.625 164.490 187.155  0.00  0.00    -0.006 A 
ATOM      8  C   UNK A   5     150.162 163.324 186.577  0.00  0.00    +0.078 A 
ATOM      9  N   UNK A   5     150.914 163.056 185.466  0.00  0.00    -0.349 N 
ATOM     10  C   UNK A   5     151.873 164.024 185.294  0.00  0.00    +0.048 A 
ATOM     11  C   UNK A   5     152.859 164.154 184.310  0.00  0.00    -0.038 A 
ATOM     12  C   UNK A   5     153.713 165.258 184.390  0.00  0.00    -0.060 A 
ATOM     13  C   UNK A   5     153.581 166.191 185.416  0.00  0.00    -0.061 A 
ATOM     14  C   UNK A   5     152.591 166.048 186.393  0.00  0.00    -0.052 A 
ATOM     15  C   UNK A   5     151.717 164.940 186.335  0.00  0.00    +0.004 A 
ATOM     16  S   UNK A   5     148.963 162.164 187.023  0.00  0.00    -0.105 S 
ATOM     17  C   UNK A   5     147.380 162.995 186.645  0.00  0.00    +0.027 C 
ATOM     18  C   UNK A   5     146.469 163.354 187.841  0.00  0.00    +0.109 C 
ATOM     19  C   UNK A   5     146.875 162.715 189.180  0.00  0.00    +0.237 C 
ATOM     20  O   UNK A   5     147.468 163.389 190.035  0.00  0.00    -0.274 OA
ATOM     21  N   HYP A   6     146.646 161.375 189.401  0.00  0.00    -0.286 N 
ATOM     22  CD  HYP A   6     145.875 160.462 188.576  0.00  0.00    +0.042 C 
ATOM     23  CG  HYP A   6     145.408 159.368 189.533  0.00  0.00    +0.073 C 
ATOM     24  CB  HYP A   6     146.503 159.339 190.595  0.00  0.00    +0.002 C 
ATOM     25  CA  HYP A   6     146.912 160.801 190.728  0.00  0.00    +0.105 C 
ATOM     26  C   HYP A   6     148.376 160.908 191.194  0.00  0.00    +0.234 C 
ATOM     27  O   HYP A   6     148.653 161.014 192.386  0.00  0.00    -0.274 OA
ATOM     28  N   ALA A   7     149.328 160.783 190.209  0.00  0.00    -0.303 N 
ATOM     29  N   UNK A   5     146.427 164.801 188.076  0.00  0.00    -0.302 N 
ATOM     30  C   THR A   4     145.725 165.657 187.260  0.00  0.00    +0.237 C 
ATOM     31  O   THR A   4     145.095 165.239 186.289  0.00  0.00    -0.274 OA
ATOM     32  CA  THR A   4     145.962 167.157 187.529  0.00  0.00    +0.125 C 
ATOM     33  N   THR A   4     146.231 167.448 188.939  0.00  0.00    -0.300 N 
ATOM     34  C   ALA A   3     147.011 168.536 189.300  0.00  0.00    +0.234 C 
ATOM     35  O   ALA A   3     147.582 169.235 188.466  0.00  0.00    -0.274 OA
ATOM     36  CA  ALA A   3     147.101 168.786 190.818  0.00  0.00    +0.097 C 
ATOM     37  N   ALA A   3     147.923 167.753 191.421  0.00  0.00    -0.303 N 
ATOM     38  C   UNK A   2     147.396 166.594 191.936  0.00  0.00    +0.234 C 
ATOM     39  O   UNK A   2     146.202 166.300 191.812  0.00  0.00    -0.274 OA
ATOM     40  C   UNK A   2     148.416 165.661 192.633  0.00  0.00    +0.102 C 
ATOM     41  N   UNK A   2     149.211 164.982 191.606  0.00  0.00    -0.302 N 
ATOM     42  C   UNK A   1     150.197 165.565 190.837  0.00  0.00    +0.234 C 
ATOM     43  O   UNK A   1     150.477 166.759 190.927  0.00  0.00    -0.274 OA
ATOM     44  HA  ALA A   7     150.939 160.512 191.509  0.00  0.00    +0.059 HD
ATOM     45  H   UNK A   1     149.481 162.948 189.695  0.00  0.00    +0.150 HD
ATOM     46  H   UNK A   1     151.842 164.775 189.694  0.00  0.00    +0.060 HD
ATOM     47  H   UNK A   1     149.047 165.116 188.438  0.00  0.00    +0.034 HD
ATOM     48  H   UNK A   1     150.357 166.254 188.296  0.00  0.00    +0.034 HD
ATOM     49  H   UNK A   5     150.796 162.247 184.875  0.00  0.00    +0.166 HD
ATOM     50  H   UNK A   5     152.964 163.432 183.505  0.00  0.00    +0.064 HD
ATOM     51  H   UNK A   5     154.484 165.398 183.635  0.00  0.00    +0.062 HD
ATOM     52  H   UNK A   5     154.253 167.050 185.458  0.00  0.00    +0.062 HD
ATOM     53  H   UNK A   5     152.502 166.801 187.168  0.00  0.00    +0.062 HD
ATOM     54  H   UNK A   5     146.839 162.272 186.023  0.00  0.00    +0.040 HD
ATOM     55  H   UNK A   5     147.566 163.858 186.001  0.00  0.00    +0.040 HD
ATOM     56  H   UNK A   5     145.438 163.061 187.607  0.00  0.00    +0.060 HD
ATOM     57  HD1 HYP A   6     145.029 160.969 188.105  0.00  0.00    +0.049 HD
ATOM     58  HD2 HYP A   6     146.517 160.063 187.784  0.00  0.00    +0.049 HD
ATOM     59  HG  HYP A   6     144.445 159.629 189.995  0.00  0.00    +0.061 HD
ATOM     60  HB1 HYP A   6     146.138 158.922 191.542  0.00  0.00    +0.031 HD
ATOM     61  HB2 HYP A   6     147.336 158.699 190.276  0.00  0.00    +0.031 HD
ATOM     62  HA  HYP A   6     146.276 161.334 191.446  0.00  0.00    +0.060 HD
ATOM     63  H   ALA A   7     149.017 160.744 189.245  0.00  0.00    +0.149 HD
ATOM     64  H   UNK A   5     146.923 165.176 188.883  0.00  0.00    +0.150 HD
ATOM     65  HA  THR A   4     146.879 167.391 186.967  0.00  0.00    +0.062 HD
ATOM     66  H   THR A   4     145.797 166.902 189.688  0.00  0.00    +0.150 HD
ATOM     67  HA  ALA A   3     146.082 168.720 191.225  0.00  0.00    +0.059 HD
ATOM     68  H   ALA A   3     148.943 167.817 191.330  0.00  0.00    +0.149 HD
ATOM     69  H   UNK A   2     147.835 164.856 193.094  0.00  0.00    +0.060 HD
ATOM     70  H   UNK A   2     149.032 163.993 191.465  0.00  0.00    +0.150 HD
ENDROOT
BRANCH   1  71
ATOM     71  CB  ALA A   7     151.546 160.024 189.495  0.00  0.00    -0.038 C 
ATOM     72  HB1 ALA A   7     151.771 160.588 188.584  0.00  0.00    +0.025 HD
ATOM     73  HB2 ALA A   7     150.972 159.136 189.204  0.00  0.00    +0.025 HD
ATOM     74  HB3 ALA A   7     152.500 159.691 189.920  0.00  0.00    +0.025 HD
ENDBRANCH   1  71
BRANCH  36  75
ATOM     75  CB  ALA A   3     147.658 170.169 191.133  0.00  0.00    -0.038 C 
ATOM     76  HB1 ALA A   3     148.472 170.422 190.445  0.00  0.00    +0.025 HD
ATOM     77  HB2 ALA A   3     146.895 170.948 191.037  0.00  0.00    +0.025 HD
ATOM     78  HB3 ALA A   3     148.051 170.200 192.156  0.00  0.00    +0.025 HD
ENDBRANCH  36  75
BRANCH  40  79
ATOM     79  C   UNK A   2     149.276 166.325 193.724  0.00  0.00    +0.005 C 
ATOM     80  H   UNK A   2     149.879 167.109 193.249  0.00  0.00    +0.032 HD
ATOM     81  H   UNK A   2     148.623 166.835 194.447  0.00  0.00    +0.032 HD
BRANCH  79  82
ATOM     82  C   UNK A   2     150.208 165.370 194.509  0.00  0.00    +0.088 C 
BRANCH  82  83
ATOM     83  C   UNK A   2     149.838 165.441 195.999  0.00  0.00    -0.034 C 
ATOM     84  H   UNK A   2     148.749 165.401 196.120  0.00  0.00    +0.026 HD
ATOM     85  H   UNK A   2     150.242 164.581 196.550  0.00  0.00    +0.026 HD
ATOM     86  H   UNK A   2     150.204 166.357 196.475  0.00  0.00    +0.026 HD
ENDBRANCH  82  83
BRANCH  82  87
ATOM     87  C   UNK A   2     151.707 165.692 194.327  0.00  0.00    +0.073 C 
ATOM     88  H   UNK A   2     152.179 165.861 195.302  0.00  0.00    +0.059 HD
ATOM     89  H   UNK A   2     152.240 164.852 193.868  0.00  0.00    +0.059 HD
BRANCH  87  90
ATOM     90  O   UNK A   2     151.893 166.850 193.530  0.00  0.00    -0.392 OA
ATOM     91  H   UNK A   2     151.738 167.621 194.103  0.00  0.00    +0.210 HD
ENDBRANCH  87  90
ENDBRANCH  82  87
BRANCH  82  92
ATOM     92  O   UNK A   2     149.963 164.027 194.068  0.00  0.00    -0.387 OA
ATOM     93  H   UNK A   2     150.822 163.579 193.975  0.00  0.00    +0.210 HD
ENDBRANCH  82  92
ENDBRANCH  79  82
ENDBRANCH  40  79
BRANCH  23  94
ATOM     94  OD  HYP A   6     145.310 158.105 188.900  0.00  0.00    -0.390 OA
ATOM     95  HD  HYP A   6     145.709 157.430 189.481  0.00  0.00    +0.210 HD
ENDBRANCH  23  94
BRANCH  32  96
ATOM     96  CB  THR A   4     144.823 168.027 186.941  0.00  0.00    +0.079 C 
ATOM     97  HB  THR A   4     145.101 169.083 187.038  0.00  0.00    +0.061 HD
BRANCH  96  98
ATOM     98  CG2 THR A   4     143.474 167.833 187.634  0.00  0.00    -0.037 C 
ATOM     99 HG21 THR A   4     142.976 166.914 187.303  0.00  0.00    +0.026 HD
ATOM    100 HG22 THR A   4     143.575 167.801 188.724  0.00  0.00    +0.026 HD
ATOM    101 HG23 THR A   4     142.796 168.654 187.371  0.00  0.00    +0.026 HD
ENDBRANCH  96  98
BRANCH  96 102
ATOM    102  OG1 THR A   4     144.647 167.796 185.540  0.00  0.00    -0.390 OA
ATOM    103  HG1 THR A   4     143.687 167.843 185.350  0.00  0.00    +0.210 HD
ENDBRANCH  96 102
ENDBRANCH  32  96
TORSDOF 12
ENDMDL
MODEL 10
REMARK VINA RESULT:      -5.6      8.535     13.325
REMARK  Name = Phalloidin_conf3
REMARK  12 active torsions:
REMARK  status: ('A' for Active; 'I' for Inactive)
REMARK    1  A    between atoms: CB_1  and  CA_2
REMARK    2  A    between atoms: CG_24  and  OD_30
REMARK    3  A    between atoms: CA_34  and  CB_53
REMARK    4  A    between atoms: CA_38  and  CB_52
REMARK    5  A    between atoms: C_42  and  C_46
REMARK    6  A    between atoms: C_46  and  C_47
REMARK    7  A    between atoms: C_47  and  C_48
REMARK    8  A    between atoms: C_47  and  C_49
REMARK    9  A    between atoms: C_47  and  O_51
REMARK   10  A    between atoms: C_49  and  O_50
REMARK   11  A    between atoms: CB_53  and  CG2_54
REMARK   12  A    between atoms: CB_53  and  OG1_55
REMARK                            x       y       z     vdW  Elec       q    Type
REMARK                         _______ _______ _______ _____ _____    ______ ____
ROOT
ATOM      1  CA  ALA A   7     155.237 166.135 186.227  0.00  0.00    +0.097 C 
ATOM      2  C   ALA A   7     155.177 165.593 187.677  0.00  0.00    +0.234 C 
ATOM      3  O   ALA A   7     155.965 165.965 188.547  0.00  0.00    -0.274 OA
ATOM      4  N   UNK A   1     154.120 164.752 187.939  0.00  0.00    -0.302 N 
ATOM      5  C   UNK A   1     153.814 164.216 189.268  0.00  0.00    +0.103 C 
ATOM      6  C   UNK A   1     152.298 164.198 189.532  0.00  0.00    +0.002 C 
ATOM      7  C   UNK A   1     151.640 165.550 189.530  0.00  0.00    -0.006 A 
ATOM      8  C   UNK A   5     151.155 166.275 188.458  0.00  0.00    +0.078 A 
ATOM      9  N   UNK A   5     150.654 167.462 188.921  0.00  0.00    -0.349 N 
ATOM     10  C   UNK A   5     150.799 167.541 190.285  0.00  0.00    +0.048 A 
ATOM     11  C   UNK A   5     150.444 168.562 191.172  0.00  0.00    -0.038 A 
ATOM     12  C   UNK A   5     150.720 168.367 192.529  0.00  0.00    -0.060 A 
ATOM     13  C   UNK A   5     151.328 167.195 192.973  0.00  0.00    -0.061 A 
ATOM     14  C   UNK A   5     151.678 166.183 192.074  0.00  0.00    -0.052 A 
ATOM     15  C   UNK A   5     151.411 166.357 190.698  0.00  0.00    +0.004 A 
ATOM     16  S   UNK A   5     151.158 166.027 186.750  0.00  0.00    -0.105 S 
ATOM     17  C   UNK A   5     149.876 164.753 186.484  0.00  0.00    +0.027 C 
ATOM     18  C   UNK A   5     150.348 163.371 185.978  0.00  0.00    +0.109 C 
ATOM     19  C   UNK A   5     151.806 163.324 185.489  0.00  0.00    +0.237 C 
ATOM     20  O   UNK A   5     152.688 162.837 186.212  0.00  0.00    -0.274 OA
ATOM     21  N   HYP A   6     152.145 163.889 184.280  0.00  0.00    -0.286 N 
ATOM     22  CD  HYP A   6     151.247 164.399 183.259  0.00  0.00    +0.042 C 
ATOM     23  CG  HYP A   6     152.035 164.294 181.955  0.00  0.00    +0.073 C 
ATOM     24  CB  HYP A   6     153.486 164.434 182.410  0.00  0.00    +0.002 C 
ATOM     25  CA  HYP A   6     153.510 163.724 183.757  0.00  0.00    +0.105 C 
ATOM     26  C   HYP A   6     154.618 164.309 184.652  0.00  0.00    +0.234 C 
ATOM     27  O   HYP A   6     155.737 163.805 184.683  0.00  0.00    -0.274 OA
ATOM     28  N   ALA A   7     154.296 165.465 185.325  0.00  0.00    -0.303 N 
ATOM     29  N   UNK A   5     150.234 162.344 187.018  0.00  0.00    -0.302 N 
ATOM     30  C   THR A   4     149.023 161.812 187.395  0.00  0.00    +0.237 C 
ATOM     31  O   THR A   4     147.974 162.180 186.866  0.00  0.00    -0.274 OA
ATOM     32  CA  THR A   4     149.067 160.905 188.640  0.00  0.00    +0.125 C 
ATOM     33  N   THR A   4     150.329 160.171 188.768  0.00  0.00    -0.300 N 
ATOM     34  C   ALA A   3     150.806 159.797 190.014  0.00  0.00    +0.234 C 
ATOM     35  O   ALA A   3     150.253 160.143 191.056  0.00  0.00    -0.274 OA
ATOM     36  CA  ALA A   3     152.076 158.925 189.980  0.00  0.00    +0.097 C 
ATOM     37  N   ALA A   3     153.205 159.746 189.581  0.00  0.00    -0.303 N 
ATOM     38  C   UNK A   2     153.605 159.870 188.273  0.00  0.00    +0.234 C 
ATOM     39  O   UNK A   2     152.957 159.388 187.336  0.00  0.00    -0.274 OA
ATOM     40  C   UNK A   2     154.892 160.702 188.055  0.00  0.00    +0.102 C 
ATOM     41  N   UNK A   2     154.566 162.122 188.213  0.00  0.00    -0.302 N 
ATOM     42  C   UNK A   1     154.300 162.757 189.408  0.00  0.00    +0.234 C 
ATOM     43  O   UNK A   1     154.278 162.153 190.480  0.00  0.00    -0.274 OA
ATOM     44  HA  ALA A   7     156.254 165.945 185.865  0.00  0.00    +0.059 HD
ATOM     45  H   UNK A   1     153.506 164.500 187.174  0.00  0.00    +0.150 HD
ATOM     46  H   UNK A   1     154.328 164.821 190.025  0.00  0.00    +0.060 HD
ATOM     47  H   UNK A   1     151.796 163.557 188.803  0.00  0.00    +0.034 HD
ATOM     48  H   UNK A   1     152.108 163.730 190.506  0.00  0.00    +0.034 HD
ATOM     49  H   UNK A   5     150.261 168.185 188.338  0.00  0.00    +0.166 HD
ATOM     50  H   UNK A   5     149.966 169.476 190.832  0.00  0.00    +0.064 HD
ATOM     51  H   UNK A   5     150.446 169.134 193.250  0.00  0.00    +0.062 HD
ATOM     52  H   UNK A   5     151.529 167.057 194.036  0.00  0.00    +0.062 HD
ATOM     53  H   UNK A   5     152.132 165.274 192.453  0.00  0.00    +0.062 HD
ATOM     54  H   UNK A   5     149.225 165.182 185.712  0.00  0.00    +0.040 HD
ATOM     55  H   UNK A   5     149.255 164.668 187.380  0.00  0.00    +0.040 HD
ATOM     56  H   UNK A   5     149.691 163.043 185.163  0.00  0.00    +0.060 HD
ATOM     57  HD1 HYP A   6     150.324 163.817 183.215  0.00  0.00    +0.049 HD
ATOM     58  HD2 HYP A   6     150.986 165.435 183.494  0.00  0.00    +0.049 HD
ATOM     59  HG  HYP A   6     151.886 163.315 181.478  0.00  0.00    +0.061 HD
ATOM     60  HB1 HYP A   6     154.181 163.984 181.690  0.00  0.00    +0.031 HD
ATOM     61  HB2 HYP A   6     153.766 165.492 182.489  0.00  0.00    +0.031 HD
ATOM     62  HA  HYP A   6     153.685 162.646 183.642  0.00  0.00    +0.060 HD
ATOM     63  H   ALA A   7     153.337 165.792 185.282  0.00  0.00    +0.149 HD
ATOM     64  H   UNK A   5     151.086 162.004 187.461  0.00  0.00    +0.150 HD
ATOM     65  HA  THR A   4     149.011 161.605 189.488  0.00  0.00    +0.062 HD
ATOM     66  H   THR A   4     150.848 159.859 187.943  0.00  0.00    +0.150 HD
ATOM     67  HA  ALA A   3     151.918 158.139 189.228  0.00  0.00    +0.059 HD
ATOM     68  H   ALA A   3     153.630 160.372 190.274  0.00  0.00    +0.149 HD
ATOM     69  H   UNK A   2     155.148 160.605 186.995  0.00  0.00    +0.060 HD
ATOM     70  H   UNK A   2     154.557 162.688 187.370  0.00  0.00    +0.150 HD
ENDROOT
BRANCH   1  71
ATOM     71  CB  ALA A   7     154.966 167.638 186.237  0.00  0.00    -0.038 C 
ATOM     72  HB1 ALA A   7     155.824 168.195 185.847  0.00  0.00    +0.025 HD
ATOM     73  HB2 ALA A   7     154.772 167.995 187.255  0.00  0.00    +0.025 HD
ATOM     74  HB3 ALA A   7     154.099 167.890 185.615  0.00  0.00    +0.025 HD
ENDBRANCH   1  71
BRANCH  36  75
ATOM     75  CB  ALA A   3     152.344 158.260 191.324  0.00  0.00    -0.038 C 
ATOM     76  HB1 ALA A   3     152.845 157.295 191.184  0.00  0.00    +0.025 HD
ATOM     77  HB2 ALA A   3     152.989 158.873 191.962  0.00  0.00    +0.025 HD
ATOM     78  HB3 ALA A   3     151.404 158.084 191.859  0.00  0.00    +0.025 HD
ENDBRANCH  36  75
BRANCH  40  79
ATOM     79  C   UNK A   2     156.108 160.263 188.890  0.00  0.00    +0.005 C 
ATOM     80  H   UNK A   2     155.857 160.396 189.950  0.00  0.00    +0.032 HD
ATOM     81  H   UNK A   2     156.282 159.186 188.748  0.00  0.00    +0.032 HD
BRANCH  79  82
ATOM     82  C   UNK A   2     157.430 161.008 188.582  0.00  0.00    +0.088 C 
BRANCH  82  83
ATOM     83  C   UNK A   2     158.511 159.967 188.251  0.00  0.00    -0.034 C 
ATOM     84  H   UNK A   2     158.126 159.238 187.528  0.00  0.00    +0.026 HD
ATOM     85  H   UNK A   2     159.385 160.438 187.780  0.00  0.00    +0.026 HD
ATOM     86  H   UNK A   2     158.852 159.424 189.140  0.00  0.00    +0.026 HD
ENDBRANCH  82  83
BRANCH  82  87
ATOM     87  C   UNK A   2     157.909 161.908 189.741  0.00  0.00    +0.073 C 
ATOM     88  H   UNK A   2     158.973 161.734 189.941  0.00  0.00    +0.059 HD
ATOM     89  H   UNK A   2     157.812 162.968 189.485  0.00  0.00    +0.059 HD
BRANCH  87  90
ATOM     90  O   UNK A   2     157.181 161.650 190.930  0.00  0.00    -0.392 OA
ATOM     91  H   UNK A   2     157.812 161.306 191.585  0.00  0.00    +0.210 HD
ENDBRANCH  87  90
ENDBRANCH  82  87
BRANCH  82  92
ATOM     92  O   UNK A   2     157.238 161.816 187.413  0.00  0.00    -0.387 OA
ATOM     93  H   UNK A   2     158.026 161.722 186.849  0.00  0.00    +0.210 HD
ENDBRANCH  82  92
ENDBRANCH  79  82
ENDBRANCH  40  79
BRANCH  23  94
ATOM     94  OD  HYP A   6     151.708 165.326 181.044  0.00  0.00    -0.390 OA
ATOM     95  HD  HYP A   6     151.114 165.961 181.487  0.00  0.00    +0.210 HD
ENDBRANCH  23  94
BRANCH  32  96
ATOM     96  CB  THR A   4     147.825 159.983 188.717  0.00  0.00    +0.079 C 
ATOM     97  HB  THR A   4     147.834 159.457 189.679  0.00  0.00    +0.061 HD
BRANCH  96  98
ATOM     98  CG2 THR A   4     147.764 158.930 187.610  0.00  0.00    -0.037 C 
ATOM     99 HG21 THR A   4     147.727 159.389 186.615  0.00  0.00    +0.026 HD
ATOM    100 HG22 THR A   4     148.620 158.249 187.647  0.00  0.00    +0.026 HD
ATOM    101 HG23 THR A   4     146.844 158.341 187.703  0.00  0.00    +0.026 HD
ENDBRANCH  96  98
BRANCH  96 102
ATOM    102  OG1 THR A   4     146.605 160.732 188.693  0.00  0.00    -0.390 OA
ATOM    103  HG1 THR A   4     145.892 160.146 189.021  0.00  0.00    +0.210 HD
ENDBRANCH  96 102
ENDBRANCH  32  96
TORSDOF 12
ENDMDL
