MODEL 1
REMARK VINA RESULT:      -5.3      0.000      0.000
REMARK  Name = Reidispongiolide A_conf2
REMARK  33 active torsions:
REMARK  status: ('A' for Active; 'I' for Inactive)
REMARK    1  A    between atoms: C_1  and  C_2
REMARK    2  A    between atoms: C_5  and  O_67
REMARK    3  A    between atoms: C_7  and  O_65
REMARK    4  A    between atoms: C_8  and  C_64
REMARK    5  A    between atoms: C_17  and  O_62
REMARK    6  A    between atoms: C_19  and  C_61
REMARK    7  A    between atoms: C_26  and  C_38
REMARK    8  A    between atoms: C_27  and  C_37
REMARK    9  A    between atoms: C_30  and  O_35
REMARK   10  A    between atoms: C_32  and  O_33
REMARK   11  A    between atoms: O_33  and  C_34
REMARK   12  A    between atoms: O_35  and  C_36
REMARK   13  A    between atoms: C_38  and  C_39
REMARK   14  A    between atoms: C_38  and  C_40
REMARK   15  A    between atoms: C_40  and  C_41
REMARK   16  A    between atoms: C_40  and  O_59
REMARK   17  A    between atoms: C_41  and  C_42
REMARK   18  A    between atoms: C_41  and  C_43
REMARK   19  A    between atoms: C_43  and  C_44
REMARK   20  A    between atoms: C_44  and  C_45
REMARK   21  A    between atoms: C_45  and  C_47
REMARK   22  A    between atoms: C_47  and  C_48
REMARK   23  A    between atoms: C_47  and  C_49
REMARK   24  A    between atoms: C_49  and  C_50
REMARK   25  A    between atoms: C_49  and  O_57
REMARK   26  A    between atoms: C_50  and  C_51
REMARK   27  A    between atoms: C_52  and  N_53
REMARK   28  A    between atoms: N_53  and  C_54
REMARK   29  A    between atoms: O_57  and  C_58
REMARK   30  A    between atoms: O_59  and  C_60
REMARK   31  A    between atoms: O_62  and  C_63
REMARK   32  A    between atoms: O_65  and  C_66
REMARK   33  A    between atoms: O_67  and  C_68
REMARK                            x       y       z     vdW  Elec       q    Type
REMARK                         _______ _______ _______ _____ _____    ______ ____
ROOT
ATOM      1  C   UNL     1     147.199 165.691 185.206  0.00  0.00    +0.001 C 
ATOM      2  C   UNL     1     145.912 165.072 185.721  0.00  0.00    -0.080 C 
ATOM      3  C   UNL     1     145.798 164.370 186.866  0.00  0.00    -0.059 C 
ATOM      4  C   UNL     1     144.559 163.720 187.430  0.00  0.00    +0.079 C 
ATOM      5  C   UNL     1     144.844 162.291 187.951  0.00  0.00    +0.004 C 
ATOM      6  C   UNL     1     144.796 161.163 186.901  0.00  0.00    +0.067 C 
ATOM      7  C   UNL     1     146.128 160.412 186.599  0.00  0.00    +0.020 C 
ATOM      8  C   UNL     1     146.839 159.588 187.713  0.00  0.00    +0.112 C 
ATOM      9  C   UNL     1     147.695 160.373 188.715  0.00  0.00    +0.006 C 
ATOM     10  C   UNL     1     148.301 159.445 189.727  0.00  0.00    -0.057 C 
ATOM     11  C   UNL     1     147.693 158.268 189.970  0.00  0.00    +0.022 C 
ATOM     12  C   UNL     1     146.402 157.894 189.354  0.00  0.00    +0.332 C 
ATOM     13  O   UNL     1     145.786 156.915 189.750  0.00  0.00    -0.246 OA
ATOM     14  O   UNL     1     145.918 158.724 188.394  0.00  0.00    -0.458 OA
ATOM     15  C   UNL     1     149.477 159.910 190.564  0.00  0.00    -0.004 C 
ATOM     16  C   UNL     1     150.836 160.152 189.861  0.00  0.00    +0.066 C 
ATOM     17  C   UNL     1     150.994 161.535 189.169  0.00  0.00    -0.005 C 
ATOM     18  C   UNL     1     150.482 162.745 189.940  0.00  0.00    -0.070 C 
ATOM     19  C   UNL     1     149.438 163.451 189.464  0.00  0.00    -0.062 C 
ATOM     20  C   UNL     1     148.760 164.581 190.050  0.00  0.00    -0.055 C 
ATOM     21  C   UNL     1     148.275 164.623 191.305  0.00  0.00    +0.023 C 
ATOM     22  C   UNL     1     147.441 165.735 191.818  0.00  0.00    +0.332 C 
ATOM     23  O   UNL     1     147.107 165.827 192.987  0.00  0.00    -0.246 OA
ATOM     24  O   UNL     1     147.064 166.544 190.805  0.00  0.00    -0.457 OA
ATOM     25  C   UNL     1     146.113 167.618 191.068  0.00  0.00    +0.114 C 
ATOM     26  C   UNL     1     146.817 168.926 190.598  0.00  0.00    +0.012 C 
ATOM     27  C   UNL     1     147.396 168.845 189.196  0.00  0.00    -0.079 C 
ATOM     28  C   UNL     1     146.775 169.296 188.095  0.00  0.00    -0.059 C 
ATOM     29  C   UNL     1     147.375 169.323 186.715  0.00  0.00    +0.079 C 
ATOM     30  C   UNL     1     146.917 168.136 185.859  0.00  0.00    +0.004 C 
ATOM     31  C   UNL     1     147.726 166.848 186.112  0.00  0.00    +0.067 C 
ATOM     32  H   UNL     1     146.972 166.119 184.218  0.00  0.00    +0.037 HD
ATOM     33  H   UNL     1     145.035 165.207 185.088  0.00  0.00    +0.057 HD
ATOM     34  H   UNL     1     146.679 164.279 187.494  0.00  0.00    +0.059 HD
ATOM     35  H   UNL     1     144.286 164.338 188.292  0.00  0.00    +0.064 HD
ATOM     36  H   UNL     1     145.794 162.310 188.482  0.00  0.00    +0.032 HD
ATOM     37  H   UNL     1     144.085 162.085 188.722  0.00  0.00    +0.032 HD
ATOM     38  H   UNL     1     144.433 161.585 185.953  0.00  0.00    +0.060 HD
ATOM     39  H   UNL     1     145.838 159.641 185.867  0.00  0.00    +0.036 HD
ATOM     40  H   UNL     1     147.527 158.918 187.169  0.00  0.00    +0.074 HD
ATOM     41  H   UNL     1     147.119 161.110 189.276  0.00  0.00    +0.035 HD
ATOM     42  H   UNL     1     148.482 160.886 188.162  0.00  0.00    +0.035 HD
ATOM     43  H   UNL     1     148.044 157.576 190.726  0.00  0.00    +0.069 HD
ATOM     44  H   UNL     1     149.651 159.161 191.350  0.00  0.00    +0.034 HD
ATOM     45  H   UNL     1     149.168 160.799 191.126  0.00  0.00    +0.034 HD
ATOM     46  H   UNL     1     150.975 159.367 189.104  0.00  0.00    +0.060 HD
ATOM     47  H   UNL     1     150.505 161.486 188.188  0.00  0.00    +0.034 HD
ATOM     48  H   UNL     1     152.052 161.725 188.938  0.00  0.00    +0.034 HD
ATOM     49  H   UNL     1     149.020 163.171 188.496  0.00  0.00    +0.062 HD
ATOM     50  H   UNL     1     148.553 165.393 189.353  0.00  0.00    +0.062 HD
ATOM     51  H   UNL     1     148.434 163.816 192.011  0.00  0.00    +0.069 HD
ATOM     52  H   UNL     1     145.915 167.691 192.145  0.00  0.00    +0.074 HD
ATOM     53  H   UNL     1     146.127 169.770 190.630  0.00  0.00    +0.038 HD
ATOM     54  H   UNL     1     148.392 168.418 189.111  0.00  0.00    +0.057 HD
ATOM     55  H   UNL     1     145.774 169.721 188.183  0.00  0.00    +0.059 HD
ATOM     56  H   UNL     1     148.471 169.353 186.760  0.00  0.00    +0.064 HD
ATOM     57  H   UNL     1     147.019 168.415 184.800  0.00  0.00    +0.032 HD
ATOM     58  H   UNL     1     145.849 167.950 186.023  0.00  0.00    +0.032 HD
ATOM     59  H   UNL     1     147.631 166.571 187.169  0.00  0.00    +0.060 HD
ENDROOT
BRANCH   1  60
ATOM     60  C   UNL     1     148.243 164.602 184.934  0.00  0.00    -0.057 C 
ATOM     61  H   UNL     1     149.020 164.604 185.707  0.00  0.00    +0.024 HD
ATOM     62  H   UNL     1     148.730 164.739 183.966  0.00  0.00    +0.024 HD
ATOM     63  H   UNL     1     147.788 163.605 184.946  0.00  0.00    +0.024 HD
ENDBRANCH   1  60
BRANCH  26  64
ATOM     64  C   UNL     1     147.952 169.290 191.570  0.00  0.00    -0.056 C 
ATOM     65  H   UNL     1     147.570 169.536 192.565  0.00  0.00    +0.024 HD
ATOM     66  H   UNL     1     148.515 170.153 191.199  0.00  0.00    +0.024 HD
ATOM     67  H   UNL     1     148.653 168.454 191.677  0.00  0.00    +0.024 HD
ENDBRANCH  26  64
BRANCH  18  68
ATOM     68  C   UNL     1     151.241 163.075 191.197  0.00  0.00    -0.043 C 
ATOM     69  H   UNL     1     150.718 162.670 192.074  0.00  0.00    +0.027 HD
ATOM     70  H   UNL     1     152.250 162.646 191.214  0.00  0.00    +0.027 HD
ATOM     71  H   UNL     1     151.335 164.160 191.321  0.00  0.00    +0.027 HD
ENDBRANCH  18  68
BRANCH   7  72
ATOM     72  C   UNL     1     147.115 161.316 185.859  0.00  0.00    -0.057 C 
ATOM     73  H   UNL     1     146.775 162.358 185.883  0.00  0.00    +0.023 HD
ATOM     74  H   UNL     1     147.197 161.024 184.804  0.00  0.00    +0.023 HD
ATOM     75  H   UNL     1     148.114 161.272 186.298  0.00  0.00    +0.023 HD
ENDBRANCH   7  72
BRANCH  25  76
ATOM     76  C   UNL     1     144.766 167.250 190.358  0.00  0.00    +0.020 C 
ATOM     77  H   UNL     1     144.861 167.545 189.308  0.00  0.00    +0.036 HD
BRANCH  76  78
ATOM     78  C   UNL     1     144.580 165.715 190.363  0.00  0.00    -0.057 C 
ATOM     79  H   UNL     1     144.998 165.262 191.264  0.00  0.00    +0.023 HD
ATOM     80  H   UNL     1     143.516 165.451 190.312  0.00  0.00    +0.023 HD
ATOM     81  H   UNL     1     145.079 165.234 189.519  0.00  0.00    +0.023 HD
ENDBRANCH  76  78
BRANCH  76  82
ATOM     82  C   UNL     1     143.486 167.896 190.984  0.00  0.00    +0.067 C 
ATOM     83  H   UNL     1     142.648 167.222 190.759  0.00  0.00    +0.060 HD
BRANCH  82  84
ATOM     84  C   UNL     1     143.144 169.302 190.386  0.00  0.00    -0.017 C 
ATOM     85  H   UNL     1     144.046 169.718 189.923  0.00  0.00    +0.032 HD
BRANCH  84  86
ATOM     86  C   UNL     1     142.106 169.151 189.262  0.00  0.00    -0.060 C 
ATOM     87  H   UNL     1     141.373 169.962 189.296  0.00  0.00    +0.023 HD
ATOM     88  H   UNL     1     141.546 168.216 189.365  0.00  0.00    +0.023 HD
ATOM     89  H   UNL     1     142.578 169.154 188.273  0.00  0.00    +0.023 HD
ENDBRANCH  84  86
BRANCH  84  90
ATOM     90  C   UNL     1     142.640 170.303 191.453  0.00  0.00    -0.041 C 
ATOM     91  H   UNL     1     143.414 171.044 191.674  0.00  0.00    +0.027 HD
ATOM     92  H   UNL     1     142.445 169.781 192.398  0.00  0.00    +0.027 HD
BRANCH  90  93
ATOM     93  C   UNL     1     141.384 171.058 191.025  0.00  0.00    +0.007 C 
ATOM     94  H   UNL     1     141.289 171.073 189.935  0.00  0.00    +0.034 HD
ATOM     95  H   UNL     1     140.478 170.578 191.412  0.00  0.00    +0.034 HD
BRANCH  93  96
ATOM     96  C   UNL     1     141.395 172.476 191.560  0.00  0.00    +0.139 C 
ATOM     97  O   UNL     1     140.899 172.726 192.661  0.00  0.00    -0.297 OA
BRANCH  96  98
ATOM     98  C   UNL     1     142.062 173.554 190.709  0.00  0.00    +0.041 C 
ATOM     99  H   UNL     1     141.444 174.458 190.801  0.00  0.00    +0.040 HD
BRANCH  98 100
ATOM    100  C   UNL     1     142.002 173.172 189.223  0.00  0.00    -0.053 C 
ATOM    101  H   UNL     1     141.175 173.677 188.712  0.00  0.00    +0.024 HD
ATOM    102  H   UNL     1     141.845 172.093 189.112  0.00  0.00    +0.024 HD
ATOM    103  H   UNL     1     142.932 173.421 188.701  0.00  0.00    +0.024 HD
ENDBRANCH  98 100
BRANCH  98 104
ATOM    104  C   UNL     1     143.486 173.912 191.197  0.00  0.00    +0.071 C 
ATOM    105  H   UNL     1     143.551 173.642 192.261  0.00  0.00    +0.061 HD
BRANCH 104 106
ATOM    106  C   UNL     1     144.626 173.207 190.416  0.00  0.00    -0.006 C 
ATOM    107  H   UNL     1     144.246 172.324 189.886  0.00  0.00    +0.033 HD
ATOM    108  H   UNL     1     145.010 173.865 189.629  0.00  0.00    +0.033 HD
BRANCH 106 109
ATOM    109  C   UNL     1     145.783 172.859 191.310  0.00  0.00    -0.067 C 
ATOM    110  C   UNL     1     146.914 173.574 191.375  0.00  0.00    -0.005 C 
ATOM    111  H   UNL     1     145.651 171.967 191.913  0.00  0.00    +0.059 HD
ATOM    112  H   UNL     1     146.992 174.480 190.776  0.00  0.00    +0.078 HD
BRANCH 110 113
ATOM    113  N   UNL     1     148.037 173.281 192.130  0.00  0.00    -0.284 N 
ATOM    114  C   UNL     1     148.158 173.486 193.502  0.00  0.00    +0.206 C 
ATOM    115  O   UNL     1     147.312 173.870 194.301  0.00  0.00    -0.279 OA
ATOM    116  H   UNL     1     149.169 173.231 193.866  0.00  0.00    +0.126 HD
BRANCH 113 117
ATOM    117  C   UNL     1     149.121 172.597 191.435  0.00  0.00    +0.007 C 
ATOM    118  H   UNL     1     148.811 171.567 191.229  0.00  0.00    +0.043 HD
ATOM    119  H   UNL     1     149.342 173.115 190.499  0.00  0.00    +0.043 HD
ATOM    120  H   UNL     1     150.031 172.565 192.042  0.00  0.00    +0.043 HD
ENDBRANCH 113 117
ENDBRANCH 110 113
ENDBRANCH 106 109
ENDBRANCH 104 106
BRANCH 104 121
ATOM    121  O   UNL     1     143.649 175.338 191.089  0.00  0.00    -0.379 OA
BRANCH 121 122
ATOM    122  C   UNL     1     142.660 176.075 191.802  0.00  0.00    +0.037 C 
ATOM    123  H   UNL     1     142.528 175.647 192.800  0.00  0.00    +0.052 HD
ATOM    124  H   UNL     1     142.924 177.134 191.887  0.00  0.00    +0.052 HD
ATOM    125  H   UNL     1     141.716 175.987 191.260  0.00  0.00    +0.052 HD
ENDBRANCH 121 122
ENDBRANCH 104 121
ENDBRANCH  98 104
ENDBRANCH  96  98
ENDBRANCH  93  96
ENDBRANCH  90  93
ENDBRANCH  84  90
ENDBRANCH  82  84
BRANCH  82 126
ATOM    126  O   UNL     1     143.610 168.046 192.397  0.00  0.00    -0.379 OA
BRANCH 126 127
ATOM    127  C   UNL     1     142.840 167.104 193.135  0.00  0.00    +0.037 C 
ATOM    128  H   UNL     1     141.893 166.954 192.612  0.00  0.00    +0.052 HD
ATOM    129  H   UNL     1     143.358 166.145 193.203  0.00  0.00    +0.052 HD
ATOM    130  H   UNL     1     142.627 167.486 194.138  0.00  0.00    +0.052 HD
ENDBRANCH 126 127
ENDBRANCH  82 126
ENDBRANCH  76  82
ENDBRANCH  25  76
BRANCH  31 131
ATOM    131  O   UNL     1     149.098 167.131 185.798  0.00  0.00    -0.379 OA
BRANCH 131 132
ATOM    132  C   UNL     1     149.979 166.966 186.903  0.00  0.00    +0.037 C 
ATOM    133  H   UNL     1     150.309 167.931 187.298  0.00  0.00    +0.052 HD
ATOM    134  H   UNL     1     149.441 166.434 187.693  0.00  0.00    +0.052 HD
ATOM    135  H   UNL     1     150.846 166.367 186.613  0.00  0.00    +0.052 HD
ENDBRANCH 131 132
ENDBRANCH  31 131
BRANCH  29 136
ATOM    136  O   UNL     1     146.892 170.516 186.078  0.00  0.00    -0.376 OA
BRANCH 136 137
ATOM    137  C   UNL     1     147.318 170.618 184.724  0.00  0.00    +0.037 C 
ATOM    138  H   UNL     1     148.397 170.449 184.641  0.00  0.00    +0.052 HD
ATOM    139  H   UNL     1     147.093 171.627 184.369  0.00  0.00    +0.052 HD
ATOM    140  H   UNL     1     146.776 169.899 184.098  0.00  0.00    +0.052 HD
ENDBRANCH 136 137
ENDBRANCH  29 136
BRANCH  16 141
ATOM    141  O   UNL     1     151.853 159.982 190.869  0.00  0.00    -0.379 OA
BRANCH 141 142
ATOM    142  C   UNL     1     152.038 158.634 191.286  0.00  0.00    +0.037 C 
ATOM    143  H   UNL     1     151.112 158.220 191.693  0.00  0.00    +0.052 HD
ATOM    144  H   UNL     1     152.318 158.043 190.411  0.00  0.00    +0.052 HD
ATOM    145  H   UNL     1     152.842 158.557 192.024  0.00  0.00    +0.052 HD
ENDBRANCH 141 142
ENDBRANCH  16 141
BRANCH   6 146
ATOM    146  O   UNL     1     143.805 160.233 187.375  0.00  0.00    -0.379 OA
BRANCH 146 147
ATOM    147  C   UNL     1     143.145 159.516 186.339  0.00  0.00    +0.037 C 
ATOM    148  H   UNL     1     142.855 158.513 186.666  0.00  0.00    +0.052 HD
ATOM    149  H   UNL     1     142.241 160.066 186.067  0.00  0.00    +0.052 HD
ATOM    150  H   UNL     1     143.787 159.449 185.455  0.00  0.00    +0.052 HD
ENDBRANCH 146 147
ENDBRANCH   6 146
BRANCH   4 151
ATOM    151  O   UNL     1     143.488 163.775 186.489  0.00  0.00    -0.376 OA
BRANCH 151 152
ATOM    152  C   UNL     1     142.207 163.861 187.104  0.00  0.00    +0.037 C 
ATOM    153  H   UNL     1     141.795 164.870 186.998  0.00  0.00    +0.052 HD
ATOM    154  H   UNL     1     141.537 163.161 186.596  0.00  0.00    +0.052 HD
ATOM    155  H   UNL     1     142.259 163.580 188.159  0.00  0.00    +0.052 HD
ENDBRANCH 151 152
ENDBRANCH   4 151
TORSDOF 33
ENDMDL
MODEL 2
REMARK VINA RESULT:      -5.1      2.411      6.411
REMARK  Name = Reidispongiolide A_conf2
REMARK  33 active torsions:
REMARK  status: ('A' for Active; 'I' for Inactive)
REMARK    1  A    between atoms: C_1  and  C_2
REMARK    2  A    between atoms: C_5  and  O_67
REMARK    3  A    between atoms: C_7  and  O_65
REMARK    4  A    between atoms: C_8  and  C_64
REMARK    5  A    between atoms: C_17  and  O_62
REMARK    6  A    between atoms: C_19  and  C_61
REMARK    7  A    between atoms: C_26  and  C_38
REMARK    8  A    between atoms: C_27  and  C_37
REMARK    9  A    between atoms: C_30  and  O_35
REMARK   10  A    between atoms: C_32  and  O_33
REMARK   11  A    between atoms: O_33  and  C_34
REMARK   12  A    between atoms: O_35  and  C_36
REMARK   13  A    between atoms: C_38  and  C_39
REMARK   14  A    between atoms: C_38  and  C_40
REMARK   15  A    between atoms: C_40  and  C_41
REMARK   16  A    between atoms: C_40  and  O_59
REMARK   17  A    between atoms: C_41  and  C_42
REMARK   18  A    between atoms: C_41  and  C_43
REMARK   19  A    between atoms: C_43  and  C_44
REMARK   20  A    between atoms: C_44  and  C_45
REMARK   21  A    between atoms: C_45  and  C_47
REMARK   22  A    between atoms: C_47  and  C_48
REMARK   23  A    between atoms: C_47  and  C_49
REMARK   24  A    between atoms: C_49  and  C_50
REMARK   25  A    between atoms: C_49  and  O_57
REMARK   26  A    between atoms: C_50  and  C_51
REMARK   27  A    between atoms: C_52  and  N_53
REMARK   28  A    between atoms: N_53  and  C_54
REMARK   29  A    between atoms: O_57  and  C_58
REMARK   30  A    between atoms: O_59  and  C_60
REMARK   31  A    between atoms: O_62  and  C_63
REMARK   32  A    between atoms: O_65  and  C_66
REMARK   33  A    between atoms: O_67  and  C_68
REMARK                            x       y       z     vdW  Elec       q    Type
REMARK                         _______ _______ _______ _____ _____    ______ ____
ROOT
ATOM      1  C   UNL     1     149.258 167.230 186.318  0.00  0.00    +0.001 C 
ATOM      2  C   UNL     1     148.261 167.598 187.404  0.00  0.00    -0.080 C 
ATOM      3  C   UNL     1     147.439 166.729 188.022  0.00  0.00    -0.059 C 
ATOM      4  C   UNL     1     146.420 167.026 189.095  0.00  0.00    +0.079 C 
ATOM      5  C   UNL     1     145.076 166.307 188.828  0.00  0.00    +0.004 C 
ATOM      6  C   UNL     1     144.095 167.031 187.884  0.00  0.00    +0.067 C 
ATOM      7  C   UNL     1     143.770 166.339 186.526  0.00  0.00    +0.020 C 
ATOM      8  C   UNL     1     143.057 164.955 186.497  0.00  0.00    +0.112 C 
ATOM      9  C   UNL     1     143.934 163.718 186.735  0.00  0.00    +0.006 C 
ATOM     10  C   UNL     1     143.104 162.469 186.687  0.00  0.00    -0.057 C 
ATOM     11  C   UNL     1     141.788 162.557 186.956  0.00  0.00    +0.022 C 
ATOM     12  C   UNL     1     141.144 163.816 187.391  0.00  0.00    +0.332 C 
ATOM     13  O   UNL     1     139.999 163.812 187.818  0.00  0.00    -0.246 OA
ATOM     14  O   UNL     1     141.909 164.938 187.357  0.00  0.00    -0.458 OA
ATOM     15  C   UNL     1     143.780 161.124 186.501  0.00  0.00    -0.004 C 
ATOM     16  C   UNL     1     144.456 160.817 185.141  0.00  0.00    +0.066 C 
ATOM     17  C   UNL     1     145.894 161.378 184.966  0.00  0.00    -0.005 C 
ATOM     18  C   UNL     1     146.831 161.234 186.159  0.00  0.00    -0.070 C 
ATOM     19  C   UNL     1     147.273 162.332 186.801  0.00  0.00    -0.062 C 
ATOM     20  C   UNL     1     148.108 162.426 187.974  0.00  0.00    -0.055 C 
ATOM     21  C   UNL     1     147.884 161.781 189.134  0.00  0.00    +0.023 C 
ATOM     22  C   UNL     1     148.667 162.030 190.367  0.00  0.00    +0.332 C 
ATOM     23  O   UNL     1     148.541 161.359 191.377  0.00  0.00    -0.246 OA
ATOM     24  O   UNL     1     149.446 163.122 190.216  0.00  0.00    -0.457 OA
ATOM     25  C   UNL     1     150.187 163.633 191.363  0.00  0.00    +0.114 C 
ATOM     26  C   UNL     1     151.679 163.669 190.917  0.00  0.00    +0.012 C 
ATOM     27  C   UNL     1     151.907 164.362 189.584  0.00  0.00    -0.079 C 
ATOM     28  C   UNL     1     152.286 165.643 189.455  0.00  0.00    -0.059 C 
ATOM     29  C   UNL     1     152.621 166.317 188.151  0.00  0.00    +0.079 C 
ATOM     30  C   UNL     1     151.451 167.148 187.609  0.00  0.00    +0.004 C 
ATOM     31  C   UNL     1     150.412 166.314 186.834  0.00  0.00    +0.067 C 
ATOM     32  H   UNL     1     149.710 168.170 185.970  0.00  0.00    +0.037 HD
ATOM     33  H   UNL     1     148.220 168.654 187.669  0.00  0.00    +0.057 HD
ATOM     34  H   UNL     1     147.524 165.677 187.762  0.00  0.00    +0.059 HD
ATOM     35  H   UNL     1     146.847 166.602 190.010  0.00  0.00    +0.064 HD
ATOM     36  H   UNL     1     145.296 165.297 188.487  0.00  0.00    +0.032 HD
ATOM     37  H   UNL     1     144.591 166.182 189.809  0.00  0.00    +0.032 HD
ATOM     38  H   UNL     1     144.500 168.027 187.658  0.00  0.00    +0.060 HD
ATOM     39  H   UNL     1     143.031 167.008 186.057  0.00  0.00    +0.036 HD
ATOM     40  H   UNL     1     142.660 164.865 185.471  0.00  0.00    +0.074 HD
ATOM     41  H   UNL     1     144.424 163.729 187.709  0.00  0.00    +0.035 HD
ATOM     42  H   UNL     1     144.697 163.688 185.956  0.00  0.00    +0.035 HD
ATOM     43  H   UNL     1     141.141 161.689 186.995  0.00  0.00    +0.069 HD
ATOM     44  H   UNL     1     143.028 160.340 186.670  0.00  0.00    +0.034 HD
ATOM     45  H   UNL     1     144.488 160.978 187.326  0.00  0.00    +0.034 HD
ATOM     46  H   UNL     1     143.822 161.230 184.342  0.00  0.00    +0.060 HD
ATOM     47  H   UNL     1     145.818 162.435 184.680  0.00  0.00    +0.034 HD
ATOM     48  H   UNL     1     146.388 160.898 184.109  0.00  0.00    +0.034 HD
ATOM     49  H   UNL     1     146.994 163.311 186.410  0.00  0.00    +0.062 HD
ATOM     50  H   UNL     1     148.903 163.170 187.902  0.00  0.00    +0.062 HD
ATOM     51  H   UNL     1     147.081 161.063 189.247  0.00  0.00    +0.069 HD
ATOM     52  H   UNL     1     150.089 162.943 192.213  0.00  0.00    +0.074 HD
ATOM     53  H   UNL     1     152.296 164.166 191.666  0.00  0.00    +0.038 HD
ATOM     54  H   UNL     1     151.778 163.750 188.695  0.00  0.00    +0.057 HD
ATOM     55  H   UNL     1     152.411 166.256 190.348  0.00  0.00    +0.059 HD
ATOM     56  H   UNL     1     152.942 165.586 187.398  0.00  0.00    +0.064 HD
ATOM     57  H   UNL     1     151.858 167.918 186.938  0.00  0.00    +0.032 HD
ATOM     58  H   UNL     1     150.966 167.686 188.432  0.00  0.00    +0.032 HD
ATOM     59  H   UNL     1     150.009 165.540 187.499  0.00  0.00    +0.060 HD
ENDROOT
BRANCH   1  60
ATOM     60  C   UNL     1     148.528 166.665 185.093  0.00  0.00    -0.057 C 
ATOM     61  H   UNL     1     147.898 165.815 185.373  0.00  0.00    +0.024 HD
ATOM     62  H   UNL     1     149.227 166.330 184.324  0.00  0.00    +0.024 HD
ATOM     63  H   UNL     1     147.867 167.416 184.647  0.00  0.00    +0.024 HD
ENDBRANCH   1  60
BRANCH  26  64
ATOM     64  C   UNL     1     152.232 162.237 190.818  0.00  0.00    -0.056 C 
ATOM     65  H   UNL     1     153.046 162.166 190.090  0.00  0.00    +0.024 HD
ATOM     66  H   UNL     1     151.443 161.540 190.515  0.00  0.00    +0.024 HD
ATOM     67  H   UNL     1     152.619 161.903 191.788  0.00  0.00    +0.024 HD
ENDBRANCH  26  64
BRANCH  18  68
ATOM     68  C   UNL     1     147.220 159.821 186.503  0.00  0.00    -0.043 C 
ATOM     69  H   UNL     1     148.088 159.819 187.175  0.00  0.00    +0.027 HD
ATOM     70  H   UNL     1     146.426 159.272 187.023  0.00  0.00    +0.027 HD
ATOM     71  H   UNL     1     147.481 159.259 185.599  0.00  0.00    +0.027 HD
ENDBRANCH  18  68
BRANCH   7  72
ATOM     72  C   UNL     1     144.981 166.361 185.592  0.00  0.00    -0.057 C 
ATOM     73  H   UNL     1     145.803 165.771 186.014  0.00  0.00    +0.023 HD
ATOM     74  H   UNL     1     145.351 167.386 185.456  0.00  0.00    +0.023 HD
ATOM     75  H   UNL     1     144.741 165.957 184.606  0.00  0.00    +0.023 HD
ENDBRANCH   7  72
BRANCH  25  76
ATOM     76  C   UNL     1     149.544 164.999 191.780  0.00  0.00    +0.020 C 
ATOM     77  H   UNL     1     149.946 165.765 191.110  0.00  0.00    +0.036 HD
BRANCH  76  78
ATOM     78  C   UNL     1     148.020 164.954 191.525  0.00  0.00    -0.057 C 
ATOM     79  H   UNL     1     147.789 164.541 190.540  0.00  0.00    +0.023 HD
ATOM     80  H   UNL     1     147.516 164.336 192.279  0.00  0.00    +0.023 HD
ATOM     81  H   UNL     1     147.565 165.945 191.555  0.00  0.00    +0.023 HD
ENDBRANCH  76  78
BRANCH  76  82
ATOM     82  C   UNL     1     149.775 165.415 193.271  0.00  0.00    +0.067 C 
ATOM     83  H   UNL     1     148.827 165.244 193.799  0.00  0.00    +0.060 HD
BRANCH  82  84
ATOM     84  C   UNL     1     150.154 166.924 193.443  0.00  0.00    -0.017 C 
ATOM     85  H   UNL     1     150.423 167.104 194.490  0.00  0.00    +0.032 HD
BRANCH  84  86
ATOM     86  C   UNL     1     151.407 167.244 192.610  0.00  0.00    -0.060 C 
ATOM     87  H   UNL     1     151.147 167.401 191.559  0.00  0.00    +0.023 HD
ATOM     88  H   UNL     1     152.121 166.415 192.637  0.00  0.00    +0.023 HD
ATOM     89  H   UNL     1     151.918 168.141 192.976  0.00  0.00    +0.023 HD
ENDBRANCH  84  86
BRANCH  84  90
ATOM     90  C   UNL     1     148.998 167.881 193.066  0.00  0.00    -0.041 C 
ATOM     91  H   UNL     1     148.811 168.588 193.880  0.00  0.00    +0.027 HD
ATOM     92  H   UNL     1     148.067 167.316 192.938  0.00  0.00    +0.027 HD
BRANCH  90  93
ATOM     93  C   UNL     1     149.275 168.692 191.803  0.00  0.00    +0.007 C 
ATOM     94  H   UNL     1     150.347 168.720 191.582  0.00  0.00    +0.034 HD
ATOM     95  H   UNL     1     148.787 168.247 190.928  0.00  0.00    +0.034 HD
BRANCH  93  96
ATOM     96  C   UNL     1     148.740 170.104 191.936  0.00  0.00    +0.139 C 
ATOM     97  O   UNL     1     147.582 170.293 192.318  0.00  0.00    -0.297 OA
BRANCH  96  98
ATOM     98  C   UNL     1     149.686 171.258 191.615  0.00  0.00    +0.041 C 
ATOM     99  H   UNL     1     149.552 171.491 190.551  0.00  0.00    +0.040 HD
BRANCH  98 100
ATOM    100  C   UNL     1     151.145 170.805 191.752  0.00  0.00    -0.053 C 
ATOM    101  H   UNL     1     151.560 171.077 192.729  0.00  0.00    +0.024 HD
ATOM    102  H   UNL     1     151.768 171.285 190.988  0.00  0.00    +0.024 HD
ATOM    103  H   UNL     1     151.250 169.723 191.624  0.00  0.00    +0.024 HD
ENDBRANCH  98 100
BRANCH  98 104
ATOM    104  C   UNL     1     149.361 172.542 192.417  0.00  0.00    +0.071 C 
ATOM    105  H   UNL     1     150.294 172.886 192.886  0.00  0.00    +0.061 HD
BRANCH 104 106
ATOM    106  C   UNL     1     148.757 173.691 191.568  0.00  0.00    -0.006 C 
ATOM    107  H   UNL     1     148.371 174.490 192.214  0.00  0.00    +0.033 HD
ATOM    108  H   UNL     1     149.538 174.169 190.965  0.00  0.00    +0.033 HD
BRANCH 106 109
ATOM    109  C   UNL     1     147.705 173.191 190.620  0.00  0.00    -0.067 C 
ATOM    110  C   UNL     1     146.389 173.316 190.836  0.00  0.00    -0.005 C 
ATOM    111  H   UNL     1     148.080 172.702 189.726  0.00  0.00    +0.059 HD
ATOM    112  H   UNL     1     146.056 173.841 191.731  0.00  0.00    +0.078 HD
BRANCH 110 113
ATOM    113  N   UNL     1     145.368 172.830 190.037  0.00  0.00    -0.284 N 
ATOM    114  C   UNL     1     144.039 172.687 190.431  0.00  0.00    +0.206 C 
ATOM    115  O   UNL     1     143.507 173.022 191.483  0.00  0.00    -0.279 OA
ATOM    116  H   UNL     1     143.426 172.223 189.639  0.00  0.00    +0.126 HD
BRANCH 113 117
ATOM    117  C   UNL     1     145.707 172.566 188.644  0.00  0.00    +0.007 C 
ATOM    118  H   UNL     1     146.656 173.062 188.414  0.00  0.00    +0.043 HD
ATOM    119  H   UNL     1     145.801 171.488 188.487  0.00  0.00    +0.043 HD
ATOM    120  H   UNL     1     144.944 172.955 187.963  0.00  0.00    +0.043 HD
ENDBRANCH 113 117
ENDBRANCH 110 113
ENDBRANCH 106 109
ENDBRANCH 104 106
BRANCH 104 121
ATOM    121  O   UNL     1     148.439 172.191 193.465  0.00  0.00    -0.379 OA
BRANCH 121 122
ATOM    122  C   UNL     1     147.957 173.316 194.193  0.00  0.00    +0.037 C 
ATOM    123  H   UNL     1     147.844 174.172 193.521  0.00  0.00    +0.052 HD
ATOM    124  H   UNL     1     147.001 173.105 194.684  0.00  0.00    +0.052 HD
ATOM    125  H   UNL     1     148.697 173.570 194.955  0.00  0.00    +0.052 HD
ENDBRANCH 121 122
ENDBRANCH 104 121
ENDBRANCH  98 104
ENDBRANCH  96  98
ENDBRANCH  93  96
ENDBRANCH  90  93
ENDBRANCH  84  90
ENDBRANCH  82  84
BRANCH  82 126
ATOM    126  O   UNL     1     150.805 164.638 193.880  0.00  0.00    -0.379 OA
BRANCH 126 127
ATOM    127  C   UNL     1     150.898 164.826 195.287  0.00  0.00    +0.037 C 
ATOM    128  H   UNL     1     150.376 164.000 195.776  0.00  0.00    +0.052 HD
ATOM    129  H   UNL     1     151.939 164.825 195.614  0.00  0.00    +0.052 HD
ATOM    130  H   UNL     1     150.415 165.764 195.580  0.00  0.00    +0.052 HD
ENDBRANCH 126 127
ENDBRANCH  82 126
ENDBRANCH  76  82
ENDBRANCH  25  76
BRANCH  31 131
ATOM    131  O   UNL     1     151.089 165.705 185.723  0.00  0.00    -0.379 OA
BRANCH 131 132
ATOM    132  C   UNL     1     151.056 164.283 185.748  0.00  0.00    +0.037 C 
ATOM    133  H   UNL     1     151.946 163.872 186.232  0.00  0.00    +0.052 HD
ATOM    134  H   UNL     1     150.175 163.971 186.318  0.00  0.00    +0.052 HD
ATOM    135  H   UNL     1     150.968 163.885 184.734  0.00  0.00    +0.052 HD
ENDBRANCH 131 132
ENDBRANCH  31 131
BRANCH  29 136
ATOM    136  O   UNL     1     153.698 167.227 188.420  0.00  0.00    -0.376 OA
BRANCH 136 137
ATOM    137  C   UNL     1     154.854 166.566 188.922  0.00  0.00    +0.037 C 
ATOM    138  H   UNL     1     154.963 165.575 188.469  0.00  0.00    +0.052 HD
ATOM    139  H   UNL     1     154.739 166.447 190.003  0.00  0.00    +0.052 HD
ATOM    140  H   UNL     1     155.750 167.168 188.731  0.00  0.00    +0.052 HD
ENDBRANCH 136 137
ENDBRANCH  29 136
BRANCH  16 141
ATOM    141  O   UNL     1     144.463 159.382 185.003  0.00  0.00    -0.379 OA
BRANCH 141 142
ATOM    142  C   UNL     1     143.672 158.701 185.971  0.00  0.00    +0.037 C 
ATOM    143  H   UNL     1     143.345 157.727 185.596  0.00  0.00    +0.052 HD
ATOM    144  H   UNL     1     144.289 158.533 186.856  0.00  0.00    +0.052 HD
ATOM    145  H   UNL     1     142.806 159.302 186.265  0.00  0.00    +0.052 HD
ENDBRANCH 141 142
ENDBRANCH  16 141
BRANCH   6 146
ATOM    146  O   UNL     1     142.886 167.211 188.645  0.00  0.00    -0.379 OA
BRANCH 146 147
ATOM    147  C   UNL     1     142.255 168.468 188.435  0.00  0.00    +0.037 C 
ATOM    148  H   UNL     1     141.426 168.623 189.131  0.00  0.00    +0.052 HD
ATOM    149  H   UNL     1     142.996 169.253 188.600  0.00  0.00    +0.052 HD
ATOM    150  H   UNL     1     141.896 168.546 187.404  0.00  0.00    +0.052 HD
ENDBRANCH 146 147
ENDBRANCH   6 146
BRANCH   4 151
ATOM    151  O   UNL     1     146.281 168.433 189.282  0.00  0.00    -0.376 OA
BRANCH 151 152
ATOM    152  C   UNL     1     145.524 168.771 190.439  0.00  0.00    +0.037 C 
ATOM    153  H   UNL     1     144.516 169.097 190.160  0.00  0.00    +0.052 HD
ATOM    154  H   UNL     1     145.436 167.877 191.063  0.00  0.00    +0.052 HD
ATOM    155  H   UNL     1     146.025 169.547 191.022  0.00  0.00    +0.052 HD
ENDBRANCH 151 152
ENDBRANCH   4 151
TORSDOF 33
ENDMDL
MODEL 3
REMARK VINA RESULT:      -5.1      3.251     10.734
REMARK  Name = Reidispongiolide A_conf2
REMARK  33 active torsions:
REMARK  status: ('A' for Active; 'I' for Inactive)
REMARK    1  A    between atoms: C_1  and  C_2
REMARK    2  A    between atoms: C_5  and  O_67
REMARK    3  A    between atoms: C_7  and  O_65
REMARK    4  A    between atoms: C_8  and  C_64
REMARK    5  A    between atoms: C_17  and  O_62
REMARK    6  A    between atoms: C_19  and  C_61
REMARK    7  A    between atoms: C_26  and  C_38
REMARK    8  A    between atoms: C_27  and  C_37
REMARK    9  A    between atoms: C_30  and  O_35
REMARK   10  A    between atoms: C_32  and  O_33
REMARK   11  A    between atoms: O_33  and  C_34
REMARK   12  A    between atoms: O_35  and  C_36
REMARK   13  A    between atoms: C_38  and  C_39
REMARK   14  A    between atoms: C_38  and  C_40
REMARK   15  A    between atoms: C_40  and  C_41
REMARK   16  A    between atoms: C_40  and  O_59
REMARK   17  A    between atoms: C_41  and  C_42
REMARK   18  A    between atoms: C_41  and  C_43
REMARK   19  A    between atoms: C_43  and  C_44
REMARK   20  A    between atoms: C_44  and  C_45
REMARK   21  A    between atoms: C_45  and  C_47
REMARK   22  A    between atoms: C_47  and  C_48
REMARK   23  A    between atoms: C_47  and  C_49
REMARK   24  A    between atoms: C_49  and  C_50
REMARK   25  A    between atoms: C_49  and  O_57
REMARK   26  A    between atoms: C_50  and  C_51
REMARK   27  A    between atoms: C_52  and  N_53
REMARK   28  A    between atoms: N_53  and  C_54
REMARK   29  A    between atoms: O_57  and  C_58
REMARK   30  A    between atoms: O_59  and  C_60
REMARK   31  A    between atoms: O_62  and  C_63
REMARK   32  A    between atoms: O_65  and  C_66
REMARK   33  A    between atoms: O_67  and  C_68
REMARK                            x       y       z     vdW  Elec       q    Type
REMARK                         _______ _______ _______ _____ _____    ______ ____
ROOT
ATOM      1  C   UNL     1     145.910 171.460 186.095  0.00  0.00    +0.001 C 
ATOM      2  C   UNL     1     146.373 171.380 187.539  0.00  0.00    -0.080 C 
ATOM      3  C   UNL     1     145.587 171.053 188.584  0.00  0.00    -0.059 C 
ATOM      4  C   UNL     1     145.977 170.966 190.039  0.00  0.00    +0.079 C 
ATOM      5  C   UNL     1     144.926 171.636 190.958  0.00  0.00    +0.004 C 
ATOM      6  C   UNL     1     145.064 173.159 191.150  0.00  0.00    +0.067 C 
ATOM      7  C   UNL     1     143.916 174.055 190.594  0.00  0.00    +0.020 C 
ATOM      8  C   UNL     1     142.473 173.934 191.168  0.00  0.00    +0.112 C 
ATOM      9  C   UNL     1     141.612 172.779 190.638  0.00  0.00    +0.006 C 
ATOM     10  C   UNL     1     140.261 172.790 191.290  0.00  0.00    -0.057 C 
ATOM     11  C   UNL     1     140.131 173.373 192.498  0.00  0.00    +0.022 C 
ATOM     12  C   UNL     1     141.283 173.916 193.250  0.00  0.00    +0.332 C 
ATOM     13  O   UNL     1     141.158 174.251 194.419  0.00  0.00    -0.246 OA
ATOM     14  O   UNL     1     142.476 173.951 192.602  0.00  0.00    -0.458 OA
ATOM     15  C   UNL     1     139.118 172.014 190.665  0.00  0.00    -0.004 C 
ATOM     16  C   UNL     1     138.549 172.499 189.307  0.00  0.00    +0.066 C 
ATOM     17  C   UNL     1     139.335 172.034 188.049  0.00  0.00    -0.005 C 
ATOM     18  C   UNL     1     139.799 170.584 188.033  0.00  0.00    -0.070 C 
ATOM     19  C   UNL     1     141.115 170.301 188.052  0.00  0.00    -0.062 C 
ATOM     20  C   UNL     1     141.770 169.016 188.100  0.00  0.00    -0.055 C 
ATOM     21  C   UNL     1     141.501 168.046 188.995  0.00  0.00    +0.023 C 
ATOM     22  C   UNL     1     142.305 166.808 189.119  0.00  0.00    +0.332 C 
ATOM     23  O   UNL     1     141.986 165.882 189.845  0.00  0.00    -0.246 OA
ATOM     24  O   UNL     1     143.436 166.908 188.389  0.00  0.00    -0.457 OA
ATOM     25  C   UNL     1     144.444 165.859 188.489  0.00  0.00    +0.114 C 
ATOM     26  C   UNL     1     144.670 165.355 187.032  0.00  0.00    +0.012 C 
ATOM     27  C   UNL     1     144.929 166.466 186.029  0.00  0.00    -0.079 C 
ATOM     28  C   UNL     1     146.150 166.851 185.626  0.00  0.00    -0.059 C 
ATOM     29  C   UNL     1     146.424 167.873 184.556  0.00  0.00    +0.079 C 
ATOM     30  C   UNL     1     146.748 169.254 185.140  0.00  0.00    +0.004 C 
ATOM     31  C   UNL     1     145.496 170.074 185.509  0.00  0.00    +0.067 C 
ATOM     32  H   UNL     1     146.764 171.828 185.508  0.00  0.00    +0.037 HD
ATOM     33  H   UNL     1     147.420 171.626 187.715  0.00  0.00    +0.057 HD
ATOM     34  H   UNL     1     144.557 170.779 188.377  0.00  0.00    +0.059 HD
ATOM     35  H   UNL     1     145.979 169.895 190.265  0.00  0.00    +0.064 HD
ATOM     36  H   UNL     1     143.937 171.361 190.594  0.00  0.00    +0.032 HD
ATOM     37  H   UNL     1     145.018 171.148 191.941  0.00  0.00    +0.032 HD
ATOM     38  H   UNL     1     145.998 173.487 190.672  0.00  0.00    +0.060 HD
ATOM     39  H   UNL     1     144.212 175.076 190.884  0.00  0.00    +0.036 HD
ATOM     40  H   UNL     1     141.970 174.867 190.861  0.00  0.00    +0.074 HD
ATOM     41  H   UNL     1     142.048 171.800 190.841  0.00  0.00    +0.035 HD
ATOM     42  H   UNL     1     141.506 172.901 189.560  0.00  0.00    +0.035 HD
ATOM     43  H   UNL     1     139.199 173.368 193.050  0.00  0.00    +0.069 HD
ATOM     44  H   UNL     1     138.282 172.007 191.379  0.00  0.00    +0.034 HD
ATOM     45  H   UNL     1     139.411 170.959 190.607  0.00  0.00    +0.034 HD
ATOM     46  H   UNL     1     138.528 173.599 189.318  0.00  0.00    +0.060 HD
ATOM     47  H   UNL     1     140.196 172.701 187.917  0.00  0.00    +0.034 HD
ATOM     48  H   UNL     1     138.728 172.188 187.145  0.00  0.00    +0.034 HD
ATOM     49  H   UNL     1     141.826 171.127 188.018  0.00  0.00    +0.062 HD
ATOM     50  H   UNL     1     142.610 168.912 187.413  0.00  0.00    +0.062 HD
ATOM     51  H   UNL     1     140.696 168.135 189.715  0.00  0.00    +0.069 HD
ATOM     52  H   UNL     1     144.062 165.026 189.095  0.00  0.00    +0.074 HD
ATOM     53  H   UNL     1     145.509 164.659 186.989  0.00  0.00    +0.038 HD
ATOM     54  H   UNL     1     144.050 166.943 185.601  0.00  0.00    +0.057 HD
ATOM     55  H   UNL     1     147.030 166.373 186.059  0.00  0.00    +0.059 HD
ATOM     56  H   UNL     1     145.581 167.950 183.856  0.00  0.00    +0.064 HD
ATOM     57  H   UNL     1     147.331 169.814 184.396  0.00  0.00    +0.032 HD
ATOM     58  H   UNL     1     147.398 169.142 186.015  0.00  0.00    +0.032 HD
ATOM     59  H   UNL     1     144.909 169.514 186.247  0.00  0.00    +0.060 HD
ENDROOT
BRANCH   1  60
ATOM     60  C   UNL     1     144.831 172.538 185.940  0.00  0.00    -0.057 C 
ATOM     61  H   UNL     1     145.250 173.449 185.501  0.00  0.00    +0.024 HD
ATOM     62  H   UNL     1     144.380 172.801 186.899  0.00  0.00    +0.024 HD
ATOM     63  H   UNL     1     144.031 172.204 185.270  0.00  0.00    +0.024 HD
ENDBRANCH   1  60
BRANCH  26  64
ATOM     64  C   UNL     1     143.448 164.550 186.558  0.00  0.00    -0.056 C 
ATOM     65  H   UNL     1     143.700 163.503 186.368  0.00  0.00    +0.024 HD
ATOM     66  H   UNL     1     143.042 164.975 185.634  0.00  0.00    +0.024 HD
ATOM     67  H   UNL     1     142.653 164.573 187.313  0.00  0.00    +0.024 HD
ENDBRANCH  26  64
BRANCH  18  68
ATOM     68  C   UNL     1     138.700 169.558 187.959  0.00  0.00    -0.043 C 
ATOM     69  H   UNL     1     138.489 169.155 188.958  0.00  0.00    +0.027 HD
ATOM     70  H   UNL     1     137.754 169.969 187.586  0.00  0.00    +0.027 HD
ATOM     71  H   UNL     1     138.987 168.728 187.304  0.00  0.00    +0.027 HD
ENDBRANCH  18  68
BRANCH   7  72
ATOM     72  C   UNL     1     143.909 174.058 189.065  0.00  0.00    -0.057 C 
ATOM     73  H   UNL     1     143.959 173.034 188.678  0.00  0.00    +0.023 HD
ATOM     74  H   UNL     1     144.780 174.599 188.671  0.00  0.00    +0.023 HD
ATOM     75  H   UNL     1     143.011 174.532 188.663  0.00  0.00    +0.023 HD
ENDBRANCH   7  72
BRANCH  25  76
ATOM     76  C   UNL     1     145.688 166.457 189.228  0.00  0.00    +0.020 C 
ATOM     77  H   UNL     1     146.340 166.894 188.465  0.00  0.00    +0.036 HD
BRANCH  76  78
ATOM     78  C   UNL     1     145.239 167.624 190.136  0.00  0.00    -0.057 C 
ATOM     79  H   UNL     1     144.480 167.307 190.855  0.00  0.00    +0.023 HD
ATOM     80  H   UNL     1     146.090 168.030 190.698  0.00  0.00    +0.023 HD
ATOM     81  H   UNL     1     144.799 168.446 189.569  0.00  0.00    +0.023 HD
ENDBRANCH  76  78
BRANCH  76  82
ATOM     82  C   UNL     1     146.493 165.441 190.104  0.00  0.00    +0.067 C 
ATOM     83  H   UNL     1     145.959 165.354 191.061  0.00  0.00    +0.060 HD
BRANCH  82  84
ATOM     84  C   UNL     1     147.955 165.908 190.412  0.00  0.00    -0.017 C 
ATOM     85  H   UNL     1     148.603 165.026 190.469  0.00  0.00    +0.032 HD
BRANCH  84  86
ATOM     86  C   UNL     1     148.484 166.763 189.249  0.00  0.00    -0.060 C 
ATOM     87  H   UNL     1     149.282 167.430 189.586  0.00  0.00    +0.023 HD
ATOM     88  H   UNL     1     147.694 167.400 188.837  0.00  0.00    +0.023 HD
ATOM     89  H   UNL     1     148.874 166.142 188.435  0.00  0.00    +0.023 HD
ENDBRANCH  84  86
BRANCH  84  90
ATOM     90  C   UNL     1     148.070 166.683 191.746  0.00  0.00    -0.041 C 
ATOM     91  H   UNL     1     147.376 167.529 191.754  0.00  0.00    +0.027 HD
ATOM     92  H   UNL     1     149.073 167.116 191.846  0.00  0.00    +0.027 HD
BRANCH  90  93
ATOM     93  C   UNL     1     147.766 165.823 192.970  0.00  0.00    +0.007 C 
ATOM     94  H   UNL     1     146.747 165.427 192.928  0.00  0.00    +0.034 HD
ATOM     95  H   UNL     1     148.437 164.958 193.027  0.00  0.00    +0.034 HD
BRANCH  93  96
ATOM     96  C   UNL     1     147.957 166.614 194.249  0.00  0.00    +0.139 C 
ATOM     97  O   UNL     1     147.522 167.766 194.336  0.00  0.00    -0.297 OA
BRANCH  96  98
ATOM     98  C   UNL     1     148.669 165.929 195.412  0.00  0.00    +0.041 C 
ATOM     99  H   UNL     1     148.118 165.002 195.620  0.00  0.00    +0.040 HD
BRANCH  98 100
ATOM    100  C   UNL     1     148.540 166.772 196.688  0.00  0.00    -0.053 C 
ATOM    101  H   UNL     1     148.610 166.152 197.588  0.00  0.00    +0.024 HD
ATOM    102  H   UNL     1     147.568 167.278 196.715  0.00  0.00    +0.024 HD
ATOM    103  H   UNL     1     149.312 167.547 196.744  0.00  0.00    +0.024 HD
ENDBRANCH  98 100
BRANCH  98 104
ATOM    104  C   UNL     1     150.129 165.536 195.077  0.00  0.00    +0.071 C 
ATOM    105  H   UNL     1     150.100 164.583 194.531  0.00  0.00    +0.061 HD
BRANCH 104 106
ATOM    106  C   UNL     1     150.898 166.588 194.237  0.00  0.00    -0.006 C 
ATOM    107  H   UNL     1     150.256 167.450 194.012  0.00  0.00    +0.033 HD
ATOM    108  H   UNL     1     151.731 167.001 194.816  0.00  0.00    +0.033 HD
BRANCH 106 109
ATOM    109  C   UNL     1     151.476 165.990 192.986  0.00  0.00    -0.067 C 
ATOM    110  C   UNL     1     151.457 166.597 191.793  0.00  0.00    -0.005 C 
ATOM    111  H   UNL     1     151.918 165.006 193.105  0.00  0.00    +0.059 HD
ATOM    112  H   UNL     1     151.031 167.598 191.724  0.00  0.00    +0.078 HD
BRANCH 110 113
ATOM    113  N   UNL     1     151.918 166.082 190.593  0.00  0.00    -0.284 N 
ATOM    114  C   UNL     1     152.333 166.841 189.500  0.00  0.00    +0.206 C 
ATOM    115  O   UNL     1     152.450 168.056 189.407  0.00  0.00    -0.279 OA
ATOM    116  H   UNL     1     152.600 166.204 188.639  0.00  0.00    +0.126 HD
BRANCH 113 117
ATOM    117  C   UNL     1     152.085 164.635 190.532  0.00  0.00    +0.007 C 
ATOM    118  H   UNL     1     151.513 164.251 189.681  0.00  0.00    +0.043 HD
ATOM    119  H   UNL     1     153.145 164.393 190.411  0.00  0.00    +0.043 HD
ATOM    120  H   UNL     1     151.716 164.148 191.440  0.00  0.00    +0.043 HD
ENDBRANCH 113 117
ENDBRANCH 110 113
ENDBRANCH 106 109
ENDBRANCH 104 106
BRANCH 104 121
ATOM    121  O   UNL     1     150.827 165.318 196.318  0.00  0.00    -0.379 OA
BRANCH 121 122
ATOM    122  C   UNL     1     151.200 163.960 196.524  0.00  0.00    +0.037 C 
ATOM    123  H   UNL     1     150.987 163.670 197.557  0.00  0.00    +0.052 HD
ATOM    124  H   UNL     1     150.678 163.285 195.838  0.00  0.00    +0.052 HD
ATOM    125  H   UNL     1     152.276 163.874 196.355  0.00  0.00    +0.052 HD
ENDBRANCH 121 122
ENDBRANCH 104 121
ENDBRANCH  98 104
ENDBRANCH  96  98
ENDBRANCH  93  96
ENDBRANCH  90  93
ENDBRANCH  84  90
ENDBRANCH  82  84
BRANCH  82 126
ATOM    126  O   UNL     1     146.570 164.158 189.484  0.00  0.00    -0.379 OA
BRANCH 126 127
ATOM    127  C   UNL     1     147.628 163.351 189.987  0.00  0.00    +0.037 C 
ATOM    128  H   UNL     1     147.310 162.927 190.942  0.00  0.00    +0.052 HD
ATOM    129  H   UNL     1     147.855 162.533 189.300  0.00  0.00    +0.052 HD
ATOM    130  H   UNL     1     148.524 163.956 190.157  0.00  0.00    +0.052 HD
ENDBRANCH 126 127
ENDBRANCH  82 126
ENDBRANCH  76  82
ENDBRANCH  25  76
BRANCH  31 131
ATOM    131  O   UNL     1     144.731 170.258 184.307  0.00  0.00    -0.379 OA
BRANCH 131 132
ATOM    132  C   UNL     1     143.420 169.711 184.379  0.00  0.00    +0.037 C 
ATOM    133  H   UNL     1     143.311 168.846 183.718  0.00  0.00    +0.052 HD
ATOM    134  H   UNL     1     143.241 169.385 185.409  0.00  0.00    +0.052 HD
ATOM    135  H   UNL     1     142.675 170.469 184.124  0.00  0.00    +0.052 HD
ENDBRANCH 131 132
ENDBRANCH  31 131
BRANCH  29 136
ATOM    136  O   UNL     1     147.591 167.428 183.848  0.00  0.00    -0.376 OA
BRANCH 136 137
ATOM    137  C   UNL     1     147.375 166.198 183.165  0.00  0.00    +0.037 C 
ATOM    138  H   UNL     1     147.052 166.376 182.134  0.00  0.00    +0.052 HD
ATOM    139  H   UNL     1     146.589 165.648 183.689  0.00  0.00    +0.052 HD
ATOM    140  H   UNL     1     148.289 165.592 183.174  0.00  0.00    +0.052 HD
ENDBRANCH 136 137
ENDBRANCH  29 136
BRANCH  16 141
ATOM    141  O   UNL     1     137.188 172.030 189.244  0.00  0.00    -0.379 OA
BRANCH 141 142
ATOM    142  C   UNL     1     136.691 171.519 190.476  0.00  0.00    +0.037 C 
ATOM    143  H   UNL     1     136.563 172.320 191.209  0.00  0.00    +0.052 HD
ATOM    144  H   UNL     1     135.713 171.072 190.289  0.00  0.00    +0.052 HD
ATOM    145  H   UNL     1     137.352 170.744 190.876  0.00  0.00    +0.052 HD
ENDBRANCH 141 142
ENDBRANCH  16 141
BRANCH   6 146
ATOM    146  O   UNL     1     145.202 173.361 192.568  0.00  0.00    -0.379 OA
BRANCH 146 147
ATOM    147  C   UNL     1     146.550 173.381 193.019  0.00  0.00    +0.037 C 
ATOM    148  H   UNL     1     146.639 173.854 194.001  0.00  0.00    +0.052 HD
ATOM    149  H   UNL     1     146.899 172.349 193.100  0.00  0.00    +0.052 HD
ATOM    150  H   UNL     1     147.185 173.903 192.296  0.00  0.00    +0.052 HD
ENDBRANCH 146 147
ENDBRANCH   6 146
BRANCH   4 151
ATOM    151  O   UNL     1     147.299 171.464 190.238  0.00  0.00    -0.376 OA
BRANCH 151 152
ATOM    152  C   UNL     1     148.115 170.589 191.010  0.00  0.00    +0.037 C 
ATOM    153  H   UNL     1     147.557 169.692 191.297  0.00  0.00    +0.052 HD
ATOM    154  H   UNL     1     148.965 170.282 190.393  0.00  0.00    +0.052 HD
ATOM    155  H   UNL     1     148.502 171.096 191.897  0.00  0.00    +0.052 HD
ENDBRANCH 151 152
ENDBRANCH   4 151
TORSDOF 33
ENDMDL
MODEL 4
REMARK VINA RESULT:      -5.0      5.422     13.454
REMARK  Name = Reidispongiolide A_conf2
REMARK  33 active torsions:
REMARK  status: ('A' for Active; 'I' for Inactive)
REMARK    1  A    between atoms: C_1  and  C_2
REMARK    2  A    between atoms: C_5  and  O_67
REMARK    3  A    between atoms: C_7  and  O_65
REMARK    4  A    between atoms: C_8  and  C_64
REMARK    5  A    between atoms: C_17  and  O_62
REMARK    6  A    between atoms: C_19  and  C_61
REMARK    7  A    between atoms: C_26  and  C_38
REMARK    8  A    between atoms: C_27  and  C_37
REMARK    9  A    between atoms: C_30  and  O_35
REMARK   10  A    between atoms: C_32  and  O_33
REMARK   11  A    between atoms: O_33  and  C_34
REMARK   12  A    between atoms: O_35  and  C_36
REMARK   13  A    between atoms: C_38  and  C_39
REMARK   14  A    between atoms: C_38  and  C_40
REMARK   15  A    between atoms: C_40  and  C_41
REMARK   16  A    between atoms: C_40  and  O_59
REMARK   17  A    between atoms: C_41  and  C_42
REMARK   18  A    between atoms: C_41  and  C_43
REMARK   19  A    between atoms: C_43  and  C_44
REMARK   20  A    between atoms: C_44  and  C_45
REMARK   21  A    between atoms: C_45  and  C_47
REMARK   22  A    between atoms: C_47  and  C_48
REMARK   23  A    between atoms: C_47  and  C_49
REMARK   24  A    between atoms: C_49  and  C_50
REMARK   25  A    between atoms: C_49  and  O_57
REMARK   26  A    between atoms: C_50  and  C_51
REMARK   27  A    between atoms: C_52  and  N_53
REMARK   28  A    between atoms: N_53  and  C_54
REMARK   29  A    between atoms: O_57  and  C_58
REMARK   30  A    between atoms: O_59  and  C_60
REMARK   31  A    between atoms: O_62  and  C_63
REMARK   32  A    between atoms: O_65  and  C_66
REMARK   33  A    between atoms: O_67  and  C_68
REMARK                            x       y       z     vdW  Elec       q    Type
REMARK                         _______ _______ _______ _____ _____    ______ ____
ROOT
ATOM      1  C   UNL     1     140.470 177.121 189.306  0.00  0.00    +0.001 C 
ATOM      2  C   UNL     1     141.144 176.742 190.614  0.00  0.00    -0.080 C 
ATOM      3  C   UNL     1     140.708 175.784 191.456  0.00  0.00    -0.059 C 
ATOM      4  C   UNL     1     141.318 175.365 192.771  0.00  0.00    +0.079 C 
ATOM      5  C   UNL     1     140.245 175.185 193.872  0.00  0.00    +0.004 C 
ATOM      6  C   UNL     1     139.825 176.463 194.626  0.00  0.00    +0.067 C 
ATOM      7  C   UNL     1     138.354 176.945 194.448  0.00  0.00    +0.020 C 
ATOM      8  C   UNL     1     137.169 176.056 194.930  0.00  0.00    +0.112 C 
ATOM      9  C   UNL     1     136.738 174.913 194.001  0.00  0.00    +0.006 C 
ATOM     10  C   UNL     1     135.598 174.146 194.606  0.00  0.00    -0.057 C 
ATOM     11  C   UNL     1     135.444 174.168 195.943  0.00  0.00    +0.022 C 
ATOM     12  C   UNL     1     136.405 174.835 196.848  0.00  0.00    +0.332 C 
ATOM     13  O   UNL     1     136.342 174.662 198.056  0.00  0.00    -0.246 OA
ATOM     14  O   UNL     1     137.383 175.575 196.264  0.00  0.00    -0.458 OA
ATOM     15  C   UNL     1     134.753 173.242 193.730  0.00  0.00    -0.004 C 
ATOM     16  C   UNL     1     133.844 173.890 192.656  0.00  0.00    +0.066 C 
ATOM     17  C   UNL     1     134.545 174.253 191.318  0.00  0.00    -0.005 C 
ATOM     18  C   UNL     1     135.515 173.221 190.755  0.00  0.00    -0.070 C 
ATOM     19  C   UNL     1     136.827 173.512 190.669  0.00  0.00    -0.062 C 
ATOM     20  C   UNL     1     137.917 172.675 190.229  0.00  0.00    -0.055 C 
ATOM     21  C   UNL     1     138.174 171.437 190.689  0.00  0.00    +0.023 C 
ATOM     22  C   UNL     1     139.395 170.674 190.337  0.00  0.00    +0.332 C 
ATOM     23  O   UNL     1     139.564 169.510 190.659  0.00  0.00    -0.246 OA
ATOM     24  O   UNL     1     140.279 171.472 189.702  0.00  0.00    -0.457 OA
ATOM     25  C   UNL     1     141.611 170.961 189.400  0.00  0.00    +0.114 C 
ATOM     26  C   UNL     1     141.787 171.132 187.862  0.00  0.00    +0.012 C 
ATOM     27  C   UNL     1     141.451 172.524 187.354  0.00  0.00    -0.079 C 
ATOM     28  C   UNL     1     142.360 173.486 187.129  0.00  0.00    -0.059 C 
ATOM     29  C   UNL     1     142.061 174.832 186.526  0.00  0.00    +0.079 C 
ATOM     30  C   UNL     1     141.924 175.929 187.590  0.00  0.00    +0.004 C 
ATOM     31  C   UNL     1     140.527 175.984 188.239  0.00  0.00    +0.067 C 
ATOM     32  H   UNL     1     141.023 177.983 188.904  0.00  0.00    +0.037 HD
ATOM     33  H   UNL     1     142.033 177.316 190.872  0.00  0.00    +0.057 HD
ATOM     34  H   UNL     1     139.839 175.205 191.158  0.00  0.00    +0.059 HD
ATOM     35  H   UNL     1     141.759 174.382 192.574  0.00  0.00    +0.064 HD
ATOM     36  H   UNL     1     139.390 174.677 193.429  0.00  0.00    +0.032 HD
ATOM     37  H   UNL     1     140.663 174.470 194.598  0.00  0.00    +0.032 HD
ATOM     38  H   UNL     1     140.482 177.285 194.310  0.00  0.00    +0.060 HD
ATOM     39  H   UNL     1     138.283 177.828 195.103  0.00  0.00    +0.036 HD
ATOM     40  H   UNL     1     136.310 176.746 194.997  0.00  0.00    +0.074 HD
ATOM     41  H   UNL     1     137.536 174.193 193.819  0.00  0.00    +0.035 HD
ATOM     42  H   UNL     1     136.431 175.346 193.048  0.00  0.00    +0.035 HD
ATOM     43  H   UNL     1     134.678 173.592 196.451  0.00  0.00    +0.069 HD
ATOM     44  H   UNL     1     134.100 172.648 194.387  0.00  0.00    +0.034 HD
ATOM     45  H   UNL     1     135.410 172.489 193.279  0.00  0.00    +0.034 HD
ATOM     46  H   UNL     1     133.411 174.807 193.082  0.00  0.00    +0.060 HD
ATOM     47  H   UNL     1     135.060 175.213 191.449  0.00  0.00    +0.034 HD
ATOM     48  H   UNL     1     133.796 174.449 190.538  0.00  0.00    +0.034 HD
ATOM     49  H   UNL     1     137.158 174.511 190.952  0.00  0.00    +0.062 HD
ATOM     50  H   UNL     1     138.619 173.168 189.555  0.00  0.00    +0.062 HD
ATOM     51  H   UNL     1     137.515 170.935 191.388  0.00  0.00    +0.069 HD
ATOM     52  H   UNL     1     141.669 169.892 189.646  0.00  0.00    +0.074 HD
ATOM     53  H   UNL     1     142.809 170.900 187.560  0.00  0.00    +0.038 HD
ATOM     54  H   UNL     1     140.403 172.717 187.137  0.00  0.00    +0.057 HD
ATOM     55  H   UNL     1     143.410 173.291 187.351  0.00  0.00    +0.059 HD
ATOM     56  H   UNL     1     141.156 174.796 185.905  0.00  0.00    +0.064 HD
ATOM     57  H   UNL     1     142.132 176.898 187.114  0.00  0.00    +0.032 HD
ATOM     58  H   UNL     1     142.693 175.796 188.359  0.00  0.00    +0.032 HD
ATOM     59  H   UNL     1     140.315 175.016 188.708  0.00  0.00    +0.060 HD
ENDROOT
BRANCH   1  60
ATOM     60  C   UNL     1     139.054 177.647 189.568  0.00  0.00    -0.057 C 
ATOM     61  H   UNL     1     138.310 177.039 189.043  0.00  0.00    +0.024 HD
ATOM     62  H   UNL     1     138.939 178.682 189.240  0.00  0.00    +0.024 HD
ATOM     63  H   UNL     1     138.806 177.599 190.634  0.00  0.00    +0.024 HD
ENDBRANCH   1  60
BRANCH  26  64
ATOM     64  C   UNL     1     140.902 170.118 187.116  0.00  0.00    -0.056 C 
ATOM     65  H   UNL     1     140.427 170.564 186.238  0.00  0.00    +0.024 HD
ATOM     66  H   UNL     1     140.112 169.740 187.774  0.00  0.00    +0.024 HD
ATOM     67  H   UNL     1     141.495 169.261 186.779  0.00  0.00    +0.024 HD
ENDBRANCH  26  64
BRANCH  18  68
ATOM     68  C   UNL     1     134.887 171.933 190.296  0.00  0.00    -0.043 C 
ATOM     69  H   UNL     1     134.125 172.133 189.531  0.00  0.00    +0.027 HD
ATOM     70  H   UNL     1     135.607 171.242 189.841  0.00  0.00    +0.027 HD
ATOM     71  H   UNL     1     134.408 171.414 191.134  0.00  0.00    +0.027 HD
ENDBRANCH  18  68
BRANCH   7  72
ATOM     72  C   UNL     1     138.113 177.474 193.033  0.00  0.00    -0.057 C 
ATOM     73  H   UNL     1     137.075 177.297 192.728  0.00  0.00    +0.023 HD
ATOM     74  H   UNL     1     138.760 176.961 192.309  0.00  0.00    +0.023 HD
ATOM     75  H   UNL     1     138.313 178.546 192.961  0.00  0.00    +0.023 HD
ENDBRANCH   7  72
BRANCH  25  76
ATOM     76  C   UNL     1     142.634 171.717 190.314  0.00  0.00    +0.020 C 
ATOM     77  H   UNL     1     142.859 172.672 189.828  0.00  0.00    +0.036 HD
BRANCH  76  78
ATOM     78  C   UNL     1     141.965 172.065 191.663  0.00  0.00    -0.057 C 
ATOM     79  H   UNL     1     140.963 171.637 191.738  0.00  0.00    +0.023 HD
ATOM     80  H   UNL     1     142.561 171.684 192.503  0.00  0.00    +0.023 HD
ATOM     81  H   UNL     1     141.850 173.141 191.804  0.00  0.00    +0.023 HD
ENDBRANCH  76  78
BRANCH  76  82
ATOM     82  C   UNL     1     143.959 170.941 190.613  0.00  0.00    +0.067 C 
ATOM     83  H   UNL     1     143.999 170.788 191.700  0.00  0.00    +0.060 HD
BRANCH  82  84
ATOM     84  C   UNL     1     145.247 171.725 190.192  0.00  0.00    -0.017 C 
ATOM     85  H   UNL     1     146.128 171.152 190.506  0.00  0.00    +0.032 HD
BRANCH  84  86
ATOM     86  C   UNL     1     145.317 171.827 188.659  0.00  0.00    -0.060 C 
ATOM     87  H   UNL     1     146.062 171.136 188.256  0.00  0.00    +0.023 HD
ATOM     88  H   UNL     1     145.614 172.832 188.344  0.00  0.00    +0.023 HD
ATOM     89  H   UNL     1     144.350 171.600 188.195  0.00  0.00    +0.023 HD
ENDBRANCH  84  86
BRANCH  84  90
ATOM     90  C   UNL     1     145.330 173.132 190.829  0.00  0.00    -0.041 C 
ATOM     91  H   UNL     1     144.325 173.515 191.034  0.00  0.00    +0.027 HD
ATOM     92  H   UNL     1     145.783 173.840 190.125  0.00  0.00    +0.027 HD
BRANCH  90  93
ATOM     93  C   UNL     1     146.110 173.154 192.142  0.00  0.00    +0.007 C 
ATOM     94  H   UNL     1     145.943 174.092 192.681  0.00  0.00    +0.034 HD
ATOM     95  H   UNL     1     145.789 172.347 192.810  0.00  0.00    +0.034 HD
BRANCH  93  96
ATOM     96  C   UNL     1     147.592 172.959 191.894  0.00  0.00    +0.139 C 
ATOM     97  O   UNL     1     148.140 173.521 190.941  0.00  0.00    -0.297 OA
BRANCH  96  98
ATOM     98  C   UNL     1     148.369 172.082 192.872  0.00  0.00    +0.041 C 
ATOM     99  H   UNL     1     147.648 171.721 193.617  0.00  0.00    +0.040 HD
BRANCH  98 100
ATOM    100  C   UNL     1     149.378 172.928 193.660  0.00  0.00    -0.053 C 
ATOM    101  H   UNL     1     149.737 173.778 193.069  0.00  0.00    +0.024 HD
ATOM    102  H   UNL     1     150.254 172.326 193.930  0.00  0.00    +0.024 HD
ATOM    103  H   UNL     1     148.949 173.313 194.590  0.00  0.00    +0.024 HD
ENDBRANCH  98 100
BRANCH  98 104
ATOM    104  C   UNL     1     149.000 170.840 192.196  0.00  0.00    +0.071 C 
ATOM    105  H   UNL     1     149.244 170.118 192.989  0.00  0.00    +0.061 HD
BRANCH 104 106
ATOM    106  C   UNL     1     148.096 170.159 191.138  0.00  0.00    -0.006 C 
ATOM    107  H   UNL     1     147.163 170.722 191.003  0.00  0.00    +0.033 HD
ATOM    108  H   UNL     1     148.581 170.177 190.155  0.00  0.00    +0.033 HD
BRANCH 106 109
ATOM    109  C   UNL     1     147.828 168.720 191.476  0.00  0.00    -0.067 C 
ATOM    110  C   UNL     1     148.189 168.147 192.631  0.00  0.00    -0.005 C 
ATOM    111  H   UNL     1     147.315 168.150 190.707  0.00  0.00    +0.059 HD
ATOM    112  H   UNL     1     148.674 168.763 193.388  0.00  0.00    +0.078 HD
BRANCH 110 113
ATOM    113  N   UNL     1     148.026 166.818 192.985  0.00  0.00    -0.284 N 
ATOM    114  C   UNL     1     146.830 166.241 193.408  0.00  0.00    +0.206 C 
ATOM    115  O   UNL     1     145.714 166.741 193.471  0.00  0.00    -0.279 OA
ATOM    116  H   UNL     1     146.966 165.182 193.690  0.00  0.00    +0.126 HD
BRANCH 113 117
ATOM    117  C   UNL     1     149.178 165.948 192.779  0.00  0.00    +0.007 C 
ATOM    118  H   UNL     1     148.840 164.907 192.808  0.00  0.00    +0.043 HD
ATOM    119  H   UNL     1     149.633 166.166 191.809  0.00  0.00    +0.043 HD
ATOM    120  H   UNL     1     149.931 166.085 193.560  0.00  0.00    +0.043 HD
ENDBRANCH 113 117
ENDBRANCH 110 113
ENDBRANCH 106 109
ENDBRANCH 104 106
BRANCH 104 121
ATOM    121  O   UNL     1     150.233 171.250 191.574  0.00  0.00    -0.379 OA
BRANCH 121 122
ATOM    122  C   UNL     1     151.297 170.325 191.765  0.00  0.00    +0.037 C 
ATOM    123  H   UNL     1     152.207 170.702 191.289  0.00  0.00    +0.052 HD
ATOM    124  H   UNL     1     151.489 170.137 192.827  0.00  0.00    +0.052 HD
ATOM    125  H   UNL     1     151.020 169.384 191.284  0.00  0.00    +0.052 HD
ENDBRANCH 121 122
ENDBRANCH 104 121
ENDBRANCH  98 104
ENDBRANCH  96  98
ENDBRANCH  93  96
ENDBRANCH  90  93
ENDBRANCH  84  90
ENDBRANCH  82  84
BRANCH  82 126
ATOM    126  O   UNL     1     143.987 169.676 189.953  0.00  0.00    -0.379 OA
BRANCH 126 127
ATOM    127  C   UNL     1     143.945 168.571 190.849  0.00  0.00    +0.037 C 
ATOM    128  H   UNL     1     144.543 168.822 191.728  0.00  0.00    +0.052 HD
ATOM    129  H   UNL     1     142.921 168.367 191.168  0.00  0.00    +0.052 HD
ATOM    130  H   UNL     1     144.375 167.681 190.378  0.00  0.00    +0.052 HD
ENDBRANCH 126 127
ENDBRANCH  82 126
ENDBRANCH  76  82
ENDBRANCH  25  76
BRANCH  31 131
ATOM    131  O   UNL     1     139.576 176.245 187.194  0.00  0.00    -0.379 OA
BRANCH 131 132
ATOM    132  C   UNL     1     138.599 175.221 187.047  0.00  0.00    +0.037 C 
ATOM    133  H   UNL     1     137.950 175.160 187.925  0.00  0.00    +0.052 HD
ATOM    134  H   UNL     1     137.982 175.458 186.175  0.00  0.00    +0.052 HD
ATOM    135  H   UNL     1     139.081 174.255 186.875  0.00  0.00    +0.052 HD
ENDBRANCH 131 132
ENDBRANCH  31 131
BRANCH  29 136
ATOM    136  O   UNL     1     143.187 175.176 185.705  0.00  0.00    -0.376 OA
BRANCH 136 137
ATOM    137  C   UNL     1     143.479 176.568 185.741  0.00  0.00    +0.037 C 
ATOM    138  H   UNL     1     142.861 177.077 186.487  0.00  0.00    +0.052 HD
ATOM    139  H   UNL     1     143.259 176.990 184.757  0.00  0.00    +0.052 HD
ATOM    140  H   UNL     1     144.542 176.729 185.960  0.00  0.00    +0.052 HD
ENDBRANCH 136 137
ENDBRANCH  29 136
BRANCH  16 141
ATOM    141  O   UNL     1     132.768 172.961 192.416  0.00  0.00    -0.379 OA
BRANCH 141 142
ATOM    142  C   UNL     1     131.706 173.492 191.631  0.00  0.00    +0.037 C 
ATOM    143  H   UNL     1     132.045 173.720 190.617  0.00  0.00    +0.052 HD
ATOM    144  H   UNL     1     130.923 172.735 191.563  0.00  0.00    +0.052 HD
ATOM    145  H   UNL     1     131.281 174.385 192.097  0.00  0.00    +0.052 HD
ENDBRANCH 141 142
ENDBRANCH  16 141
BRANCH   6 146
ATOM    146  O   UNL     1     140.090 176.197 196.016  0.00  0.00    -0.379 OA
BRANCH 146 147
ATOM    147  C   UNL     1     140.263 177.369 196.803  0.00  0.00    +0.037 C 
ATOM    148  H   UNL     1     140.772 177.149 197.746  0.00  0.00    +0.052 HD
ATOM    149  H   UNL     1     140.876 178.073 196.236  0.00  0.00    +0.052 HD
ATOM    150  H   UNL     1     139.295 177.839 197.004  0.00  0.00    +0.052 HD
ENDBRANCH 146 147
ENDBRANCH   6 146
BRANCH   4 151
ATOM    151  O   UNL     1     142.368 176.255 193.146  0.00  0.00    -0.376 OA
BRANCH 151 152
ATOM    152  C   UNL     1     143.426 175.608 193.846  0.00  0.00    +0.037 C 
ATOM    153  H   UNL     1     144.355 176.179 193.754  0.00  0.00    +0.052 HD
ATOM    154  H   UNL     1     143.155 175.560 194.904  0.00  0.00    +0.052 HD
ATOM    155  H   UNL     1     143.569 174.588 193.482  0.00  0.00    +0.052 HD
ENDBRANCH 151 152
ENDBRANCH   4 151
TORSDOF 33
ENDMDL
MODEL 5
REMARK VINA RESULT:      -5.0      3.754     10.237
REMARK  Name = Reidispongiolide A_conf2
REMARK  33 active torsions:
REMARK  status: ('A' for Active; 'I' for Inactive)
REMARK    1  A    between atoms: C_1  and  C_2
REMARK    2  A    between atoms: C_5  and  O_67
REMARK    3  A    between atoms: C_7  and  O_65
REMARK    4  A    between atoms: C_8  and  C_64
REMARK    5  A    between atoms: C_17  and  O_62
REMARK    6  A    between atoms: C_19  and  C_61
REMARK    7  A    between atoms: C_26  and  C_38
REMARK    8  A    between atoms: C_27  and  C_37
REMARK    9  A    between atoms: C_30  and  O_35
REMARK   10  A    between atoms: C_32  and  O_33
REMARK   11  A    between atoms: O_33  and  C_34
REMARK   12  A    between atoms: O_35  and  C_36
REMARK   13  A    between atoms: C_38  and  C_39
REMARK   14  A    between atoms: C_38  and  C_40
REMARK   15  A    between atoms: C_40  and  C_41
REMARK   16  A    between atoms: C_40  and  O_59
REMARK   17  A    between atoms: C_41  and  C_42
REMARK   18  A    between atoms: C_41  and  C_43
REMARK   19  A    between atoms: C_43  and  C_44
REMARK   20  A    between atoms: C_44  and  C_45
REMARK   21  A    between atoms: C_45  and  C_47
REMARK   22  A    between atoms: C_47  and  C_48
REMARK   23  A    between atoms: C_47  and  C_49
REMARK   24  A    between atoms: C_49  and  C_50
REMARK   25  A    between atoms: C_49  and  O_57
REMARK   26  A    between atoms: C_50  and  C_51
REMARK   27  A    between atoms: C_52  and  N_53
REMARK   28  A    between atoms: N_53  and  C_54
REMARK   29  A    between atoms: O_57  and  C_58
REMARK   30  A    between atoms: O_59  and  C_60
REMARK   31  A    between atoms: O_62  and  C_63
REMARK   32  A    between atoms: O_65  and  C_66
REMARK   33  A    between atoms: O_67  and  C_68
REMARK                            x       y       z     vdW  Elec       q    Type
REMARK                         _______ _______ _______ _____ _____    ______ ____
ROOT
ATOM      1  C   UNL     1     149.717 166.892 186.713  0.00  0.00    +0.001 C 
ATOM      2  C   UNL     1     149.887 166.825 188.221  0.00  0.00    -0.080 C 
ATOM      3  C   UNL     1     149.067 166.163 189.060  0.00  0.00    -0.059 C 
ATOM      4  C   UNL     1     149.169 166.064 190.563  0.00  0.00    +0.079 C 
ATOM      5  C   UNL     1     147.796 166.267 191.248  0.00  0.00    +0.004 C 
ATOM      6  C   UNL     1     147.374 167.727 191.506  0.00  0.00    +0.067 C 
ATOM      7  C   UNL     1     146.126 168.256 190.738  0.00  0.00    +0.020 C 
ATOM      8  C   UNL     1     144.724 167.621 190.980  0.00  0.00    +0.112 C 
ATOM      9  C   UNL     1     144.422 166.309 190.245  0.00  0.00    +0.006 C 
ATOM     10  C   UNL     1     143.045 165.820 190.587  0.00  0.00    -0.057 C 
ATOM     11  C   UNL     1     142.493 166.210 191.752  0.00  0.00    +0.022 C 
ATOM     12  C   UNL     1     143.224 167.019 192.751  0.00  0.00    +0.332 C 
ATOM     13  O   UNL     1     142.767 167.180 193.873  0.00  0.00    -0.246 OA
ATOM     14  O   UNL     1     144.439 167.499 192.380  0.00  0.00    -0.458 OA
ATOM     15  C   UNL     1     142.375 164.783 189.707  0.00  0.00    -0.004 C 
ATOM     16  C   UNL     1     141.955 165.189 188.272  0.00  0.00    +0.066 C 
ATOM     17  C   UNL     1     143.082 165.127 187.203  0.00  0.00    -0.005 C 
ATOM     18  C   UNL     1     143.999 163.911 187.250  0.00  0.00    -0.070 C 
ATOM     19  C   UNL     1     145.303 164.067 187.548  0.00  0.00    -0.062 C 
ATOM     20  C   UNL     1     146.327 163.062 187.703  0.00  0.00    -0.055 C 
ATOM     21  C   UNL     1     146.228 161.975 188.492  0.00  0.00    +0.023 C 
ATOM     22  C   UNL     1     147.360 161.055 188.755  0.00  0.00    +0.332 C 
ATOM     23  O   UNL     1     147.234 160.010 189.369  0.00  0.00    -0.246 OA
ATOM     24  O   UNL     1     148.512 161.585 188.291  0.00  0.00    -0.457 OA
ATOM     25  C   UNL     1     149.773 160.911 188.581  0.00  0.00    +0.114 C 
ATOM     26  C   UNL     1     150.437 160.652 187.195  0.00  0.00    +0.012 C 
ATOM     27  C   UNL     1     150.499 161.879 186.302  0.00  0.00    -0.079 C 
ATOM     28  C   UNL     1     151.575 162.674 186.185  0.00  0.00    -0.059 C 
ATOM     29  C   UNL     1     151.695 163.829 185.228  0.00  0.00    +0.079 C 
ATOM     30  C   UNL     1     151.416 165.177 185.906  0.00  0.00    +0.004 C 
ATOM     31  C   UNL     1     149.915 165.510 186.015  0.00  0.00    +0.067 C 
ATOM     32  H   UNL     1     150.496 167.570 186.336  0.00  0.00    +0.037 HD
ATOM     33  H   UNL     1     150.734 167.376 188.627  0.00  0.00    +0.057 HD
ATOM     34  H   UNL     1     148.250 165.593 188.627  0.00  0.00    +0.059 HD
ATOM     35  H   UNL     1     149.486 165.033 190.755  0.00  0.00    +0.064 HD
ATOM     36  H   UNL     1     147.048 165.726 190.670  0.00  0.00    +0.032 HD
ATOM     37  H   UNL     1     147.851 165.742 192.214  0.00  0.00    +0.032 HD
ATOM     38  H   UNL     1     148.219 168.383 191.252  0.00  0.00    +0.060 HD
ATOM     39  H   UNL     1     146.000 169.284 191.112  0.00  0.00    +0.036 HD
ATOM     40  H   UNL     1     144.008 168.368 190.595  0.00  0.00    +0.074 HD
ATOM     41  H   UNL     1     145.111 165.507 190.511  0.00  0.00    +0.035 HD
ATOM     42  H   UNL     1     144.495 166.494 189.173  0.00  0.00    +0.035 HD
ATOM     43  H   UNL     1     141.527 165.851 192.088  0.00  0.00    +0.069 HD
ATOM     44  H   UNL     1     141.466 164.438 190.222  0.00  0.00    +0.034 HD
ATOM     45  H   UNL     1     143.009 163.889 189.687  0.00  0.00    +0.034 HD
ATOM     46  H   UNL     1     141.565 166.217 188.307  0.00  0.00    +0.060 HD
ATOM     47  H   UNL     1     143.678 166.045 187.280  0.00  0.00    +0.034 HD
ATOM     48  H   UNL     1     142.649 165.165 186.193  0.00  0.00    +0.034 HD
ATOM     49  H   UNL     1     145.687 165.077 187.692  0.00  0.00    +0.062 HD
ATOM     50  H   UNL     1     147.271 163.302 187.213  0.00  0.00    +0.062 HD
ATOM     51  H   UNL     1     145.315 161.730 189.021  0.00  0.00    +0.069 HD
ATOM     52  H   UNL     1     149.581 159.945 189.067  0.00  0.00    +0.074 HD
ATOM     53  H   UNL     1     151.451 160.270 187.317  0.00  0.00    +0.038 HD
ATOM     54  H   UNL     1     149.614 162.087 185.707  0.00  0.00    +0.057 HD
ATOM     55  H   UNL     1     152.461 162.465 186.787  0.00  0.00    +0.059 HD
ATOM     56  H   UNL     1     151.031 163.698 184.364  0.00  0.00    +0.064 HD
ATOM     57  H   UNL     1     151.912 165.965 185.321  0.00  0.00    +0.032 HD
ATOM     58  H   UNL     1     151.881 165.195 186.898  0.00  0.00    +0.032 HD
ATOM     59  H   UNL     1     149.417 164.722 186.592  0.00  0.00    +0.060 HD
ENDROOT
BRANCH   1  60
ATOM     60  C   UNL     1     148.392 167.575 186.356  0.00  0.00    -0.057 C 
ATOM     61  H   UNL     1     147.635 167.385 187.125  0.00  0.00    +0.024 HD
ATOM     62  H   UNL     1     147.998 167.222 185.400  0.00  0.00    +0.024 HD
ATOM     63  H   UNL     1     148.512 168.662 186.292  0.00  0.00    +0.024 HD
ENDBRANCH   1  60
BRANCH  26  64
ATOM     64  C   UNL     1     149.673 159.547 186.446  0.00  0.00    -0.056 C 
ATOM     65  H   UNL     1     149.143 159.940 185.574  0.00  0.00    +0.024 HD
ATOM     66  H   UNL     1     148.937 159.073 187.105  0.00  0.00    +0.024 HD
ATOM     67  H   UNL     1     150.361 158.768 186.098  0.00  0.00    +0.024 HD
ENDBRANCH  26  64
BRANCH  18  68
ATOM     68  C   UNL     1     143.344 162.599 186.911  0.00  0.00    -0.043 C 
ATOM     69  H   UNL     1     143.084 162.056 187.830  0.00  0.00    +0.027 HD
ATOM     70  H   UNL     1     142.411 162.718 186.348  0.00  0.00    +0.027 HD
ATOM     71  H   UNL     1     144.018 161.971 186.317  0.00  0.00    +0.027 HD
ENDBRANCH  18  68
BRANCH   7  72
ATOM     72  C   UNL     1     146.419 168.406 189.244  0.00  0.00    -0.057 C 
ATOM     73  H   UNL     1     147.413 168.842 189.089  0.00  0.00    +0.023 HD
ATOM     74  H   UNL     1     145.691 169.076 188.768  0.00  0.00    +0.023 HD
ATOM     75  H   UNL     1     146.382 167.446 188.724  0.00  0.00    +0.023 HD
ENDBRANCH   7  72
BRANCH  25  76
ATOM     76  C   UNL     1     150.573 161.803 189.589  0.00  0.00    +0.020 C 
ATOM     77  H   UNL     1     150.882 162.705 189.050  0.00  0.00    +0.036 HD
BRANCH  76  78
ATOM     78  C   UNL     1     149.635 162.275 190.723  0.00  0.00    -0.057 C 
ATOM     79  H   UNL     1     148.619 162.447 190.359  0.00  0.00    +0.023 HD
ATOM     80  H   UNL     1     149.585 161.527 191.524  0.00  0.00    +0.023 HD
ATOM     81  H   UNL     1     149.964 163.214 191.170  0.00  0.00    +0.023 HD
ENDBRANCH  76  78
BRANCH  76  82
ATOM     82  C   UNL     1     151.818 161.115 190.242  0.00  0.00    +0.067 C 
ATOM     83  H   UNL     1     151.725 161.257 191.328  0.00  0.00    +0.060 HD
BRANCH  82  84
ATOM     84  C   UNL     1     153.181 161.740 189.792  0.00  0.00    -0.017 C 
ATOM     85  H   UNL     1     153.809 161.893 190.676  0.00  0.00    +0.032 HD
BRANCH  84  86
ATOM     86  C   UNL     1     153.934 160.750 188.888  0.00  0.00    -0.060 C 
ATOM     87  H   UNL     1     154.090 161.173 187.891  0.00  0.00    +0.023 HD
ATOM     88  H   UNL     1     153.362 159.826 188.752  0.00  0.00    +0.023 HD
ATOM     89  H   UNL     1     154.911 160.484 189.306  0.00  0.00    +0.023 HD
ENDBRANCH  84  86
BRANCH  84  90
ATOM     90  C   UNL     1     153.010 163.101 189.075  0.00  0.00    -0.041 C 
ATOM     91  H   UNL     1     152.108 163.093 188.456  0.00  0.00    +0.027 HD
ATOM     92  H   UNL     1     153.846 163.272 188.385  0.00  0.00    +0.027 HD
BRANCH  90  93
ATOM     93  C   UNL     1     152.901 164.280 190.039  0.00  0.00    +0.007 C 
ATOM     94  H   UNL     1     151.855 164.536 190.228  0.00  0.00    +0.034 HD
ATOM     95  H   UNL     1     153.346 164.042 191.012  0.00  0.00    +0.034 HD
BRANCH  93  96
ATOM     96  C   UNL     1     153.638 165.490 189.501  0.00  0.00    +0.139 C 
ATOM     97  O   UNL     1     153.188 166.624 189.690  0.00  0.00    -0.297 OA
BRANCH  96  98
ATOM     98  C   UNL     1     154.950 165.254 188.758  0.00  0.00    +0.041 C 
ATOM     99  H   UNL     1     155.253 164.220 188.970  0.00  0.00    +0.040 HD
BRANCH  98 100
ATOM    100  C   UNL     1     156.062 166.133 189.348  0.00  0.00    -0.053 C 
ATOM    101  H   UNL     1     156.686 165.570 190.052  0.00  0.00    +0.024 HD
ATOM    102  H   UNL     1     155.630 166.977 189.898  0.00  0.00    +0.024 HD
ATOM    103  H   UNL     1     156.710 166.548 188.570  0.00  0.00    +0.024 HD
ENDBRANCH  98 100
BRANCH  98 104
ATOM    104  C   UNL     1     154.806 165.391 187.223  0.00  0.00    +0.071 C 
ATOM    105  H   UNL     1     153.911 164.828 186.921  0.00  0.00    +0.061 HD
BRANCH 104 106
ATOM    106  C   UNL     1     154.689 166.853 186.719  0.00  0.00    -0.006 C 
ATOM    107  H   UNL     1     153.651 167.091 186.456  0.00  0.00    +0.033 HD
ATOM    108  H   UNL     1     154.944 167.553 187.523  0.00  0.00    +0.033 HD
BRANCH 106 109
ATOM    109  C   UNL     1     155.625 167.126 185.576  0.00  0.00    -0.067 C 
ATOM    110  C   UNL     1     155.840 168.345 185.065  0.00  0.00    -0.005 C 
ATOM    111  H   UNL     1     156.128 166.254 185.170  0.00  0.00    +0.059 HD
ATOM    112  H   UNL     1     155.338 169.197 185.523  0.00  0.00    +0.078 HD
BRANCH 110 113
ATOM    113  N   UNL     1     156.641 168.661 183.981  0.00  0.00    -0.284 N 
ATOM    114  C   UNL     1     157.697 169.570 184.000  0.00  0.00    +0.206 C 
ATOM    115  O   UNL     1     158.166 170.185 184.950  0.00  0.00    -0.279 OA
ATOM    116  H   UNL     1     158.145 169.695 182.999  0.00  0.00    +0.126 HD
BRANCH 113 117
ATOM    117  C   UNL     1     156.421 167.883 182.767  0.00  0.00    +0.007 C 
ATOM    118  H   UNL     1     155.874 166.972 183.029  0.00  0.00    +0.043 HD
ATOM    119  H   UNL     1     155.842 168.475 182.052  0.00  0.00    +0.043 HD
ATOM    120  H   UNL     1     157.366 167.592 182.299  0.00  0.00    +0.043 HD
ENDBRANCH 113 117
ENDBRANCH 110 113
ENDBRANCH 106 109
ENDBRANCH 104 106
BRANCH 104 121
ATOM    121  O   UNL     1     155.951 164.768 186.611  0.00  0.00    -0.379 OA
BRANCH 121 122
ATOM    122  C   UNL     1     155.987 163.356 186.787  0.00  0.00    +0.037 C 
ATOM    123  H   UNL     1     154.994 162.935 186.603  0.00  0.00    +0.052 HD
ATOM    124  H   UNL     1     156.716 162.881 186.122  0.00  0.00    +0.052 HD
ATOM    125  H   UNL     1     156.264 163.150 187.823  0.00  0.00    +0.052 HD
ENDBRANCH 121 122
ENDBRANCH 104 121
ENDBRANCH  98 104
ENDBRANCH  96  98
ENDBRANCH  93  96
ENDBRANCH  90  93
ENDBRANCH  84  90
ENDBRANCH  82  84
BRANCH  82 126
ATOM    126  O   UNL     1     151.863 159.721 189.946  0.00  0.00    -0.379 OA
BRANCH 126 127
ATOM    127  C   UNL     1     151.688 158.894 191.091  0.00  0.00    +0.037 C 
ATOM    128  H   UNL     1     150.720 159.133 191.538  0.00  0.00    +0.052 HD
ATOM    129  H   UNL     1     151.695 157.838 190.815  0.00  0.00    +0.052 HD
ATOM    130  H   UNL     1     152.471 159.093 191.830  0.00  0.00    +0.052 HD
ENDBRANCH 126 127
ENDBRANCH  82 126
ENDBRANCH  76  82
ENDBRANCH  25  76
BRANCH  31 131
ATOM    131  O   UNL     1     149.385 165.555 184.680  0.00  0.00    -0.379 OA
BRANCH 131 132
ATOM    132  C   UNL     1     148.350 164.606 184.449  0.00  0.00    +0.037 C 
ATOM    133  H   UNL     1     148.068 164.090 185.371  0.00  0.00    +0.052 HD
ATOM    134  H   UNL     1     147.474 165.140 184.068  0.00  0.00    +0.052 HD
ATOM    135  H   UNL     1     148.662 163.877 183.696  0.00  0.00    +0.052 HD
ENDBRANCH 131 132
ENDBRANCH  31 131
BRANCH  29 136
ATOM    136  O   UNL     1     153.059 163.854 184.780  0.00  0.00    -0.376 OA
BRANCH 136 137
ATOM    137  C   UNL     1     153.283 164.840 183.779  0.00  0.00    +0.037 C 
ATOM    138  H   UNL     1     152.848 164.531 182.823  0.00  0.00    +0.052 HD
ATOM    139  H   UNL     1     154.362 164.960 183.651  0.00  0.00    +0.052 HD
ATOM    140  H   UNL     1     152.859 165.803 184.090  0.00  0.00    +0.052 HD
ENDBRANCH 136 137
ENDBRANCH  29 136
BRANCH  16 141
ATOM    141  O   UNL     1     140.870 164.315 187.901  0.00  0.00    -0.379 OA
BRANCH 141 142
ATOM    142  C   UNL     1     140.063 164.810 186.838  0.00  0.00    +0.037 C 
ATOM    143  H   UNL     1     139.121 164.258 186.772  0.00  0.00    +0.052 HD
ATOM    144  H   UNL     1     139.830 165.855 187.047  0.00  0.00    +0.052 HD
ATOM    145  H   UNL     1     140.596 164.761 185.884  0.00  0.00    +0.052 HD
ENDBRANCH 141 142
ENDBRANCH  16 141
BRANCH   6 146
ATOM    146  O   UNL     1     147.155 167.823 192.925  0.00  0.00    -0.379 OA
BRANCH 146 147
ATOM    147  C   UNL     1     147.402 166.612 193.629  0.00  0.00    +0.037 C 
ATOM    148  H   UNL     1     147.515 165.765 192.947  0.00  0.00    +0.052 HD
ATOM    149  H   UNL     1     148.329 166.729 194.194  0.00  0.00    +0.052 HD
ATOM    150  H   UNL     1     146.591 166.413 194.338  0.00  0.00    +0.052 HD
ENDBRANCH 146 147
ENDBRANCH   6 146
BRANCH   4 151
ATOM    151  O   UNL     1     150.181 166.938 191.057  0.00  0.00    -0.376 OA
BRANCH 151 152
ATOM    152  C   UNL     1     150.817 166.448 192.234  0.00  0.00    +0.037 C 
ATOM    153  H   UNL     1     151.901 166.382 192.088  0.00  0.00    +0.052 HD
ATOM    154  H   UNL     1     150.622 167.154 193.046  0.00  0.00    +0.052 HD
ATOM    155  H   UNL     1     150.412 165.475 192.521  0.00  0.00    +0.052 HD
ENDBRANCH 151 152
ENDBRANCH   4 151
TORSDOF 33
ENDMDL
MODEL 6
REMARK VINA RESULT:      -4.9      3.872      8.131
REMARK  Name = Reidispongiolide A_conf2
REMARK  33 active torsions:
REMARK  status: ('A' for Active; 'I' for Inactive)
REMARK    1  A    between atoms: C_1  and  C_2
REMARK    2  A    between atoms: C_5  and  O_67
REMARK    3  A    between atoms: C_7  and  O_65
REMARK    4  A    between atoms: C_8  and  C_64
REMARK    5  A    between atoms: C_17  and  O_62
REMARK    6  A    between atoms: C_19  and  C_61
REMARK    7  A    between atoms: C_26  and  C_38
REMARK    8  A    between atoms: C_27  and  C_37
REMARK    9  A    between atoms: C_30  and  O_35
REMARK   10  A    between atoms: C_32  and  O_33
REMARK   11  A    between atoms: O_33  and  C_34
REMARK   12  A    between atoms: O_35  and  C_36
REMARK   13  A    between atoms: C_38  and  C_39
REMARK   14  A    between atoms: C_38  and  C_40
REMARK   15  A    between atoms: C_40  and  C_41
REMARK   16  A    between atoms: C_40  and  O_59
REMARK   17  A    between atoms: C_41  and  C_42
REMARK   18  A    between atoms: C_41  and  C_43
REMARK   19  A    between atoms: C_43  and  C_44
REMARK   20  A    between atoms: C_44  and  C_45
REMARK   21  A    between atoms: C_45  and  C_47
REMARK   22  A    between atoms: C_47  and  C_48
REMARK   23  A    between atoms: C_47  and  C_49
REMARK   24  A    between atoms: C_49  and  C_50
REMARK   25  A    between atoms: C_49  and  O_57
REMARK   26  A    between atoms: C_50  and  C_51
REMARK   27  A    between atoms: C_52  and  N_53
REMARK   28  A    between atoms: N_53  and  C_54
REMARK   29  A    between atoms: O_57  and  C_58
REMARK   30  A    between atoms: O_59  and  C_60
REMARK   31  A    between atoms: O_62  and  C_63
REMARK   32  A    between atoms: O_65  and  C_66
REMARK   33  A    between atoms: O_67  and  C_68
REMARK                            x       y       z     vdW  Elec       q    Type
REMARK                         _______ _______ _______ _____ _____    ______ ____
ROOT
ATOM      1  C   UNL     1     142.814 168.947 191.029  0.00  0.00    +0.001 C 
ATOM      2  C   UNL     1     143.931 169.964 191.186  0.00  0.00    -0.080 C 
ATOM      3  C   UNL     1     145.008 170.056 190.383  0.00  0.00    -0.059 C 
ATOM      4  C   UNL     1     146.157 171.030 190.487  0.00  0.00    +0.079 C 
ATOM      5  C   UNL     1     147.524 170.331 190.292  0.00  0.00    +0.004 C 
ATOM      6  C   UNL     1     148.138 169.678 191.546  0.00  0.00    +0.067 C 
ATOM      7  C   UNL     1     148.293 168.127 191.539  0.00  0.00    +0.020 C 
ATOM      8  C   UNL     1     149.224 167.432 190.502  0.00  0.00    +0.112 C 
ATOM      9  C   UNL     1     148.655 167.221 189.092  0.00  0.00    +0.006 C 
ATOM     10  C   UNL     1     149.670 166.553 188.211  0.00  0.00    -0.057 C 
ATOM     11  C   UNL     1     150.975 166.682 188.517  0.00  0.00    +0.022 C 
ATOM     12  C   UNL     1     151.455 167.533 189.627  0.00  0.00    +0.332 C 
ATOM     13  O   UNL     1     152.645 167.784 189.746  0.00  0.00    -0.246 OA
ATOM     14  O   UNL     1     150.509 168.066 190.443  0.00  0.00    -0.458 OA
ATOM     15  C   UNL     1     149.226 165.892 186.920  0.00  0.00    -0.004 C 
ATOM     16  C   UNL     1     148.349 164.618 187.005  0.00  0.00    +0.066 C 
ATOM     17  C   UNL     1     146.828 164.864 187.208  0.00  0.00    -0.005 C 
ATOM     18  C   UNL     1     146.203 165.982 186.382  0.00  0.00    -0.070 C 
ATOM     19  C   UNL     1     145.712 167.075 186.997  0.00  0.00    -0.062 C 
ATOM     20  C   UNL     1     145.136 168.264 186.416  0.00  0.00    -0.055 C 
ATOM     21  C   UNL     1     145.711 169.006 185.451  0.00  0.00    +0.023 C 
ATOM     22  C   UNL     1     145.170 170.310 184.998  0.00  0.00    +0.332 C 
ATOM     23  O   UNL     1     145.624 170.918 184.044  0.00  0.00    -0.246 OA
ATOM     24  O   UNL     1     144.192 170.726 185.829  0.00  0.00    -0.457 OA
ATOM     25  C   UNL     1     143.626 172.059 185.652  0.00  0.00    +0.114 C 
ATOM     26  C   UNL     1     142.092 171.844 185.481  0.00  0.00    +0.012 C 
ATOM     27  C   UNL     1     141.470 170.967 186.555  0.00  0.00    -0.079 C 
ATOM     28  C   UNL     1     140.846 171.438 187.646  0.00  0.00    -0.059 C 
ATOM     29  C   UNL     1     140.130 170.591 188.664  0.00  0.00    +0.079 C 
ATOM     30  C   UNL     1     140.990 170.323 189.905  0.00  0.00    +0.004 C 
ATOM     31  C   UNL     1     141.979 169.153 189.726  0.00  0.00    +0.067 C 
ATOM     32  H   UNL     1     142.136 169.085 191.884  0.00  0.00    +0.037 HD
ATOM     33  H   UNL     1     143.834 170.646 192.030  0.00  0.00    +0.057 HD
ATOM     34  H   UNL     1     145.063 169.386 189.529  0.00  0.00    +0.059 HD
ATOM     35  H   UNL     1     146.014 171.721 189.650  0.00  0.00    +0.064 HD
ATOM     36  H   UNL     1     147.425 169.621 189.472  0.00  0.00    +0.032 HD
ATOM     37  H   UNL     1     148.216 171.104 189.923  0.00  0.00    +0.032 HD
ATOM     38  H   UNL     1     147.520 169.944 192.414  0.00  0.00    +0.060 HD
ATOM     39  H   UNL     1     148.784 167.905 192.500  0.00  0.00    +0.036 HD
ATOM     40  H   UNL     1     149.408 166.427 190.919  0.00  0.00    +0.074 HD
ATOM     41  H   UNL     1     148.385 168.157 188.602  0.00  0.00    +0.035 HD
ATOM     42  H   UNL     1     147.765 166.597 189.175  0.00  0.00    +0.035 HD
ATOM     43  H   UNL     1     151.762 166.274 187.894  0.00  0.00    +0.069 HD
ATOM     44  H   UNL     1     150.127 165.626 186.349  0.00  0.00    +0.034 HD
ATOM     45  H   UNL     1     148.744 166.653 186.294  0.00  0.00    +0.034 HD
ATOM     46  H   UNL     1     148.717 164.004 187.840  0.00  0.00    +0.060 HD
ATOM     47  H   UNL     1     146.650 165.047 188.275  0.00  0.00    +0.034 HD
ATOM     48  H   UNL     1     146.263 163.947 186.989  0.00  0.00    +0.034 HD
ATOM     49  H   UNL     1     145.720 167.107 188.087  0.00  0.00    +0.062 HD
ATOM     50  H   UNL     1     144.223 168.606 186.904  0.00  0.00    +0.062 HD
ATOM     51  H   UNL     1     146.637 168.712 184.973  0.00  0.00    +0.069 HD
ATOM     52  H   UNL     1     144.022 172.518 184.736  0.00  0.00    +0.074 HD
ATOM     53  H   UNL     1     141.565 172.799 185.477  0.00  0.00    +0.038 HD
ATOM     54  H   UNL     1     141.519 169.894 186.388  0.00  0.00    +0.057 HD
ATOM     55  H   UNL     1     140.800 172.515 187.812  0.00  0.00    +0.059 HD
ATOM     56  H   UNL     1     139.797 169.641 188.225  0.00  0.00    +0.064 HD
ATOM     57  H   UNL     1     140.320 170.093 190.745  0.00  0.00    +0.032 HD
ATOM     58  H   UNL     1     141.530 171.234 190.186  0.00  0.00    +0.032 HD
ATOM     59  H   UNL     1     142.645 169.377 188.884  0.00  0.00    +0.060 HD
ENDROOT
BRANCH   1  60
ATOM     60  C   UNL     1     143.362 167.524 191.186  0.00  0.00    -0.057 C 
ATOM     61  H   UNL     1     144.057 167.282 190.374  0.00  0.00    +0.024 HD
ATOM     62  H   UNL     1     142.564 166.778 191.181  0.00  0.00    +0.024 HD
ATOM     63  H   UNL     1     143.920 167.416 192.123  0.00  0.00    +0.024 HD
ENDBRANCH   1  60
BRANCH  26  64
ATOM     64  C   UNL     1     141.800 171.211 184.110  0.00  0.00    -0.056 C 
ATOM     65  H   UNL     1     142.711 170.836 183.634  0.00  0.00    +0.024 HD
ATOM     66  H   UNL     1     141.342 171.944 183.437  0.00  0.00    +0.024 HD
ATOM     67  H   UNL     1     141.104 170.371 184.211  0.00  0.00    +0.024 HD
ENDBRANCH  26  64
BRANCH  18  68
ATOM     68  C   UNL     1     146.158 165.736 184.898  0.00  0.00    -0.043 C 
ATOM     69  H   UNL     1     145.139 165.463 184.589  0.00  0.00    +0.027 HD
ATOM     70  H   UNL     1     146.434 166.618 184.308  0.00  0.00    +0.027 HD
ATOM     71  H   UNL     1     146.834 164.919 184.619  0.00  0.00    +0.027 HD
ENDBRANCH  18  68
BRANCH   7  72
ATOM     72  C   UNL     1     146.930 167.436 191.616  0.00  0.00    -0.057 C 
ATOM     73  H   UNL     1     146.988 166.541 192.246  0.00  0.00    +0.023 HD
ATOM     74  H   UNL     1     146.599 167.114 190.620  0.00  0.00    +0.023 HD
ATOM     75  H   UNL     1     146.163 168.095 192.028  0.00  0.00    +0.023 HD
ENDBRANCH   7  72
BRANCH  25  76
ATOM     76  C   UNL     1     144.082 172.939 186.864  0.00  0.00    +0.020 C 
ATOM     77  H   UNL     1     143.461 172.660 187.720  0.00  0.00    +0.036 HD
BRANCH  76  78
ATOM     78  C   UNL     1     145.536 172.580 187.247  0.00  0.00    -0.057 C 
ATOM     79  H   UNL     1     145.695 172.645 188.326  0.00  0.00    +0.023 HD
ATOM     80  H   UNL     1     145.783 171.559 186.929  0.00  0.00    +0.023 HD
ATOM     81  H   UNL     1     146.264 173.252 186.790  0.00  0.00    +0.023 HD
ENDBRANCH  76  78
BRANCH  76  82
ATOM     82  C   UNL     1     144.009 174.485 186.628  0.00  0.00    +0.067 C 
ATOM     83  H   UNL     1     144.945 174.909 187.018  0.00  0.00    +0.060 HD
BRANCH  82  84
ATOM     84  C   UNL     1     142.821 175.172 187.380  0.00  0.00    -0.017 C 
ATOM     85  H   UNL     1     143.107 176.201 187.628  0.00  0.00    +0.032 HD
BRANCH  84  86
ATOM     86  C   UNL     1     141.603 175.271 186.446  0.00  0.00    -0.060 C 
ATOM     87  H   UNL     1     140.730 174.784 186.890  0.00  0.00    +0.023 HD
ATOM     88  H   UNL     1     141.794 174.768 185.493  0.00  0.00    +0.023 HD
ATOM     89  H   UNL     1     141.343 176.313 186.230  0.00  0.00    +0.023 HD
ENDBRANCH  84  86
BRANCH  84  90
ATOM     90  C   UNL     1     142.437 174.445 188.690  0.00  0.00    -0.041 C 
ATOM     91  H   UNL     1     143.109 174.743 189.501  0.00  0.00    +0.027 HD
ATOM     92  H   UNL     1     142.569 173.362 188.573  0.00  0.00    +0.027 HD
BRANCH  90  93
ATOM     93  C   UNL     1     141.008 174.734 189.143  0.00  0.00    +0.007 C 
ATOM     94  H   UNL     1     140.762 175.792 189.012  0.00  0.00    +0.034 HD
ATOM     95  H   UNL     1     140.279 174.168 188.551  0.00  0.00    +0.034 HD
BRANCH  93  96
ATOM     96  C   UNL     1     140.806 174.333 190.591  0.00  0.00    +0.139 C 
ATOM     97  O   UNL     1     139.671 174.105 191.017  0.00  0.00    -0.297 OA
BRANCH  96  98
ATOM     98  C   UNL     1     142.045 174.196 191.472  0.00  0.00    +0.041 C 
ATOM     99  H   UNL     1     142.897 174.040 190.798  0.00  0.00    +0.040 HD
BRANCH  98 100
ATOM    100  C   UNL     1     141.957 172.919 192.318  0.00  0.00    -0.053 C 
ATOM    101  H   UNL     1     142.941 172.620 192.696  0.00  0.00    +0.024 HD
ATOM    102  H   UNL     1     141.572 172.087 191.716  0.00  0.00    +0.024 HD
ATOM    103  H   UNL     1     141.284 173.041 193.173  0.00  0.00    +0.024 HD
ENDBRANCH  98 100
BRANCH  98 104
ATOM    104  C   UNL     1     142.335 175.468 192.304  0.00  0.00    +0.071 C 
ATOM    105  H   UNL     1     141.395 176.031 192.392  0.00  0.00    +0.061 HD
BRANCH 104 106
ATOM    106  C   UNL     1     142.904 175.191 193.720  0.00  0.00    -0.006 C 
ATOM    107  H   UNL     1     143.224 174.145 193.812  0.00  0.00    +0.033 HD
ATOM    108  H   UNL     1     143.813 175.780 193.886  0.00  0.00    +0.033 HD
BRANCH 106 109
ATOM    109  C   UNL     1     141.926 175.566 194.797  0.00  0.00    -0.067 C 
ATOM    110  C   UNL     1     140.617 175.754 194.582  0.00  0.00    -0.005 C 
ATOM    111  H   UNL     1     142.352 175.686 195.788  0.00  0.00    +0.059 HD
ATOM    112  H   UNL     1     140.226 175.593 193.578  0.00  0.00    +0.078 HD
BRANCH 110 113
ATOM    113  N   UNL     1     139.673 176.155 195.512  0.00  0.00    -0.284 N 
ATOM    114  C   UNL     1     138.424 175.566 195.693  0.00  0.00    +0.206 C 
ATOM    115  O   UNL     1     137.957 174.570 195.154  0.00  0.00    -0.279 OA
ATOM    116  H   UNL     1     137.827 176.100 196.453  0.00  0.00    +0.126 HD
BRANCH 113 117
ATOM    117  C   UNL     1     140.086 177.199 196.443  0.00  0.00    +0.007 C 
ATOM    118  H   UNL     1     139.645 176.989 197.423  0.00  0.00    +0.043 HD
ATOM    119  H   UNL     1     141.176 177.214 196.519  0.00  0.00    +0.043 HD
ATOM    120  H   UNL     1     139.743 178.186 196.119  0.00  0.00    +0.043 HD
ENDBRANCH 113 117
ENDBRANCH 110 113
ENDBRANCH 106 109
ENDBRANCH 104 106
BRANCH 104 121
ATOM    121  O   UNL     1     143.271 176.278 191.567  0.00  0.00    -0.379 OA
BRANCH 121 122
ATOM    122  C   UNL     1     142.707 177.491 191.081  0.00  0.00    +0.037 C 
ATOM    123  H   UNL     1     143.505 178.176 190.780  0.00  0.00    +0.052 HD
ATOM    124  H   UNL     1     142.033 177.318 190.235  0.00  0.00    +0.052 HD
ATOM    125  H   UNL     1     142.142 177.953 191.894  0.00  0.00    +0.052 HD
ENDBRANCH 121 122
ENDBRANCH 104 121
ENDBRANCH  98 104
ENDBRANCH  96  98
ENDBRANCH  93  96
ENDBRANCH  90  93
ENDBRANCH  84  90
ENDBRANCH  82  84
BRANCH  82 126
ATOM    126  O   UNL     1     143.885 174.799 185.242  0.00  0.00    -0.379 OA
BRANCH 126 127
ATOM    127  C   UNL     1     145.003 175.509 184.722  0.00  0.00    +0.037 C 
ATOM    128  H   UNL     1     145.432 174.920 183.908  0.00  0.00    +0.052 HD
ATOM    129  H   UNL     1     144.699 176.481 184.328  0.00  0.00    +0.052 HD
ATOM    130  H   UNL     1     145.766 175.641 185.496  0.00  0.00    +0.052 HD
ENDBRANCH 126 127
ENDBRANCH  82 126
ENDBRANCH  76  82
ENDBRANCH  25  76
BRANCH  31 131
ATOM    131  O   UNL     1     141.207 167.975 189.446  0.00  0.00    -0.379 OA
BRANCH 131 132
ATOM    132  C   UNL     1     141.518 167.377 188.193  0.00  0.00    +0.037 C 
ATOM    133  H   UNL     1     140.665 167.414 187.510  0.00  0.00    +0.052 HD
ATOM    134  H   UNL     1     142.347 167.935 187.744  0.00  0.00    +0.052 HD
ATOM    135  H   UNL     1     141.838 166.341 188.333  0.00  0.00    +0.052 HD
ENDBRANCH 131 132
ENDBRANCH  31 131
BRANCH  29 136
ATOM    136  O   UNL     1     138.986 171.342 189.095  0.00  0.00    -0.376 OA
BRANCH 136 137
ATOM    137  C   UNL     1     138.444 170.852 190.317  0.00  0.00    +0.037 C 
ATOM    138  H   UNL     1     138.878 171.378 191.174  0.00  0.00    +0.052 HD
ATOM    139  H   UNL     1     138.687 169.789 190.397  0.00  0.00    +0.052 HD
ATOM    140  H   UNL     1     137.353 170.962 190.321  0.00  0.00    +0.052 HD
ENDBRANCH 136 137
ENDBRANCH  29 136
BRANCH  16 141
ATOM    141  O   UNL     1     148.574 163.886 185.783  0.00  0.00    -0.379 OA
BRANCH 141 142
ATOM    142  C   UNL     1     149.675 164.361 185.016  0.00  0.00    +0.037 C 
ATOM    143  H   UNL     1     150.255 165.098 185.578  0.00  0.00    +0.052 HD
ATOM    144  H   UNL     1     150.327 163.513 184.796  0.00  0.00    +0.052 HD
ATOM    145  H   UNL     1     149.338 164.790 184.068  0.00  0.00    +0.052 HD
ENDBRANCH 141 142
ENDBRANCH  16 141
BRANCH   6 146
ATOM    146  O   UNL     1     149.425 170.299 191.715  0.00  0.00    -0.379 OA
BRANCH 146 147
ATOM    147  C   UNL     1     149.370 171.586 192.318  0.00  0.00    +0.037 C 
ATOM    148  H   UNL     1     150.198 171.740 193.016  0.00  0.00    +0.052 HD
ATOM    149  H   UNL     1     149.439 172.336 191.527  0.00  0.00    +0.052 HD
ATOM    150  H   UNL     1     148.415 171.721 192.837  0.00  0.00    +0.052 HD
ENDBRANCH 146 147
ENDBRANCH   6 146
BRANCH   4 151
ATOM    151  O   UNL     1     146.073 171.778 191.698  0.00  0.00    -0.376 OA
BRANCH 151 152
ATOM    152  C   UNL     1     145.790 173.158 191.484  0.00  0.00    +0.037 C 
ATOM    153  H   UNL     1     144.726 173.305 191.272  0.00  0.00    +0.052 HD
ATOM    154  H   UNL     1     146.036 173.703 192.400  0.00  0.00    +0.052 HD
ATOM    155  H   UNL     1     146.399 173.561 190.672  0.00  0.00    +0.052 HD
ENDBRANCH 151 152
ENDBRANCH   4 151
TORSDOF 33
ENDMDL
MODEL 7
REMARK VINA RESULT:      -4.9      3.747     11.146
REMARK  Name = Reidispongiolide A_conf2
REMARK  33 active torsions:
REMARK  status: ('A' for Active; 'I' for Inactive)
REMARK    1  A    between atoms: C_1  and  C_2
REMARK    2  A    between atoms: C_5  and  O_67
REMARK    3  A    between atoms: C_7  and  O_65
REMARK    4  A    between atoms: C_8  and  C_64
REMARK    5  A    between atoms: C_17  and  O_62
REMARK    6  A    between atoms: C_19  and  C_61
REMARK    7  A    between atoms: C_26  and  C_38
REMARK    8  A    between atoms: C_27  and  C_37
REMARK    9  A    between atoms: C_30  and  O_35
REMARK   10  A    between atoms: C_32  and  O_33
REMARK   11  A    between atoms: O_33  and  C_34
REMARK   12  A    between atoms: O_35  and  C_36
REMARK   13  A    between atoms: C_38  and  C_39
REMARK   14  A    between atoms: C_38  and  C_40
REMARK   15  A    between atoms: C_40  and  C_41
REMARK   16  A    between atoms: C_40  and  O_59
REMARK   17  A    between atoms: C_41  and  C_42
REMARK   18  A    between atoms: C_41  and  C_43
REMARK   19  A    between atoms: C_43  and  C_44
REMARK   20  A    between atoms: C_44  and  C_45
REMARK   21  A    between atoms: C_45  and  C_47
REMARK   22  A    between atoms: C_47  and  C_48
REMARK   23  A    between atoms: C_47  and  C_49
REMARK   24  A    between atoms: C_49  and  C_50
REMARK   25  A    between atoms: C_49  and  O_57
REMARK   26  A    between atoms: C_50  and  C_51
REMARK   27  A    between atoms: C_52  and  N_53
REMARK   28  A    between atoms: N_53  and  C_54
REMARK   29  A    between atoms: O_57  and  C_58
REMARK   30  A    between atoms: O_59  and  C_60
REMARK   31  A    between atoms: O_62  and  C_63
REMARK   32  A    between atoms: O_65  and  C_66
REMARK   33  A    between atoms: O_67  and  C_68
REMARK                            x       y       z     vdW  Elec       q    Type
REMARK                         _______ _______ _______ _____ _____    ______ ____
ROOT
ATOM      1  C   UNL     1     145.561 172.574 186.922  0.00  0.00    +0.001 C 
ATOM      2  C   UNL     1     145.648 172.649 188.437  0.00  0.00    -0.080 C 
ATOM      3  C   UNL     1     144.706 172.193 189.286  0.00  0.00    -0.059 C 
ATOM      4  C   UNL     1     144.721 172.245 190.794  0.00  0.00    +0.079 C 
ATOM      5  C   UNL     1     143.357 172.697 191.368  0.00  0.00    +0.004 C 
ATOM      6  C   UNL     1     143.126 174.219 191.452  0.00  0.00    +0.067 C 
ATOM      7  C   UNL     1     141.999 174.820 190.558  0.00  0.00    +0.020 C 
ATOM      8  C   UNL     1     140.515 174.403 190.775  0.00  0.00    +0.112 C 
ATOM      9  C   UNL     1     140.072 173.070 190.158  0.00  0.00    +0.006 C 
ATOM     10  C   UNL     1     138.626 172.805 190.461  0.00  0.00    -0.057 C 
ATOM     11  C   UNL     1     138.077 173.386 191.545  0.00  0.00    +0.022 C 
ATOM     12  C   UNL     1     138.862 174.195 192.502  0.00  0.00    +0.332 C 
ATOM     13  O   UNL     1     138.378 174.535 193.571  0.00  0.00    -0.246 OA
ATOM     14  O   UNL     1     140.148 174.470 192.160  0.00  0.00    -0.458 OA
ATOM     15  C   UNL     1     137.865 171.775 189.650  0.00  0.00    -0.004 C 
ATOM     16  C   UNL     1     137.574 172.075 188.158  0.00  0.00    +0.066 C 
ATOM     17  C   UNL     1     138.732 171.752 187.173  0.00  0.00    -0.005 C 
ATOM     18  C   UNL     1     139.472 170.439 187.399  0.00  0.00    -0.070 C 
ATOM     19  C   UNL     1     140.769 170.455 187.760  0.00  0.00    -0.062 C 
ATOM     20  C   UNL     1     141.639 169.348 188.079  0.00  0.00    -0.055 C 
ATOM     21  C   UNL     1     141.355 168.375 188.964  0.00  0.00    +0.023 C 
ATOM     22  C   UNL     1     142.337 167.349 189.388  0.00  0.00    +0.332 C 
ATOM     23  O   UNL     1     142.040 166.401 190.095  0.00  0.00    -0.246 OA
ATOM     24  O   UNL     1     143.571 167.671 188.947  0.00  0.00    -0.457 OA
ATOM     25  C   UNL     1     144.713 166.874 189.380  0.00  0.00    +0.114 C 
ATOM     26  C   UNL     1     145.402 166.383 188.072  0.00  0.00    +0.012 C 
ATOM     27  C   UNL     1     145.674 167.488 187.066  0.00  0.00    -0.079 C 
ATOM     28  C   UNL     1     146.852 168.118 186.937  0.00  0.00    -0.059 C 
ATOM     29  C   UNL     1     147.175 169.138 185.878  0.00  0.00    +0.079 C 
ATOM     30  C   UNL     1     147.049 170.576 186.398  0.00  0.00    +0.004 C 
ATOM     31  C   UNL     1     145.603 171.112 186.380  0.00  0.00    +0.067 C 
ATOM     32  H   UNL     1     146.443 173.101 186.528  0.00  0.00    +0.037 HD
ATOM     33  H   UNL     1     146.542 173.126 188.837  0.00  0.00    +0.057 HD
ATOM     34  H   UNL     1     143.841 171.692 188.862  0.00  0.00    +0.059 HD
ATOM     35  H   UNL     1     144.885 171.208 191.108  0.00  0.00    +0.064 HD
ATOM     36  H   UNL     1     142.571 172.199 190.802  0.00  0.00    +0.032 HD
ATOM     37  H   UNL     1     143.293 172.276 192.384  0.00  0.00    +0.032 HD
ATOM     38  H   UNL     1     144.063 174.728 191.187  0.00  0.00    +0.060 HD
ATOM     39  H   UNL     1     141.996 175.891 190.819  0.00  0.00    +0.036 HD
ATOM     40  H   UNL     1     139.926 175.191 190.274  0.00  0.00    +0.074 HD
ATOM     41  H   UNL     1     140.632 172.218 190.546  0.00  0.00    +0.035 HD
ATOM     42  H   UNL     1     140.222 173.128 189.079  0.00  0.00    +0.035 HD
ATOM     43  H   UNL     1     137.056 173.194 191.854  0.00  0.00    +0.069 HD
ATOM     44  H   UNL     1     136.894 171.608 190.139  0.00  0.00    +0.034 HD
ATOM     45  H   UNL     1     138.372 170.808 189.759  0.00  0.00    +0.034 HD
ATOM     46  H   UNL     1     137.326 173.142 188.065  0.00  0.00    +0.060 HD
ATOM     47  H   UNL     1     139.444 172.587 187.194  0.00  0.00    +0.034 HD
ATOM     48  H   UNL     1     138.358 171.737 186.140  0.00  0.00    +0.034 HD
ATOM     49  H   UNL     1     141.280 171.416 187.825  0.00  0.00    +0.062 HD
ATOM     50  H   UNL     1     142.629 169.408 187.626  0.00  0.00    +0.062 HD
ATOM     51  H   UNL     1     140.393 168.309 189.458  0.00  0.00    +0.069 HD
ATOM     52  H   UNL     1     144.369 165.999 189.948  0.00  0.00    +0.074 HD
ATOM     53  H   UNL     1     146.348 165.887 188.294  0.00  0.00    +0.038 HD
ATOM     54  H   UNL     1     144.855 167.744 186.398  0.00  0.00    +0.057 HD
ATOM     55  H   UNL     1     147.672 167.862 187.610  0.00  0.00    +0.059 HD
ATOM     56  H   UNL     1     146.541 169.003 184.992  0.00  0.00    +0.064 HD
ATOM     57  H   UNL     1     147.675 171.225 185.769  0.00  0.00    +0.032 HD
ATOM     58  H   UNL     1     147.463 170.641 187.411  0.00  0.00    +0.032 HD
ATOM     59  H   UNL     1     144.976 170.462 187.001  0.00  0.00    +0.060 HD
ENDROOT
BRANCH   1  60
ATOM     60  C   UNL     1     144.361 173.382 186.416  0.00  0.00    -0.057 C 
ATOM     61  H   UNL     1     143.620 173.520 187.212  0.00  0.00    +0.024 HD
ATOM     62  H   UNL     1     143.866 172.890 185.576  0.00  0.00    +0.024 HD
ATOM     63  H   UNL     1     144.665 174.383 186.091  0.00  0.00    +0.024 HD
ENDBRANCH   1  60
BRANCH  26  64
ATOM     64  C   UNL     1     144.532 165.312 187.391  0.00  0.00    -0.056 C 
ATOM     65  H   UNL     1     144.144 165.657 186.428  0.00  0.00    +0.024 HD
ATOM     66  H   UNL     1     143.679 165.048 188.026  0.00  0.00    +0.024 HD
ATOM     67  H   UNL     1     145.110 164.399 187.213  0.00  0.00    +0.024 HD
ENDBRANCH  26  64
BRANCH  18  68
ATOM     68  C   UNL     1     138.662 169.195 187.153  0.00  0.00    -0.043 C 
ATOM     69  H   UNL     1     137.992 169.004 188.002  0.00  0.00    +0.027 HD
ATOM     70  H   UNL     1     138.023 169.266 186.265  0.00  0.00    +0.027 HD
ATOM     71  H   UNL     1     139.317 168.324 187.027  0.00  0.00    +0.027 HD
ENDBRANCH  18  68
BRANCH   7  72
ATOM     72  C   UNL     1     142.382 174.769 189.078  0.00  0.00    -0.057 C 
ATOM     73  H   UNL     1     142.077 175.692 188.570  0.00  0.00    +0.023 HD
ATOM     74  H   UNL     1     141.876 173.936 188.573  0.00  0.00    +0.023 HD
ATOM     75  H   UNL     1     143.458 174.642 188.941  0.00  0.00    +0.023 HD
ENDBRANCH   7  72
BRANCH  25  76
ATOM     76  C   UNL     1     145.578 167.757 190.341  0.00  0.00    +0.020 C 
ATOM     77  H   UNL     1     146.538 167.932 189.846  0.00  0.00    +0.036 HD
BRANCH  76  78
ATOM     78  C   UNL     1     144.916 169.144 190.507  0.00  0.00    -0.057 C 
ATOM     79  H   UNL     1     145.497 169.928 190.014  0.00  0.00    +0.023 HD
ATOM     80  H   UNL     1     143.907 169.149 190.077  0.00  0.00    +0.023 HD
ATOM     81  H   UNL     1     144.829 169.440 191.554  0.00  0.00    +0.023 HD
ENDBRANCH  76  78
BRANCH  76  82
ATOM     82  C   UNL     1     145.811 167.156 191.768  0.00  0.00    +0.067 C 
ATOM     83  H   UNL     1     145.625 167.966 192.487  0.00  0.00    +0.060 HD
BRANCH  82  84
ATOM     84  C   UNL     1     147.271 166.639 191.993  0.00  0.00    -0.017 C 
ATOM     85  H   UNL     1     147.300 166.056 192.921  0.00  0.00    +0.032 HD
BRANCH  84  86
ATOM     86  C   UNL     1     147.663 165.676 190.860  0.00  0.00    -0.060 C 
ATOM     87  H   UNL     1     146.781 165.171 190.456  0.00  0.00    +0.023 HD
ATOM     88  H   UNL     1     148.336 164.893 191.223  0.00  0.00    +0.023 HD
ATOM     89  H   UNL     1     148.166 166.200 190.040  0.00  0.00    +0.023 HD
ENDBRANCH  84  86
BRANCH  84  90
ATOM     90  C   UNL     1     148.304 167.786 192.107  0.00  0.00    -0.041 C 
ATOM     91  H   UNL     1     148.988 167.599 192.940  0.00  0.00    +0.027 HD
ATOM     92  H   UNL     1     147.796 168.729 192.340  0.00  0.00    +0.027 HD
BRANCH  90  93
ATOM     93  C   UNL     1     149.147 167.963 190.847  0.00  0.00    +0.007 C 
ATOM     94  H   UNL     1     149.250 167.017 190.307  0.00  0.00    +0.034 HD
ATOM     95  H   UNL     1     148.681 168.671 190.151  0.00  0.00    +0.034 HD
BRANCH  93  96
ATOM     96  C   UNL     1     150.518 168.515 191.185  0.00  0.00    +0.139 C 
ATOM     97  O   UNL     1     150.623 169.529 191.880  0.00  0.00    -0.297 OA
BRANCH  96  98
ATOM     98  C   UNL     1     151.738 167.760 190.665  0.00  0.00    +0.041 C 
ATOM     99  H   UNL     1     152.573 168.473 190.660  0.00  0.00    +0.040 HD
BRANCH  98 100
ATOM    100  C   UNL     1     151.534 167.364 189.196  0.00  0.00    -0.053 C 
ATOM    101  H   UNL     1     152.491 167.206 188.687  0.00  0.00    +0.024 HD
ATOM    102  H   UNL     1     151.004 168.157 188.657  0.00  0.00    +0.024 HD
ATOM    103  H   UNL     1     150.939 166.450 189.100  0.00  0.00    +0.024 HD
ENDBRANCH  98 100
BRANCH  98 104
ATOM    104  C   UNL     1     152.144 166.574 191.573  0.00  0.00    +0.071 C 
ATOM    105  H   UNL     1     153.119 166.205 191.223  0.00  0.00    +0.061 HD
BRANCH 104 106
ATOM    106  C   UNL     1     152.237 166.925 193.080  0.00  0.00    -0.006 C 
ATOM    107  H   UNL     1     153.254 166.755 193.457  0.00  0.00    +0.033 HD
ATOM    108  H   UNL     1     152.055 167.995 193.234  0.00  0.00    +0.033 HD
BRANCH 106 109
ATOM    109  C   UNL     1     151.217 166.178 193.891  0.00  0.00    -0.067 C 
ATOM    110  C   UNL     1     151.235 166.109 195.229  0.00  0.00    -0.005 C 
ATOM    111  H   UNL     1     150.444 165.678 193.317  0.00  0.00    +0.059 HD
ATOM    112  H   UNL     1     152.011 166.652 195.768  0.00  0.00    +0.078 HD
BRANCH 110 113
ATOM    113  N   UNL     1     150.364 165.395 196.034  0.00  0.00    -0.284 N 
ATOM    114  C   UNL     1     150.655 164.181 196.653  0.00  0.00    +0.206 C 
ATOM    115  O   UNL     1     151.713 163.566 196.682  0.00  0.00    -0.279 OA
ATOM    116  H   UNL     1     149.779 163.779 197.194  0.00  0.00    +0.126 HD
BRANCH 113 117
ATOM    117  C   UNL     1     149.092 166.039 196.340  0.00  0.00    +0.007 C 
ATOM    118  H   UNL     1     148.415 165.293 196.770  0.00  0.00    +0.043 HD
ATOM    119  H   UNL     1     149.254 166.852 197.054  0.00  0.00    +0.043 HD
ATOM    120  H   UNL     1     148.621 166.449 195.442  0.00  0.00    +0.043 HD
ENDBRANCH 113 117
ENDBRANCH 110 113
ENDBRANCH 106 109
ENDBRANCH 104 106
BRANCH 104 121
ATOM    121  O   UNL     1     151.178 165.522 191.389  0.00  0.00    -0.379 OA
BRANCH 121 122
ATOM    122  C   UNL     1     151.739 164.328 190.856  0.00  0.00    +0.037 C 
ATOM    123  H   UNL     1     151.062 163.901 190.111  0.00  0.00    +0.052 HD
ATOM    124  H   UNL     1     152.720 164.505 190.402  0.00  0.00    +0.052 HD
ATOM    125  H   UNL     1     151.852 163.611 191.672  0.00  0.00    +0.052 HD
ENDBRANCH 121 122
ENDBRANCH 104 121
ENDBRANCH  98 104
ENDBRANCH  96  98
ENDBRANCH  93  96
ENDBRANCH  90  93
ENDBRANCH  84  90
ENDBRANCH  82  84
BRANCH  82 126
ATOM    126  O   UNL     1     144.922 166.072 192.032  0.00  0.00    -0.379 OA
BRANCH 126 127
ATOM    127  C   UNL     1     144.012 166.335 193.094  0.00  0.00    +0.037 C 
ATOM    128  H   UNL     1     143.129 166.822 192.674  0.00  0.00    +0.052 HD
ATOM    129  H   UNL     1     143.702 165.408 193.580  0.00  0.00    +0.052 HD
ATOM    130  H   UNL     1     144.465 167.009 193.829  0.00  0.00    +0.052 HD
ENDBRANCH 126 127
ENDBRANCH  82 126
ENDBRANCH  76  82
ENDBRANCH  25  76
BRANCH  31 131
ATOM    131  O   UNL     1     145.149 171.081 185.017  0.00  0.00    -0.379 OA
BRANCH 131 132
ATOM    132  C   UNL     1     144.006 170.257 184.818  0.00  0.00    +0.037 C 
ATOM    133  H   UNL     1     143.825 169.611 185.681  0.00  0.00    +0.052 HD
ATOM    134  H   UNL     1     143.136 170.907 184.683  0.00  0.00    +0.052 HD
ATOM    135  H   UNL     1     144.125 169.650 183.917  0.00  0.00    +0.052 HD
ENDBRANCH 131 132
ENDBRANCH  31 131
BRANCH  29 136
ATOM    136  O   UNL     1     148.549 168.937 185.515  0.00  0.00    -0.376 OA
BRANCH 136 137
ATOM    137  C   UNL     1     149.150 167.869 186.237  0.00  0.00    +0.037 C 
ATOM    138  H   UNL     1     149.864 167.326 185.608  0.00  0.00    +0.052 HD
ATOM    139  H   UNL     1     148.361 167.178 186.548  0.00  0.00    +0.052 HD
ATOM    140  H   UNL     1     149.653 168.250 187.134  0.00  0.00    +0.052 HD
ENDBRANCH 136 137
ENDBRANCH  29 136
BRANCH  16 141
ATOM    141  O   UNL     1     136.400 171.314 187.810  0.00  0.00    -0.379 OA
BRANCH 141 142
ATOM    142  C   UNL     1     135.731 170.735 188.925  0.00  0.00    +0.037 C 
ATOM    143  H   UNL     1     134.800 171.266 189.142  0.00  0.00    +0.052 HD
ATOM    144  H   UNL     1     135.481 169.703 188.672  0.00  0.00    +0.052 HD
ATOM    145  H   UNL     1     136.375 170.726 189.809  0.00  0.00    +0.052 HD
ENDBRANCH 141 142
ENDBRANCH  16 141
BRANCH   6 146
ATOM    146  O   UNL     1     142.853 174.495 192.838  0.00  0.00    -0.379 OA
BRANCH 146 147
ATOM    147  C   UNL     1     143.063 175.852 193.208  0.00  0.00    +0.037 C 
ATOM    148  H   UNL     1     143.822 175.943 193.990  0.00  0.00    +0.052 HD
ATOM    149  H   UNL     1     143.408 176.396 192.326  0.00  0.00    +0.052 HD
ATOM    150  H   UNL     1     142.125 176.304 193.545  0.00  0.00    +0.052 HD
ENDBRANCH 146 147
ENDBRANCH   6 146
BRANCH   4 151
ATOM    151  O   UNL     1     145.818 173.028 191.260  0.00  0.00    -0.376 OA
BRANCH 151 152
ATOM    152  C   UNL     1     146.812 172.256 191.927  0.00  0.00    +0.037 C 
ATOM    153  H   UNL     1     147.370 172.876 192.637  0.00  0.00    +0.052 HD
ATOM    154  H   UNL     1     146.309 171.461 192.486  0.00  0.00    +0.052 HD
ATOM    155  H   UNL     1     147.493 171.792 191.210  0.00  0.00    +0.052 HD
ENDBRANCH 151 152
ENDBRANCH   4 151
TORSDOF 33
ENDMDL
MODEL 8
REMARK VINA RESULT:      -4.9     16.045     19.322
REMARK  Name = Reidispongiolide A_conf2
REMARK  33 active torsions:
REMARK  status: ('A' for Active; 'I' for Inactive)
REMARK    1  A    between atoms: C_1  and  C_2
REMARK    2  A    between atoms: C_5  and  O_67
REMARK    3  A    between atoms: C_7  and  O_65
REMARK    4  A    between atoms: C_8  and  C_64
REMARK    5  A    between atoms: C_17  and  O_62
REMARK    6  A    between atoms: C_19  and  C_61
REMARK    7  A    between atoms: C_26  and  C_38
REMARK    8  A    between atoms: C_27  and  C_37
REMARK    9  A    between atoms: C_30  and  O_35
REMARK   10  A    between atoms: C_32  and  O_33
REMARK   11  A    between atoms: O_33  and  C_34
REMARK   12  A    between atoms: O_35  and  C_36
REMARK   13  A    between atoms: C_38  and  C_39
REMARK   14  A    between atoms: C_38  and  C_40
REMARK   15  A    between atoms: C_40  and  C_41
REMARK   16  A    between atoms: C_40  and  O_59
REMARK   17  A    between atoms: C_41  and  C_42
REMARK   18  A    between atoms: C_41  and  C_43
REMARK   19  A    between atoms: C_43  and  C_44
REMARK   20  A    between atoms: C_44  and  C_45
REMARK   21  A    between atoms: C_45  and  C_47
REMARK   22  A    between atoms: C_47  and  C_48
REMARK   23  A    between atoms: C_47  and  C_49
REMARK   24  A    between atoms: C_49  and  C_50
REMARK   25  A    between atoms: C_49  and  O_57
REMARK   26  A    between atoms: C_50  and  C_51
REMARK   27  A    between atoms: C_52  and  N_53
REMARK   28  A    between atoms: N_53  and  C_54
REMARK   29  A    between atoms: O_57  and  C_58
REMARK   30  A    between atoms: O_59  and  C_60
REMARK   31  A    between atoms: O_62  and  C_63
REMARK   32  A    between atoms: O_65  and  C_66
REMARK   33  A    between atoms: O_67  and  C_68
REMARK                            x       y       z     vdW  Elec       q    Type
REMARK                         _______ _______ _______ _____ _____    ______ ____
ROOT
ATOM      1  C   UNL     1     130.477 160.153 195.152  0.00  0.00    +0.001 C 
ATOM      2  C   UNL     1     129.457 159.992 196.266  0.00  0.00    -0.080 C 
ATOM      3  C   UNL     1     129.751 159.664 197.539  0.00  0.00    -0.059 C 
ATOM      4  C   UNL     1     128.792 159.477 198.689  0.00  0.00    +0.079 C 
ATOM      5  C   UNL     1     129.125 158.212 199.517  0.00  0.00    +0.004 C 
ATOM      6  C   UNL     1     128.546 156.884 198.991  0.00  0.00    +0.067 C 
ATOM      7  C   UNL     1     129.560 155.807 198.503  0.00  0.00    +0.020 C 
ATOM      8  C   UNL     1     130.579 155.175 199.497  0.00  0.00    +0.112 C 
ATOM      9  C   UNL     1     131.841 155.992 199.808  0.00  0.00    +0.006 C 
ATOM     10  C   UNL     1     132.714 155.259 200.785  0.00  0.00    -0.057 C 
ATOM     11  C   UNL     1     132.146 154.353 201.604  0.00  0.00    +0.022 C 
ATOM     12  C   UNL     1     130.686 154.120 201.649  0.00  0.00    +0.332 C 
ATOM     13  O   UNL     1     130.193 153.443 202.539  0.00  0.00    -0.246 OA
ATOM     14  O   UNL     1     129.937 154.749 200.707  0.00  0.00    -0.458 OA
ATOM     15  C   UNL     1     134.167 155.661 200.943  0.00  0.00    -0.004 C 
ATOM     16  C   UNL     1     135.139 155.403 199.765  0.00  0.00    +0.066 C 
ATOM     17  C   UNL     1     135.135 156.481 198.645  0.00  0.00    -0.005 C 
ATOM     18  C   UNL     1     135.099 157.935 199.099  0.00  0.00    -0.070 C 
ATOM     19  C   UNL     1     134.026 158.698 198.820  0.00  0.00    -0.062 C 
ATOM     20  C   UNL     1     133.758 160.064 199.198  0.00  0.00    -0.055 C 
ATOM     21  C   UNL     1     133.831 160.546 200.453  0.00  0.00    +0.023 C 
ATOM     22  C   UNL     1     133.389 161.909 200.829  0.00  0.00    +0.332 C 
ATOM     23  O   UNL     1     133.569 162.381 201.938  0.00  0.00    -0.246 OA
ATOM     24  O   UNL     1     132.713 162.480 199.809  0.00  0.00    -0.457 OA
ATOM     25  C   UNL     1     132.058 163.766 200.020  0.00  0.00    +0.114 C 
ATOM     26  C   UNL     1     132.633 164.714 198.925  0.00  0.00    +0.012 C 
ATOM     27  C   UNL     1     132.582 164.136 197.521  0.00  0.00    -0.079 C 
ATOM     28  C   UNL     1     131.613 164.401 196.630  0.00  0.00    -0.059 C 
ATOM     29  C   UNL     1     131.600 163.926 195.202  0.00  0.00    +0.079 C 
ATOM     30  C   UNL     1     130.721 162.683 195.011  0.00  0.00    +0.004 C 
ATOM     31  C   UNL     1     131.435 161.365 195.373  0.00  0.00    +0.067 C 
ATOM     32  H   UNL     1     129.911 160.339 194.228  0.00  0.00    +0.037 HD
ATOM     33  H   UNL     1     128.416 160.142 195.980  0.00  0.00    +0.057 HD
ATOM     34  H   UNL     1     130.799 159.553 197.805  0.00  0.00    +0.059 HD
ATOM     35  H   UNL     1     128.954 160.347 199.333  0.00  0.00    +0.064 HD
ATOM     36  H   UNL     1     130.206 158.164 199.637  0.00  0.00    +0.032 HD
ATOM     37  H   UNL     1     128.729 158.392 200.529  0.00  0.00    +0.032 HD
ATOM     38  H   UNL     1     127.872 157.106 198.152  0.00  0.00    +0.060 HD
ATOM     39  H   UNL     1     128.925 154.951 198.223  0.00  0.00    +0.036 HD
ATOM     40  H   UNL     1     130.920 154.250 199.000  0.00  0.00    +0.074 HD
ATOM     41  H   UNL     1     131.617 156.960 200.258  0.00  0.00    +0.035 HD
ATOM     42  H   UNL     1     132.381 156.153 198.875  0.00  0.00    +0.035 HD
ATOM     43  H   UNL     1     132.706 153.829 202.370  0.00  0.00    +0.069 HD
ATOM     44  H   UNL     1     134.572 155.130 201.817  0.00  0.00    +0.034 HD
ATOM     45  H   UNL     1     134.200 156.714 201.249  0.00  0.00    +0.034 HD
ATOM     46  H   UNL     1     134.882 154.433 199.315  0.00  0.00    +0.060 HD
ATOM     47  H   UNL     1     134.287 156.280 197.979  0.00  0.00    +0.034 HD
ATOM     48  H   UNL     1     136.021 156.365 198.004  0.00  0.00    +0.034 HD
ATOM     49  H   UNL     1     133.225 158.269 198.216  0.00  0.00    +0.062 HD
ATOM     50  H   UNL     1     133.364 160.686 198.393  0.00  0.00    +0.062 HD
ATOM     51  H   UNL     1     134.184 159.942 201.281  0.00  0.00    +0.069 HD
ATOM     52  H   UNL     1     132.324 164.167 201.008  0.00  0.00    +0.074 HD
ATOM     53  H   UNL     1     132.101 165.666 198.918  0.00  0.00    +0.038 HD
ATOM     54  H   UNL     1     133.411 163.494 197.234  0.00  0.00    +0.057 HD
ATOM     55  H   UNL     1     130.781 165.043 196.922  0.00  0.00    +0.059 HD
ATOM     56  H   UNL     1     132.618 163.725 194.842  0.00  0.00    +0.064 HD
ATOM     57  H   UNL     1     130.411 162.639 193.957  0.00  0.00    +0.032 HD
ATOM     58  H   UNL     1     129.801 162.787 195.596  0.00  0.00    +0.032 HD
ATOM     59  H   UNL     1     131.752 161.409 196.422  0.00  0.00    +0.060 HD
ENDROOT
BRANCH   1  60
ATOM     60  C   UNL     1     131.210 158.829 194.905  0.00  0.00    -0.057 C 
ATOM     61  H   UNL     1     132.267 158.911 195.182  0.00  0.00    +0.024 HD
ATOM     62  H   UNL     1     131.157 158.525 193.857  0.00  0.00    +0.024 HD
ATOM     63  H   UNL     1     130.786 158.022 195.513  0.00  0.00    +0.024 HD
ENDBRANCH   1  60
BRANCH  26  64
ATOM     64  C   UNL     1     134.095 165.066 199.250  0.00  0.00    -0.056 C 
ATOM     65  H   UNL     1     134.176 165.655 200.168  0.00  0.00    +0.024 HD
ATOM     66  H   UNL     1     134.542 165.645 198.434  0.00  0.00    +0.024 HD
ATOM     67  H   UNL     1     134.693 164.157 199.380  0.00  0.00    +0.024 HD
ENDBRANCH  26  64
BRANCH  18  68
ATOM     68  C   UNL     1     136.332 158.413 199.818  0.00  0.00    -0.043 C 
ATOM     69  H   UNL     1     136.276 159.497 199.987  0.00  0.00    +0.027 HD
ATOM     70  H   UNL     1     136.460 157.953 200.805  0.00  0.00    +0.027 HD
ATOM     71  H   UNL     1     137.232 158.202 199.229  0.00  0.00    +0.027 HD
ENDBRANCH  18  68
BRANCH   7  72
ATOM     72  C   UNL     1     130.244 156.241 197.205  0.00  0.00    -0.057 C 
ATOM     73  H   UNL     1     131.323 156.050 197.257  0.00  0.00    +0.023 HD
ATOM     74  H   UNL     1     130.110 157.317 197.034  0.00  0.00    +0.023 HD
ATOM     75  H   UNL     1     129.844 155.710 196.338  0.00  0.00    +0.023 HD
ENDBRANCH   7  72
BRANCH  25  76
ATOM     76  C   UNL     1     130.511 163.526 200.001  0.00  0.00    +0.020 C 
ATOM     77  H   UNL     1     130.313 162.744 199.262  0.00  0.00    +0.036 HD
BRANCH  76  78
ATOM     78  C   UNL     1     130.058 162.959 201.366  0.00  0.00    -0.057 C 
ATOM     79  H   UNL     1     130.398 161.931 201.507  0.00  0.00    +0.023 HD
ATOM     80  H   UNL     1     130.453 163.565 202.191  0.00  0.00    +0.023 HD
ATOM     81  H   UNL     1     128.971 162.938 201.466  0.00  0.00    +0.023 HD
ENDBRANCH  76  78
BRANCH  76  82
ATOM     82  C   UNL     1     129.645 164.792 199.688  0.00  0.00    +0.067 C 
ATOM     83  H   UNL     1     130.079 165.260 198.794  0.00  0.00    +0.060 HD
BRANCH  82  84
ATOM     84  C   UNL     1     129.658 165.853 200.839  0.00  0.00    -0.017 C 
ATOM     85  H   UNL     1     130.288 165.482 201.655  0.00  0.00    +0.032 HD
BRANCH  84  86
ATOM     86  C   UNL     1     130.311 167.154 200.341  0.00  0.00    -0.060 C 
ATOM     87  H   UNL     1     131.190 166.938 199.727  0.00  0.00    +0.023 HD
ATOM     88  H   UNL     1     130.655 167.769 201.178  0.00  0.00    +0.023 HD
ATOM     89  H   UNL     1     129.614 167.754 199.745  0.00  0.00    +0.023 HD
ENDBRANCH  84  86
BRANCH  84  90
ATOM     90  C   UNL     1     128.248 166.143 201.406  0.00  0.00    -0.041 C 
ATOM     91  H   UNL     1     127.688 165.210 201.524  0.00  0.00    +0.027 HD
ATOM     92  H   UNL     1     127.673 166.750 200.696  0.00  0.00    +0.027 HD
BRANCH  90  93
ATOM     93  C   UNL     1     128.276 166.841 202.763  0.00  0.00    +0.007 C 
ATOM     94  H   UNL     1     129.229 167.356 202.919  0.00  0.00    +0.034 HD
ATOM     95  H   UNL     1     127.492 167.604 202.836  0.00  0.00    +0.034 HD
BRANCH  93  96
ATOM     96  C   UNL     1     128.035 165.853 203.887  0.00  0.00    +0.139 C 
ATOM     97  O   UNL     1     127.707 164.691 203.630  0.00  0.00    -0.297 OA
BRANCH  96  98
ATOM     98  C   UNL     1     128.242 166.337 205.319  0.00  0.00    +0.041 C 
ATOM     99  H   UNL     1     127.817 165.568 205.978  0.00  0.00    +0.040 HD
BRANCH  98 100
ATOM    100  C   UNL     1     127.412 167.601 205.580  0.00  0.00    -0.053 C 
ATOM    101  H   UNL     1     126.550 167.389 206.222  0.00  0.00    +0.024 HD
ATOM    102  H   UNL     1     127.025 168.004 204.637  0.00  0.00    +0.024 HD
ATOM    103  H   UNL     1     128.007 168.389 206.052  0.00  0.00    +0.024 HD
ENDBRANCH  98 100
BRANCH  98 104
ATOM    104  C   UNL     1     129.737 166.493 205.691  0.00  0.00    +0.071 C 
ATOM    105  H   UNL     1     130.328 165.980 204.919  0.00  0.00    +0.061 HD
BRANCH 104 106
ATOM    106  C   UNL     1     130.215 167.963 205.815  0.00  0.00    -0.006 C 
ATOM    107  H   UNL     1     129.359 168.650 205.838  0.00  0.00    +0.033 HD
ATOM    108  H   UNL     1     130.726 168.117 206.772  0.00  0.00    +0.033 HD
BRANCH 106 109
ATOM    109  C   UNL     1     131.186 168.327 204.728  0.00  0.00    -0.067 C 
ATOM    110  C   UNL     1     131.832 167.427 203.974  0.00  0.00    -0.005 C 
ATOM    111  H   UNL     1     131.345 169.392 204.586  0.00  0.00    +0.059 HD
ATOM    112  H   UNL     1     131.619 166.370 204.130  0.00  0.00    +0.078 HD
BRANCH 110 113
ATOM    113  N   UNL     1     132.779 167.689 202.999  0.00  0.00    -0.284 N 
ATOM    114  C   UNL     1     133.727 166.780 202.535  0.00  0.00    +0.206 C 
ATOM    115  O   UNL     1     133.860 165.596 202.818  0.00  0.00    -0.279 OA
ATOM    116  H   UNL     1     134.409 167.241 201.799  0.00  0.00    +0.126 HD
BRANCH 113 117
ATOM    117  C   UNL     1     132.682 168.984 202.335  0.00  0.00    +0.007 C 
ATOM    118  H   UNL     1     131.706 169.424 202.566  0.00  0.00    +0.043 HD
ATOM    119  H   UNL     1     133.481 169.640 202.691  0.00  0.00    +0.043 HD
ATOM    120  H   UNL     1     132.765 168.887 201.249  0.00  0.00    +0.043 HD
ENDBRANCH 113 117
ENDBRANCH 110 113
ENDBRANCH 106 109
ENDBRANCH 104 106
BRANCH 104 121
ATOM    121  O   UNL     1     129.957 165.816 206.943  0.00  0.00    -0.379 OA
BRANCH 121 122
ATOM    122  C   UNL     1     130.388 166.684 207.986  0.00  0.00    +0.037 C 
ATOM    123  H   UNL     1     129.564 166.865 208.682  0.00  0.00    +0.052 HD
ATOM    124  H   UNL     1     131.245 166.272 208.531  0.00  0.00    +0.052 HD
ATOM    125  H   UNL     1     130.678 167.636 207.537  0.00  0.00    +0.052 HD
ENDBRANCH 121 122
ENDBRANCH 104 121
ENDBRANCH  98 104
ENDBRANCH  96  98
ENDBRANCH  93  96
ENDBRANCH  90  93
ENDBRANCH  84  90
ENDBRANCH  82  84
BRANCH  82 126
ATOM    126  O   UNL     1     128.285 164.448 199.433  0.00  0.00    -0.379 OA
BRANCH 126 127
ATOM    127  C   UNL     1     128.117 163.624 198.285  0.00  0.00    +0.037 C 
ATOM    128  H   UNL     1     128.560 162.648 198.498  0.00  0.00    +0.052 HD
ATOM    129  H   UNL     1     127.059 163.485 198.056  0.00  0.00    +0.052 HD
ATOM    130  H   UNL     1     128.633 164.058 197.423  0.00  0.00    +0.052 HD
ENDBRANCH 126 127
ENDBRANCH  82 126
ENDBRANCH  76  82
ENDBRANCH  25  76
BRANCH  31 131
ATOM    131  O   UNL     1     132.582 161.246 194.516  0.00  0.00    -0.379 OA
BRANCH 131 132
ATOM    132  C   UNL     1     132.284 161.445 193.139  0.00  0.00    +0.037 C 
ATOM    133  H   UNL     1     131.736 160.596 192.722  0.00  0.00    +0.052 HD
ATOM    134  H   UNL     1     131.660 162.340 193.050  0.00  0.00    +0.052 HD
ATOM    135  H   UNL     1     133.203 161.610 192.570  0.00  0.00    +0.052 HD
ENDBRANCH 131 132
ENDBRANCH  31 131
BRANCH  29 136
ATOM    136  O   UNL     1     131.018 164.980 194.421  0.00  0.00    -0.376 OA
BRANCH 136 137
ATOM    137  C   UNL     1     129.786 165.441 194.964  0.00  0.00    +0.037 C 
ATOM    138  H   UNL     1     129.873 165.602 196.044  0.00  0.00    +0.052 HD
ATOM    139  H   UNL     1     129.025 164.678 194.784  0.00  0.00    +0.052 HD
ATOM    140  H   UNL     1     129.475 166.369 194.470  0.00  0.00    +0.052 HD
ENDBRANCH 136 137
ENDBRANCH  29 136
BRANCH  16 141
ATOM    141  O   UNL     1     136.457 155.290 200.340  0.00  0.00    -0.379 OA
BRANCH 141 142
ATOM    142  C   UNL     1     136.878 153.949 200.568  0.00  0.00    +0.037 C 
ATOM    143  H   UNL     1     137.257 153.826 201.586  0.00  0.00    +0.052 HD
ATOM    144  H   UNL     1     136.012 153.296 200.448  0.00  0.00    +0.052 HD
ATOM    145  H   UNL     1     137.639 153.647 199.843  0.00  0.00    +0.052 HD
ENDBRANCH 141 142
ENDBRANCH  16 141
BRANCH   6 146
ATOM    146  O   UNL     1     127.749 156.356 200.067  0.00  0.00    -0.379 OA
BRANCH 146 147
ATOM    147  C   UNL     1     126.348 156.530 199.886  0.00  0.00    +0.037 C 
ATOM    148  H   UNL     1     126.034 156.241 198.879  0.00  0.00    +0.052 HD
ATOM    149  H   UNL     1     125.830 155.893 200.607  0.00  0.00    +0.052 HD
ATOM    150  H   UNL     1     126.066 157.569 200.081  0.00  0.00    +0.052 HD
ENDBRANCH 146 147
ENDBRANCH   6 146
BRANCH   4 151
ATOM    151  O   UNL     1     127.442 159.511 198.229  0.00  0.00    -0.376 OA
BRANCH 151 152
ATOM    152  C   UNL     1     126.573 160.231 199.098  0.00  0.00    +0.037 C 
ATOM    153  H   UNL     1     126.088 161.054 198.564  0.00  0.00    +0.052 HD
ATOM    154  H   UNL     1     125.798 159.545 199.451  0.00  0.00    +0.052 HD
ATOM    155  H   UNL     1     127.116 160.610 199.968  0.00  0.00    +0.052 HD
ENDBRANCH 151 152
ENDBRANCH   4 151
TORSDOF 33
ENDMDL
MODEL 9
REMARK VINA RESULT:      -4.8      5.083      9.147
REMARK  Name = Reidispongiolide A_conf2
REMARK  33 active torsions:
REMARK  status: ('A' for Active; 'I' for Inactive)
REMARK    1  A    between atoms: C_1  and  C_2
REMARK    2  A    between atoms: C_5  and  O_67
REMARK    3  A    between atoms: C_7  and  O_65
REMARK    4  A    between atoms: C_8  and  C_64
REMARK    5  A    between atoms: C_17  and  O_62
REMARK    6  A    between atoms: C_19  and  C_61
REMARK    7  A    between atoms: C_26  and  C_38
REMARK    8  A    between atoms: C_27  and  C_37
REMARK    9  A    between atoms: C_30  and  O_35
REMARK   10  A    between atoms: C_32  and  O_33
REMARK   11  A    between atoms: O_33  and  C_34
REMARK   12  A    between atoms: O_35  and  C_36
REMARK   13  A    between atoms: C_38  and  C_39
REMARK   14  A    between atoms: C_38  and  C_40
REMARK   15  A    between atoms: C_40  and  C_41
REMARK   16  A    between atoms: C_40  and  O_59
REMARK   17  A    between atoms: C_41  and  C_42
REMARK   18  A    between atoms: C_41  and  C_43
REMARK   19  A    between atoms: C_43  and  C_44
REMARK   20  A    between atoms: C_44  and  C_45
REMARK   21  A    between atoms: C_45  and  C_47
REMARK   22  A    between atoms: C_47  and  C_48
REMARK   23  A    between atoms: C_47  and  C_49
REMARK   24  A    between atoms: C_49  and  C_50
REMARK   25  A    between atoms: C_49  and  O_57
REMARK   26  A    between atoms: C_50  and  C_51
REMARK   27  A    between atoms: C_52  and  N_53
REMARK   28  A    between atoms: N_53  and  C_54
REMARK   29  A    between atoms: O_57  and  C_58
REMARK   30  A    between atoms: O_59  and  C_60
REMARK   31  A    between atoms: O_62  and  C_63
REMARK   32  A    between atoms: O_65  and  C_66
REMARK   33  A    between atoms: O_67  and  C_68
REMARK                            x       y       z     vdW  Elec       q    Type
REMARK                         _______ _______ _______ _____ _____    ______ ____
ROOT
ATOM      1  C   UNL     1     153.148 160.671 184.578  0.00  0.00    +0.001 C 
ATOM      2  C   UNL     1     152.546 160.435 185.953  0.00  0.00    -0.080 C 
ATOM      3  C   UNL     1     153.184 160.646 187.120  0.00  0.00    -0.059 C 
ATOM      4  C   UNL     1     152.652 160.422 188.515  0.00  0.00    +0.079 C 
ATOM      5  C   UNL     1     153.688 159.711 189.419  0.00  0.00    +0.004 C 
ATOM      6  C   UNL     1     153.723 158.172 189.330  0.00  0.00    +0.067 C 
ATOM      7  C   UNL     1     155.020 157.520 188.764  0.00  0.00    +0.020 C 
ATOM      8  C   UNL     1     156.377 157.686 189.511  0.00  0.00    +0.112 C 
ATOM      9  C   UNL     1     157.133 159.002 189.288  0.00  0.00    +0.006 C 
ATOM     10  C   UNL     1     158.409 159.015 190.079  0.00  0.00    -0.057 C 
ATOM     11  C   UNL     1     158.496 158.238 191.175  0.00  0.00    +0.022 C 
ATOM     12  C   UNL     1     157.356 157.447 191.687  0.00  0.00    +0.332 C 
ATOM     13  O   UNL     1     157.412 156.918 192.788  0.00  0.00    -0.246 OA
ATOM     14  O   UNL     1     156.243 157.406 190.911  0.00  0.00    -0.458 OA
ATOM     15  C   UNL     1     159.500 160.009 189.730  0.00  0.00    -0.004 C 
ATOM     16  C   UNL     1     160.248 159.844 188.384  0.00  0.00    +0.066 C 
ATOM     17  C   UNL     1     159.532 160.446 187.143  0.00  0.00    -0.005 C 
ATOM     18  C   UNL     1     158.895 161.818 187.323  0.00  0.00    -0.070 C 
ATOM     19  C   UNL     1     157.557 161.952 187.240  0.00  0.00    -0.062 C 
ATOM     20  C   UNL     1     156.747 163.130 187.432  0.00  0.00    -0.055 C 
ATOM     21  C   UNL     1     156.808 163.941 188.504  0.00  0.00    +0.023 C 
ATOM     22  C   UNL     1     155.848 165.044 188.746  0.00  0.00    +0.332 C 
ATOM     23  O   UNL     1     155.980 165.849 189.652  0.00  0.00    -0.246 OA
ATOM     24  O   UNL     1     154.812 164.960 187.885  0.00  0.00    -0.457 OA
ATOM     25  C   UNL     1     153.676 165.861 188.048  0.00  0.00    +0.114 C 
ATOM     26  C   UNL     1     153.526 166.597 186.683  0.00  0.00    +0.012 C 
ATOM     27  C   UNL     1     153.503 165.667 185.481  0.00  0.00    -0.079 C 
ATOM     28  C   UNL     1     152.382 165.236 184.882  0.00  0.00    -0.059 C 
ATOM     29  C   UNL     1     152.338 164.405 183.628  0.00  0.00    +0.079 C 
ATOM     30  C   UNL     1     152.135 162.914 183.927  0.00  0.00    +0.004 C 
ATOM     31  C   UNL     1     153.440 162.177 184.290  0.00  0.00    +0.067 C 
ATOM     32  H   UNL     1     152.405 160.329 183.843  0.00  0.00    +0.037 HD
ATOM     33  H   UNL     1     151.526 160.051 185.963  0.00  0.00    +0.057 HD
ATOM     34  H   UNL     1     154.187 161.060 187.083  0.00  0.00    +0.059 HD
ATOM     35  H   UNL     1     152.496 161.428 188.919  0.00  0.00    +0.064 HD
ATOM     36  H   UNL     1     154.664 160.150 189.223  0.00  0.00    +0.032 HD
ATOM     37  H   UNL     1     153.444 159.997 190.454  0.00  0.00    +0.032 HD
ATOM     38  H   UNL     1     152.886 157.841 188.700  0.00  0.00    +0.060 HD
ATOM     39  H   UNL     1     154.827 156.438 188.839  0.00  0.00    +0.036 HD
ATOM     40  H   UNL     1     157.019 156.883 189.108  0.00  0.00    +0.074 HD
ATOM     41  H   UNL     1     156.562 159.876 189.605  0.00  0.00    +0.035 HD
ATOM     42  H   UNL     1     157.354 159.092 188.224  0.00  0.00    +0.035 HD
ATOM     43  H   UNL     1     159.365 158.240 191.823  0.00  0.00    +0.069 HD
ATOM     44  H   UNL     1     160.258 159.973 190.526  0.00  0.00    +0.034 HD
ATOM     45  H   UNL     1     159.084 161.020 189.822  0.00  0.00    +0.034 HD
ATOM     46  H   UNL     1     160.405 158.770 188.208  0.00  0.00    +0.060 HD
ATOM     47  H   UNL     1     158.776 159.728 186.801  0.00  0.00    +0.034 HD
ATOM     48  H   UNL     1     160.235 160.526 186.301  0.00  0.00    +0.034 HD
ATOM     49  H   UNL     1     156.962 161.075 186.984  0.00  0.00    +0.062 HD
ATOM     50  H   UNL     1     155.968 163.268 186.682  0.00  0.00    +0.062 HD
ATOM     51  H   UNL     1     157.547 163.807 189.286  0.00  0.00    +0.069 HD
ATOM     52  H   UNL     1     153.893 166.604 188.828  0.00  0.00    +0.074 HD
ATOM     53  H   UNL     1     152.615 167.196 186.664  0.00  0.00    +0.038 HD
ATOM     54  H   UNL     1     154.470 165.373 185.082  0.00  0.00    +0.057 HD
ATOM     55  H   UNL     1     151.412 165.531 185.287  0.00  0.00    +0.059 HD
ATOM     56  H   UNL     1     153.245 164.547 183.026  0.00  0.00    +0.064 HD
ATOM     57  H   UNL     1     151.699 162.441 183.035  0.00  0.00    +0.032 HD
ATOM     58  H   UNL     1     151.397 162.794 184.728  0.00  0.00    +0.032 HD
ATOM     59  H   UNL     1     153.881 162.651 185.175  0.00  0.00    +0.060 HD
ENDROOT
BRANCH   1  60
ATOM     60  C   UNL     1     154.363 159.760 184.365  0.00  0.00    -0.057 C 
ATOM     61  H   UNL     1     155.119 159.930 185.140  0.00  0.00    +0.024 HD
ATOM     62  H   UNL     1     154.831 159.928 183.393  0.00  0.00    +0.024 HD
ATOM     63  H   UNL     1     154.080 158.703 184.426  0.00  0.00    +0.024 HD
ENDBRANCH   1  60
BRANCH  26  64
ATOM     64  C   UNL     1     154.678 167.599 186.497  0.00  0.00    -0.056 C 
ATOM     65  H   UNL     1     155.532 167.145 185.988  0.00  0.00    +0.024 HD
ATOM     66  H   UNL     1     155.020 167.976 187.467  0.00  0.00    +0.024 HD
ATOM     67  H   UNL     1     154.350 168.459 185.902  0.00  0.00    +0.024 HD
ENDBRANCH  26  64
BRANCH  18  68
ATOM     68  C   UNL     1     159.860 162.950 187.551  0.00  0.00    -0.043 C 
ATOM     69  H   UNL     1     159.502 163.595 188.365  0.00  0.00    +0.027 HD
ATOM     70  H   UNL     1     160.860 162.609 187.844  0.00  0.00    +0.027 HD
ATOM     71  H   UNL     1     159.964 163.560 186.647  0.00  0.00    +0.027 HD
ENDBRANCH  18  68
BRANCH   7  72
ATOM     72  C   UNL     1     155.170 157.798 187.267  0.00  0.00    -0.057 C 
ATOM     73  H   UNL     1     155.756 157.006 186.786  0.00  0.00    +0.023 HD
ATOM     74  H   UNL     1     155.699 158.745 187.098  0.00  0.00    +0.023 HD
ATOM     75  H   UNL     1     154.202 157.859 186.766  0.00  0.00    +0.023 HD
ENDBRANCH   7  72
BRANCH  25  76
ATOM     76  C   UNL     1     152.453 165.009 188.527  0.00  0.00    +0.020 C 
ATOM     77  H   UNL     1     151.954 164.626 187.631  0.00  0.00    +0.036 HD
BRANCH  76  78
ATOM     78  C   UNL     1     152.955 163.773 189.307  0.00  0.00    -0.057 C 
ATOM     79  H   UNL     1     152.268 163.497 190.110  0.00  0.00    +0.023 HD
ATOM     80  H   UNL     1     153.061 162.908 188.640  0.00  0.00    +0.023 HD
ATOM     81  H   UNL     1     153.924 163.945 189.778  0.00  0.00    +0.023 HD
ENDBRANCH  76  78
BRANCH  76  82
ATOM     82  C   UNL     1     151.425 165.770 189.431  0.00  0.00    +0.067 C 
ATOM     83  H   UNL     1     151.253 166.748 188.961  0.00  0.00    +0.060 HD
BRANCH  82  84
ATOM     84  C   UNL     1     151.944 166.021 190.886  0.00  0.00    -0.017 C 
ATOM     85  H   UNL     1     152.952 165.601 190.979  0.00  0.00    +0.032 HD
BRANCH  84  86
ATOM     86  C   UNL     1     152.076 167.532 191.138  0.00  0.00    -0.060 C 
ATOM     87  H   UNL     1     152.817 167.735 191.916  0.00  0.00    +0.023 HD
ATOM     88  H   UNL     1     151.130 167.958 191.485  0.00  0.00    +0.023 HD
ATOM     89  H   UNL     1     152.374 168.069 190.230  0.00  0.00    +0.023 HD
ENDBRANCH  84  86
BRANCH  84  90
ATOM     90  C   UNL     1     151.045 165.372 191.965  0.00  0.00    -0.041 C 
ATOM     91  H   UNL     1     151.364 164.342 192.155  0.00  0.00    +0.027 HD
ATOM     92  H   UNL     1     150.011 165.305 191.605  0.00  0.00    +0.027 HD
BRANCH  90  93
ATOM     93  C   UNL     1     151.070 166.117 193.297  0.00  0.00    +0.007 C 
ATOM     94  H   UNL     1     152.056 166.051 193.765  0.00  0.00    +0.034 HD
ATOM     95  H   UNL     1     150.859 167.184 193.161  0.00  0.00    +0.034 HD
BRANCH  93  96
ATOM     96  C   UNL     1     150.015 165.575 194.241  0.00  0.00    +0.139 C 
ATOM     97  O   UNL     1     150.136 164.445 194.722  0.00  0.00    -0.297 OA
BRANCH  96  98
ATOM     98  C   UNL     1     148.837 166.481 194.589  0.00  0.00    +0.041 C 
ATOM     99  H   UNL     1     149.232 167.503 194.659  0.00  0.00    +0.040 HD
BRANCH  98 100
ATOM    100  C   UNL     1     148.309 166.153 195.993  0.00  0.00    -0.053 C 
ATOM    101  H   UNL     1     148.730 166.828 196.747  0.00  0.00    +0.024 HD
ATOM    102  H   UNL     1     148.589 165.132 196.277  0.00  0.00    +0.024 HD
ATOM    103  H   UNL     1     147.218 166.219 196.044  0.00  0.00    +0.024 HD
ENDBRANCH  98 100
BRANCH  98 104
ATOM    104  C   UNL     1     147.735 166.481 193.501  0.00  0.00    +0.071 C 
ATOM    105  H   UNL     1     148.104 165.884 192.655  0.00  0.00    +0.061 HD
BRANCH 104 106
ATOM    106  C   UNL     1     146.370 165.918 193.973  0.00  0.00    -0.006 C 
ATOM    107  H   UNL     1     146.438 164.839 194.162  0.00  0.00    +0.033 HD
ATOM    108  H   UNL     1     146.091 166.356 194.938  0.00  0.00    +0.033 HD
BRANCH 106 109
ATOM    109  C   UNL     1     145.268 166.239 193.003  0.00  0.00    -0.067 C 
ATOM    110  C   UNL     1     144.057 166.677 193.371  0.00  0.00    -0.005 C 
ATOM    111  H   UNL     1     145.513 166.087 191.957  0.00  0.00    +0.059 HD
ATOM    112  H   UNL     1     143.864 166.846 194.430  0.00  0.00    +0.078 HD
BRANCH 110 113
ATOM    113  N   UNL     1     142.981 166.936 192.539  0.00  0.00    -0.284 N 
ATOM    114  C   UNL     1     142.772 168.126 191.844  0.00  0.00    +0.206 C 
ATOM    115  O   UNL     1     143.501 169.107 191.761  0.00  0.00    -0.279 OA
ATOM    116  H   UNL     1     141.814 168.115 191.295  0.00  0.00    +0.126 HD
BRANCH 113 117
ATOM    117  C   UNL     1     142.071 165.824 192.293  0.00  0.00    +0.007 C 
ATOM    118  H   UNL     1     141.907 165.291 193.235  0.00  0.00    +0.043 HD
ATOM    119  H   UNL     1     141.121 166.205 191.909  0.00  0.00    +0.043 HD
ATOM    120  H   UNL     1     142.486 165.117 191.568  0.00  0.00    +0.043 HD
ENDBRANCH 113 117
ENDBRANCH 110 113
ENDBRANCH 106 109
ENDBRANCH 104 106
BRANCH 104 121
ATOM    121  O   UNL     1     147.558 167.836 193.047  0.00  0.00    -0.379 OA
BRANCH 121 122
ATOM    122  C   UNL     1     148.298 168.137 191.869  0.00  0.00    +0.037 C 
ATOM    123  H   UNL     1     147.867 167.606 191.015  0.00  0.00    +0.052 HD
ATOM    124  H   UNL     1     148.315 169.213 191.662  0.00  0.00    +0.052 HD
ATOM    125  H   UNL     1     149.323 167.788 192.012  0.00  0.00    +0.052 HD
ENDBRANCH 121 122
ENDBRANCH 104 121
ENDBRANCH  98 104
ENDBRANCH  96  98
ENDBRANCH  93  96
ENDBRANCH  90  93
ENDBRANCH  84  90
ENDBRANCH  82  84
BRANCH  82 126
ATOM    126  O   UNL     1     150.189 165.064 189.528  0.00  0.00    -0.379 OA
BRANCH 126 127
ATOM    127  C   UNL     1     149.153 165.629 188.732  0.00  0.00    +0.037 C 
ATOM    128  H   UNL     1     148.535 164.813 188.349  0.00  0.00    +0.052 HD
ATOM    129  H   UNL     1     148.524 166.295 189.326  0.00  0.00    +0.052 HD
ATOM    130  H   UNL     1     149.577 166.173 187.882  0.00  0.00    +0.052 HD
ENDBRANCH 126 127
ENDBRANCH  82 126
ENDBRANCH  76  82
ENDBRANCH  25  76
BRANCH  31 131
ATOM    131  O   UNL     1     154.330 162.298 183.169  0.00  0.00    -0.379 OA
BRANCH 131 132
ATOM    132  C   UNL     1     155.548 162.965 183.482  0.00  0.00    +0.037 C 
ATOM    133  H   UNL     1     156.249 162.297 183.990  0.00  0.00    +0.052 HD
ATOM    134  H   UNL     1     156.005 163.300 182.545  0.00  0.00    +0.052 HD
ATOM    135  H   UNL     1     155.354 163.843 184.103  0.00  0.00    +0.052 HD
ENDBRANCH 131 132
ENDBRANCH  31 131
BRANCH  29 136
ATOM    136  O   UNL     1     151.196 164.846 182.879  0.00  0.00    -0.376 OA
BRANCH 136 137
ATOM    137  C   UNL     1     150.933 164.017 181.753  0.00  0.00    +0.037 C 
ATOM    138  H   UNL     1     149.882 163.710 181.732  0.00  0.00    +0.052 HD
ATOM    139  H   UNL     1     151.558 163.123 181.831  0.00  0.00    +0.052 HD
ATOM    140  H   UNL     1     151.189 164.542 180.825  0.00  0.00    +0.052 HD
ENDBRANCH 136 137
ENDBRANCH  29 136
BRANCH  16 141
ATOM    141  O   UNL     1     161.541 160.459 188.558  0.00  0.00    -0.379 OA
BRANCH 141 142
ATOM    142  C   UNL     1     161.849 160.792 189.907  0.00  0.00    +0.037 C 
ATOM    143  H   UNL     1     162.637 160.144 190.300  0.00  0.00    +0.052 HD
ATOM    144  H   UNL     1     162.215 161.820 189.927  0.00  0.00    +0.052 HD
ATOM    145  H   UNL     1     160.960 160.731 190.540  0.00  0.00    +0.052 HD
ENDBRANCH 141 142
ENDBRANCH  16 141
BRANCH   6 146
ATOM    146  O   UNL     1     153.480 157.701 190.668  0.00  0.00    -0.379 OA
BRANCH 146 147
ATOM    147  C   UNL     1     152.328 158.269 191.279  0.00  0.00    +0.037 C 
ATOM    148  H   UNL     1     152.366 159.362 191.272  0.00  0.00    +0.052 HD
ATOM    149  H   UNL     1     151.450 157.950 190.714  0.00  0.00    +0.052 HD
ATOM    150  H   UNL     1     152.226 157.907 192.307  0.00  0.00    +0.052 HD
ENDBRANCH 146 147
ENDBRANCH   6 146
BRANCH   4 151
ATOM    151  O   UNL     1     151.390 159.760 188.473  0.00  0.00    -0.376 OA
BRANCH 151 152
ATOM    152  C   UNL     1     150.333 160.537 189.027  0.00  0.00    +0.037 C 
ATOM    153  H   UNL     1     149.363 160.073 188.821  0.00  0.00    +0.052 HD
ATOM    154  H   UNL     1     150.471 160.578 190.111  0.00  0.00    +0.052 HD
ATOM    155  H   UNL     1     150.354 161.559 188.641  0.00  0.00    +0.052 HD
ENDBRANCH 151 152
ENDBRANCH   4 151
TORSDOF 33
ENDMDL
MODEL 10
REMARK VINA RESULT:      -4.8      5.807     10.348
REMARK  Name = Reidispongiolide A_conf2
REMARK  33 active torsions:
REMARK  status: ('A' for Active; 'I' for Inactive)
REMARK    1  A    between atoms: C_1  and  C_2
REMARK    2  A    between atoms: C_5  and  O_67
REMARK    3  A    between atoms: C_7  and  O_65
REMARK    4  A    between atoms: C_8  and  C_64
REMARK    5  A    between atoms: C_17  and  O_62
REMARK    6  A    between atoms: C_19  and  C_61
REMARK    7  A    between atoms: C_26  and  C_38
REMARK    8  A    between atoms: C_27  and  C_37
REMARK    9  A    between atoms: C_30  and  O_35
REMARK   10  A    between atoms: C_32  and  O_33
REMARK   11  A    between atoms: O_33  and  C_34
REMARK   12  A    between atoms: O_35  and  C_36
REMARK   13  A    between atoms: C_38  and  C_39
REMARK   14  A    between atoms: C_38  and  C_40
REMARK   15  A    between atoms: C_40  and  C_41
REMARK   16  A    between atoms: C_40  and  O_59
REMARK   17  A    between atoms: C_41  and  C_42
REMARK   18  A    between atoms: C_41  and  C_43
REMARK   19  A    between atoms: C_43  and  C_44
REMARK   20  A    between atoms: C_44  and  C_45
REMARK   21  A    between atoms: C_45  and  C_47
REMARK   22  A    between atoms: C_47  and  C_48
REMARK   23  A    between atoms: C_47  and  C_49
REMARK   24  A    between atoms: C_49  and  C_50
REMARK   25  A    between atoms: C_49  and  O_57
REMARK   26  A    between atoms: C_50  and  C_51
REMARK   27  A    between atoms: C_52  and  N_53
REMARK   28  A    between atoms: N_53  and  C_54
REMARK   29  A    between atoms: O_57  and  C_58
REMARK   30  A    between atoms: O_59  and  C_60
REMARK   31  A    between atoms: O_62  and  C_63
REMARK   32  A    between atoms: O_65  and  C_66
REMARK   33  A    between atoms: O_67  and  C_68
REMARK                            x       y       z     vdW  Elec       q    Type
REMARK                         _______ _______ _______ _____ _____    ______ ____
ROOT
ATOM      1  C   UNL     1     153.186 161.611 183.795  0.00  0.00    +0.001 C 
ATOM      2  C   UNL     1     153.846 161.197 185.099  0.00  0.00    -0.080 C 
ATOM      3  C   UNL     1     154.586 162.007 185.879  0.00  0.00    -0.059 C 
ATOM      4  C   UNL     1     155.279 161.661 187.175  0.00  0.00    +0.079 C 
ATOM      5  C   UNL     1     156.718 162.226 187.228  0.00  0.00    +0.004 C 
ATOM      6  C   UNL     1     157.812 161.363 186.568  0.00  0.00    +0.067 C 
ATOM      7  C   UNL     1     158.527 161.952 185.316  0.00  0.00    +0.020 C 
ATOM      8  C   UNL     1     159.373 163.254 185.430  0.00  0.00    +0.112 C 
ATOM      9  C   UNL     1     158.606 164.583 185.419  0.00  0.00    +0.006 C 
ATOM     10  C   UNL     1     159.555 165.739 185.548  0.00  0.00    -0.057 C 
ATOM     11  C   UNL     1     160.750 165.530 186.132  0.00  0.00    +0.022 C 
ATOM     12  C   UNL     1     161.128 164.236 186.738  0.00  0.00    +0.332 C 
ATOM     13  O   UNL     1     162.131 164.145 187.431  0.00  0.00    -0.246 OA
ATOM     14  O   UNL     1     160.276 163.196 186.544  0.00  0.00    -0.458 OA
ATOM     15  C   UNL     1     159.095 167.134 185.172  0.00  0.00    -0.004 C 
ATOM     16  C   UNL     1     158.804 167.442 183.682  0.00  0.00    +0.066 C 
ATOM     17  C   UNL     1     157.396 167.021 183.175  0.00  0.00    -0.005 C 
ATOM     18  C   UNL     1     156.222 167.316 184.100  0.00  0.00    -0.070 C 
ATOM     19  C   UNL     1     155.521 166.301 184.639  0.00  0.00    -0.062 C 
ATOM     20  C   UNL     1     154.424 166.348 185.574  0.00  0.00    -0.055 C 
ATOM     21  C   UNL     1     154.432 167.022 186.739  0.00  0.00    +0.023 C 
ATOM     22  C   UNL     1     153.354 166.914 187.750  0.00  0.00    +0.332 C 
ATOM     23  O   UNL     1     153.306 167.616 188.745  0.00  0.00    -0.246 OA
ATOM     24  O   UNL     1     152.519 165.900 187.437  0.00  0.00    -0.457 OA
ATOM     25  C   UNL     1     151.473 165.522 188.381  0.00  0.00    +0.114 C 
ATOM     26  C   UNL     1     150.137 165.615 187.584  0.00  0.00    +0.012 C 
ATOM     27  C   UNL     1     150.161 164.885 186.252  0.00  0.00    -0.079 C 
ATOM     28  C   UNL     1     149.686 163.644 186.063  0.00  0.00    -0.059 C 
ATOM     29  C   UNL     1     149.602 162.946 184.732  0.00  0.00    +0.079 C 
ATOM     30  C   UNL     1     150.770 161.976 184.510  0.00  0.00    +0.004 C 
ATOM     31  C   UNL     1     152.050 162.663 183.994  0.00  0.00    +0.067 C 
ATOM     32  H   UNL     1     152.730 160.705 183.369  0.00  0.00    +0.037 HD
ATOM     33  H   UNL     1     153.706 160.156 185.390  0.00  0.00    +0.057 HD
ATOM     34  H   UNL     1     154.682 163.048 185.583  0.00  0.00    +0.059 HD
ATOM     35  H   UNL     1     154.694 162.169 187.949  0.00  0.00    +0.064 HD
ATOM     36  H   UNL     1     156.699 163.236 186.821  0.00  0.00    +0.032 HD
ATOM     37  H   UNL     1     156.964 162.349 188.295  0.00  0.00    +0.032 HD
ATOM     38  H   UNL     1     157.366 160.403 186.272  0.00  0.00    +0.060 HD
ATOM     39  H   UNL     1     159.279 161.190 185.056  0.00  0.00    +0.036 HD
ATOM     40  H   UNL     1     160.012 163.254 184.530  0.00  0.00    +0.074 HD
ATOM     41  H   UNL     1     157.898 164.669 186.245  0.00  0.00    +0.035 HD
ATOM     42  H   UNL     1     158.060 164.653 184.478  0.00  0.00    +0.035 HD
ATOM     43  H   UNL     1     161.460 166.330 186.308  0.00  0.00    +0.069 HD
ATOM     44  H   UNL     1     159.866 167.845 185.503  0.00  0.00    +0.034 HD
ATOM     45  H   UNL     1     158.230 167.390 185.797  0.00  0.00    +0.034 HD
ATOM     46  H   UNL     1     159.561 166.928 183.072  0.00  0.00    +0.060 HD
ATOM     47  H   UNL     1     157.423 165.949 182.940  0.00  0.00    +0.034 HD
ATOM     48  H   UNL     1     157.179 167.507 182.213  0.00  0.00    +0.034 HD
ATOM     49  H   UNL     1     155.777 165.281 184.349  0.00  0.00    +0.062 HD
ATOM     50  H   UNL     1     153.593 165.686 185.328  0.00  0.00    +0.062 HD
ATOM     51  H   UNL     1     155.259 167.660 187.029  0.00  0.00    +0.069 HD
ATOM     52  H   UNL     1     151.439 166.238 189.212  0.00  0.00    +0.074 HD
ATOM     53  H   UNL     1     149.307 165.219 188.172  0.00  0.00    +0.038 HD
ATOM     54  H   UNL     1     150.566 165.437 185.408  0.00  0.00    +0.057 HD
ATOM     55  H   UNL     1     149.283 163.091 186.912  0.00  0.00    +0.059 HD
ATOM     56  H   UNL     1     149.553 163.669 183.907  0.00  0.00    +0.064 HD
ATOM     57  H   UNL     1     150.454 161.219 183.778  0.00  0.00    +0.032 HD
ATOM     58  H   UNL     1     150.981 161.432 185.438  0.00  0.00    +0.032 HD
ATOM     59  H   UNL     1     152.362 163.423 184.720  0.00  0.00    +0.060 HD
ENDROOT
BRANCH   1  60
ATOM     60  C   UNL     1     154.245 162.039 182.773  0.00  0.00    -0.057 C 
ATOM     61  H   UNL     1     154.619 163.044 182.997  0.00  0.00    +0.024 HD
ATOM     62  H   UNL     1     153.849 162.044 181.756  0.00  0.00    +0.024 HD
ATOM     63  H   UNL     1     155.111 161.368 182.796  0.00  0.00    +0.024 HD
ENDBRANCH   1  60
BRANCH  26  64
ATOM     64  C   UNL     1     149.784 167.089 187.322  0.00  0.00    -0.056 C 
ATOM     65  H   UNL     1     148.797 167.346 187.717  0.00  0.00    +0.024 HD
ATOM     66  H   UNL     1     149.784 167.300 186.247  0.00  0.00    +0.024 HD
ATOM     67  H   UNL     1     150.518 167.753 187.792  0.00  0.00    +0.024 HD
ENDBRANCH  26  64
BRANCH  18  68
ATOM     68  C   UNL     1     155.920 168.776 184.307  0.00  0.00    -0.043 C 
ATOM     69  H   UNL     1     155.280 168.909 185.190  0.00  0.00    +0.027 HD
ATOM     70  H   UNL     1     156.818 169.380 184.482  0.00  0.00    +0.027 HD
ATOM     71  H   UNL     1     155.399 169.192 183.437  0.00  0.00    +0.027 HD
ENDBRANCH  18  68
BRANCH   7  72
ATOM     72  C   UNL     1     157.580 162.007 184.115  0.00  0.00    -0.057 C 
ATOM     73  H   UNL     1     157.487 161.017 183.654  0.00  0.00    +0.023 HD
ATOM     74  H   UNL     1     157.964 162.690 183.346  0.00  0.00    +0.023 HD
ATOM     75  H   UNL     1     156.582 162.348 184.399  0.00  0.00    +0.023 HD
ENDBRANCH   7  72
BRANCH  25  76
ATOM     76  C   UNL     1     151.843 164.120 188.972  0.00  0.00    +0.020 C 
ATOM     77  H   UNL     1     151.968 163.434 188.128  0.00  0.00    +0.036 HD
BRANCH  76  78
ATOM     78  C   UNL     1     153.218 164.200 189.674  0.00  0.00    -0.057 C 
ATOM     79  H   UNL     1     153.176 163.796 190.688  0.00  0.00    +0.023 HD
ATOM     80  H   UNL     1     153.975 163.635 189.115  0.00  0.00    +0.023 HD
ATOM     81  H   UNL     1     153.577 165.226 189.767  0.00  0.00    +0.023 HD
ENDBRANCH  76  78
BRANCH  76  82
ATOM     82  C   UNL     1     150.810 163.534 189.991  0.00  0.00    +0.067 C 
ATOM     83  H   UNL     1     149.956 163.171 189.404  0.00  0.00    +0.060 HD
BRANCH  82  84
ATOM     84  C   UNL     1     150.275 164.593 191.012  0.00  0.00    -0.017 C 
ATOM     85  H   UNL     1     150.682 165.576 190.748  0.00  0.00    +0.032 HD
BRANCH  84  86
ATOM     86  C   UNL     1     148.746 164.707 190.891  0.00  0.00    -0.060 C 
ATOM     87  H   UNL     1     148.285 164.832 191.874  0.00  0.00    +0.023 HD
ATOM     88  H   UNL     1     148.317 163.800 190.453  0.00  0.00    +0.023 HD
ATOM     89  H   UNL     1     148.453 165.555 190.262  0.00  0.00    +0.023 HD
ENDBRANCH  84  86
BRANCH  84  90
ATOM     90  C   UNL     1     150.677 164.277 192.473  0.00  0.00    -0.041 C 
ATOM     91  H   UNL     1     151.613 163.712 192.494  0.00  0.00    +0.027 HD
ATOM     92  H   UNL     1     149.924 163.630 192.939  0.00  0.00    +0.027 HD
BRANCH  90  93
ATOM     93  C   UNL     1     150.870 165.527 193.328  0.00  0.00    +0.007 C 
ATOM     94  H   UNL     1     151.931 165.701 193.533  0.00  0.00    +0.034 HD
ATOM     95  H   UNL     1     150.499 166.422 192.816  0.00  0.00    +0.034 HD
BRANCH  93  96
ATOM     96  C   UNL     1     150.105 165.415 194.632  0.00  0.00    +0.139 C 
ATOM     97  O   UNL     1     150.366 164.508 195.426  0.00  0.00    -0.297 OA
BRANCH  96  98
ATOM     98  C   UNL     1     149.043 166.470 194.928  0.00  0.00    +0.041 C 
ATOM     99  H   UNL     1     149.572 167.423 195.066  0.00  0.00    +0.040 HD
BRANCH  98 100
ATOM    100  C   UNL     1     148.368 166.182 196.276  0.00  0.00    -0.053 C 
ATOM    101  H   UNL     1     149.040 165.645 196.955  0.00  0.00    +0.024 HD
ATOM    102  H   UNL     1     147.481 165.555 196.133  0.00  0.00    +0.024 HD
ATOM    103  H   UNL     1     148.041 167.101 196.773  0.00  0.00    +0.024 HD
ENDBRANCH  98 100
BRANCH  98 104
ATOM    104  C   UNL     1     148.040 166.658 193.764  0.00  0.00    +0.071 C 
ATOM    105  H   UNL     1     148.443 166.129 192.889  0.00  0.00    +0.061 HD
BRANCH 104 106
ATOM    106  C   UNL     1     146.609 166.144 194.063  0.00  0.00    -0.006 C 
ATOM    107  H   UNL     1     146.640 165.133 194.490  0.00  0.00    +0.033 HD
ATOM    108  H   UNL     1     146.137 166.762 194.836  0.00  0.00    +0.033 HD
BRANCH 106 109
ATOM    109  C   UNL     1     145.729 166.202 192.847  0.00  0.00    -0.067 C 
ATOM    110  C   UNL     1     144.393 166.280 192.898  0.00  0.00    -0.005 C 
ATOM    111  H   UNL     1     146.250 166.169 191.895  0.00  0.00    +0.059 HD
ATOM    112  H   UNL     1     143.912 166.342 193.873  0.00  0.00    +0.078 HD
BRANCH 110 113
ATOM    113  N   UNL     1     143.520 166.280 191.823  0.00  0.00    -0.284 N 
ATOM    114  C   UNL     1     142.133 166.374 191.914  0.00  0.00    +0.206 C 
ATOM    115  O   UNL     1     141.438 166.553 192.906  0.00  0.00    -0.279 OA
ATOM    116  H   UNL     1     141.653 166.291 190.923  0.00  0.00    +0.126 HD
BRANCH 113 117
ATOM    117  C   UNL     1     144.128 166.300 190.497  0.00  0.00    +0.007 C 
ATOM    118  H   UNL     1     145.146 166.695 190.584  0.00  0.00    +0.043 HD
ATOM    119  H   UNL     1     144.154 165.286 190.090  0.00  0.00    +0.043 HD
ATOM    120  H   UNL     1     143.570 166.942 189.808  0.00  0.00    +0.043 HD
ENDBRANCH 113 117
ENDBRANCH 110 113
ENDBRANCH 106 109
ENDBRANCH 104 106
BRANCH 104 121
ATOM    121  O   UNL     1     147.984 168.062 193.448  0.00  0.00    -0.379 OA
BRANCH 121 122
ATOM    122  C   UNL     1     148.709 168.406 192.272  0.00  0.00    +0.037 C 
ATOM    123  H   UNL     1     148.934 169.476 192.275  0.00  0.00    +0.052 HD
ATOM    124  H   UNL     1     149.639 167.834 192.185  0.00  0.00    +0.052 HD
ATOM    125  H   UNL     1     148.077 168.188 191.408  0.00  0.00    +0.052 HD
ENDBRANCH 121 122
ENDBRANCH 104 121
ENDBRANCH  98 104
ENDBRANCH  96  98
ENDBRANCH  93  96
ENDBRANCH  90  93
ENDBRANCH  84  90
ENDBRANCH  82  84
BRANCH  82 126
ATOM    126  O   UNL     1     151.366 162.454 190.740  0.00  0.00    -0.379 OA
BRANCH 126 127
ATOM    127  C   UNL     1     150.888 161.178 190.330  0.00  0.00    +0.037 C 
ATOM    128  H   UNL     1     151.305 160.959 189.344  0.00  0.00    +0.052 HD
ATOM    129  H   UNL     1     151.206 160.400 191.026  0.00  0.00    +0.052 HD
ATOM    130  H   UNL     1     149.796 161.186 190.251  0.00  0.00    +0.052 HD
ENDBRANCH 126 127
ENDBRANCH  82 126
ENDBRANCH  76  82
ENDBRANCH  25  76
BRANCH  31 131
ATOM    131  O   UNL     1     151.730 163.282 182.738  0.00  0.00    -0.379 OA
BRANCH 131 132
ATOM    132  C   UNL     1     151.912 164.693 182.738  0.00  0.00    +0.037 C 
ATOM    133  H   UNL     1     151.587 165.137 183.683  0.00  0.00    +0.052 HD
ATOM    134  H   UNL     1     152.979 164.900 182.606  0.00  0.00    +0.052 HD
ATOM    135  H   UNL     1     151.368 165.149 181.907  0.00  0.00    +0.052 HD
ENDBRANCH 131 132
ENDBRANCH  31 131
BRANCH  29 136
ATOM    136  O   UNL     1     148.399 162.164 184.751  0.00  0.00    -0.376 OA
BRANCH 136 137
ATOM    137  C   UNL     1     147.229 162.965 184.636  0.00  0.00    +0.037 C 
ATOM    138  H   UNL     1     146.445 162.610 185.313  0.00  0.00    +0.052 HD
ATOM    139  H   UNL     1     146.863 162.892 183.608  0.00  0.00    +0.052 HD
ATOM    140  H   UNL     1     147.463 164.015 184.849  0.00  0.00    +0.052 HD
ENDBRANCH 136 137
ENDBRANCH  29 136
BRANCH  16 141
ATOM    141  O   UNL     1     158.987 168.862 183.515  0.00  0.00    -0.379 OA
BRANCH 141 142
ATOM    142  C   UNL     1     159.602 169.503 184.627  0.00  0.00    +0.037 C 
ATOM    143  H   UNL     1     160.690 169.519 184.518  0.00  0.00    +0.052 HD
ATOM    144  H   UNL     1     159.250 170.536 184.661  0.00  0.00    +0.052 HD
ATOM    145  H   UNL     1     159.324 169.015 185.566  0.00  0.00    +0.052 HD
ENDBRANCH 141 142
ENDBRANCH  16 141
BRANCH   6 146
ATOM    146  O   UNL     1     158.775 161.098 187.604  0.00  0.00    -0.379 OA
BRANCH 146 147
ATOM    147  C   UNL     1     158.346 161.487 188.904  0.00  0.00    +0.037 C 
ATOM    148  H   UNL     1     158.040 160.624 189.502  0.00  0.00    +0.052 HD
ATOM    149  H   UNL     1     159.182 161.978 189.406  0.00  0.00    +0.052 HD
ATOM    150  H   UNL     1     157.520 162.202 188.833  0.00  0.00    +0.052 HD
ENDBRANCH 146 147
ENDBRANCH   6 146
BRANCH   4 151
ATOM    151  O   UNL     1     155.213 160.258 187.421  0.00  0.00    -0.376 OA
BRANCH 151 152
ATOM    152  C   UNL     1     154.709 159.940 188.715  0.00  0.00    +0.037 C 
ATOM    153  H   UNL     1     154.800 160.799 189.387  0.00  0.00    +0.052 HD
ATOM    154  H   UNL     1     153.649 159.691 188.616  0.00  0.00    +0.052 HD
ATOM    155  H   UNL     1     155.227 159.073 189.134  0.00  0.00    +0.052 HD
ENDBRANCH 151 152
ENDBRANCH   4 151
TORSDOF 33
ENDMDL
