MODEL 1
REMARK VINA RESULT:      -4.7      0.000      0.000
REMARK  Name = Reidispongiolide A_conf3
REMARK  33 active torsions:
REMARK  status: ('A' for Active; 'I' for Inactive)
REMARK    1  A    between atoms: C_1  and  C_2
REMARK    2  A    between atoms: C_5  and  O_67
REMARK    3  A    between atoms: C_7  and  O_65
REMARK    4  A    between atoms: C_8  and  C_64
REMARK    5  A    between atoms: C_17  and  O_62
REMARK    6  A    between atoms: C_19  and  C_61
REMARK    7  A    between atoms: C_26  and  C_38
REMARK    8  A    between atoms: C_27  and  C_37
REMARK    9  A    between atoms: C_30  and  O_35
REMARK   10  A    between atoms: C_32  and  O_33
REMARK   11  A    between atoms: O_33  and  C_34
REMARK   12  A    between atoms: O_35  and  C_36
REMARK   13  A    between atoms: C_38  and  C_39
REMARK   14  A    between atoms: C_38  and  C_40
REMARK   15  A    between atoms: C_40  and  C_41
REMARK   16  A    between atoms: C_40  and  O_59
REMARK   17  A    between atoms: C_41  and  C_42
REMARK   18  A    between atoms: C_41  and  C_43
REMARK   19  A    between atoms: C_43  and  C_44
REMARK   20  A    between atoms: C_44  and  C_45
REMARK   21  A    between atoms: C_45  and  C_47
REMARK   22  A    between atoms: C_47  and  C_48
REMARK   23  A    between atoms: C_47  and  C_49
REMARK   24  A    between atoms: C_49  and  C_50
REMARK   25  A    between atoms: C_49  and  O_57
REMARK   26  A    between atoms: C_50  and  C_51
REMARK   27  A    between atoms: C_52  and  N_53
REMARK   28  A    between atoms: N_53  and  C_54
REMARK   29  A    between atoms: O_57  and  C_58
REMARK   30  A    between atoms: O_59  and  C_60
REMARK   31  A    between atoms: O_62  and  C_63
REMARK   32  A    between atoms: O_65  and  C_66
REMARK   33  A    between atoms: O_67  and  C_68
REMARK                            x       y       z     vdW  Elec       q    Type
REMARK                         _______ _______ _______ _____ _____    ______ ____
ROOT
ATOM      1  C   UNL     1     143.898 168.736 189.319  0.00  0.00    +0.001 C 
ATOM      2  C   UNL     1     144.630 168.167 188.109  0.00  0.00    -0.080 C 
ATOM      3  C   UNL     1     144.732 168.751 186.901  0.00  0.00    -0.059 C 
ATOM      4  C   UNL     1     145.369 168.255 185.628  0.00  0.00    +0.079 C 
ATOM      5  C   UNL     1     145.913 166.814 185.580  0.00  0.00    +0.004 C 
ATOM      6  C   UNL     1     147.231 166.537 186.338  0.00  0.00    +0.067 C 
ATOM      7  C   UNL     1     147.456 165.023 186.636  0.00  0.00    +0.020 C 
ATOM      8  C   UNL     1     147.480 164.121 185.358  0.00  0.00    +0.112 C 
ATOM      9  C   UNL     1     148.849 163.986 184.656  0.00  0.00    +0.006 C 
ATOM     10  C   UNL     1     149.681 162.845 185.178  0.00  0.00    -0.057 C 
ATOM     11  C   UNL     1     149.101 161.878 185.911  0.00  0.00    +0.022 C 
ATOM     12  C   UNL     1     147.654 161.833 186.180  0.00  0.00    +0.332 C 
ATOM     13  O   UNL     1     147.156 160.904 186.803  0.00  0.00    -0.246 OA
ATOM     14  O   UNL     1     146.903 162.818 185.634  0.00  0.00    -0.458 OA
ATOM     15  C   UNL     1     151.111 162.707 184.674  0.00  0.00    -0.004 C 
ATOM     16  C   UNL     1     152.325 162.565 185.642  0.00  0.00    +0.066 C 
ATOM     17  C   UNL     1     152.964 163.909 186.082  0.00  0.00    -0.005 C 
ATOM     18  C   UNL     1     152.520 164.560 187.380  0.00  0.00    -0.070 C 
ATOM     19  C   UNL     1     153.436 164.982 188.281  0.00  0.00    -0.062 C 
ATOM     20  C   UNL     1     153.139 165.646 189.533  0.00  0.00    -0.055 C 
ATOM     21  C   UNL     1     152.500 166.823 189.611  0.00  0.00    +0.023 C 
ATOM     22  C   UNL     1     152.099 167.339 190.928  0.00  0.00    +0.332 C 
ATOM     23  O   UNL     1     152.628 167.047 191.991  0.00  0.00    -0.246 OA
ATOM     24  O   UNL     1     150.999 168.109 190.756  0.00  0.00    -0.457 OA
ATOM     25  C   UNL     1     150.166 168.299 191.922  0.00  0.00    +0.114 C 
ATOM     26  C   UNL     1     149.778 169.802 192.094  0.00  0.00    +0.012 C 
ATOM     27  C   UNL     1     148.714 170.332 191.161  0.00  0.00    -0.079 C 
ATOM     28  C   UNL     1     147.538 170.832 191.596  0.00  0.00    -0.059 C 
ATOM     29  C   UNL     1     146.473 171.422 190.715  0.00  0.00    +0.079 C 
ATOM     30  C   UNL     1     145.800 170.451 189.725  0.00  0.00    +0.004 C 
ATOM     31  C   UNL     1     144.828 169.436 190.359  0.00  0.00    +0.067 C 
ATOM     32  H   UNL     1     143.450 167.862 189.817  0.00  0.00    +0.037 HD
ATOM     33  H   UNL     1     145.083 167.195 188.286  0.00  0.00    +0.057 HD
ATOM     34  H   UNL     1     144.287 169.735 186.771  0.00  0.00    +0.059 HD
ATOM     35  H   UNL     1     144.556 168.300 184.887  0.00  0.00    +0.064 HD
ATOM     36  H   UNL     1     146.081 166.581 184.523  0.00  0.00    +0.032 HD
ATOM     37  H   UNL     1     145.118 166.148 185.926  0.00  0.00    +0.032 HD
ATOM     38  H   UNL     1     147.214 167.072 187.295  0.00  0.00    +0.060 HD
ATOM     39  H   UNL     1     148.437 164.934 187.108  0.00  0.00    +0.036 HD
ATOM     40  H   UNL     1     146.800 164.554 184.618  0.00  0.00    +0.074 HD
ATOM     41  H   UNL     1     149.409 164.924 184.713  0.00  0.00    +0.035 HD
ATOM     42  H   UNL     1     148.671 163.790 183.590  0.00  0.00    +0.035 HD
ATOM     43  H   UNL     1     149.647 161.005 186.256  0.00  0.00    +0.069 HD
ATOM     44  H   UNL     1     151.324 163.510 183.952  0.00  0.00    +0.034 HD
ATOM     45  H   UNL     1     151.106 161.789 184.061  0.00  0.00    +0.034 HD
ATOM     46  H   UNL     1     153.088 162.067 185.025  0.00  0.00    +0.060 HD
ATOM     47  H   UNL     1     152.855 164.646 185.272  0.00  0.00    +0.034 HD
ATOM     48  H   UNL     1     154.044 163.724 186.152  0.00  0.00    +0.034 HD
ATOM     49  H   UNL     1     154.497 164.801 188.107  0.00  0.00    +0.062 HD
ATOM     50  H   UNL     1     153.455 165.125 190.436  0.00  0.00    +0.062 HD
ATOM     51  H   UNL     1     152.170 167.372 188.740  0.00  0.00    +0.069 HD
ATOM     52  H   UNL     1     150.755 168.081 192.820  0.00  0.00    +0.074 HD
ATOM     53  H   UNL     1     149.399 169.887 193.122  0.00  0.00    +0.038 HD
ATOM     54  H   UNL     1     148.938 170.325 190.094  0.00  0.00    +0.057 HD
ATOM     55  H   UNL     1     147.341 170.854 192.669  0.00  0.00    +0.059 HD
ATOM     56  H   UNL     1     146.936 172.231 190.130  0.00  0.00    +0.064 HD
ATOM     57  H   UNL     1     146.579 169.932 189.152  0.00  0.00    +0.032 HD
ATOM     58  H   UNL     1     145.232 171.073 189.023  0.00  0.00    +0.032 HD
ATOM     59  H   UNL     1     144.180 169.962 191.074  0.00  0.00    +0.060 HD
ENDROOT
BRANCH   1  60
ATOM     60  C   UNL     1     142.718 169.649 188.950  0.00  0.00    -0.057 C 
ATOM     61  H   UNL     1     142.049 169.144 188.246  0.00  0.00    +0.024 HD
ATOM     62  H   UNL     1     143.069 170.566 188.466  0.00  0.00    +0.024 HD
ATOM     63  H   UNL     1     142.122 169.935 189.821  0.00  0.00    +0.024 HD
ENDBRANCH   1  60
BRANCH  26  64
ATOM     64  C   UNL     1     151.026 170.691 191.993  0.00  0.00    -0.056 C 
ATOM     65  H   UNL     1     151.559 170.739 192.951  0.00  0.00    +0.024 HD
ATOM     66  H   UNL     1     150.760 171.710 191.702  0.00  0.00    +0.024 HD
ATOM     67  H   UNL     1     151.713 170.305 191.235  0.00  0.00    +0.024 HD
ENDBRANCH  26  64
BRANCH  18  68
ATOM     68  C   UNL     1     151.040 164.711 187.559  0.00  0.00    -0.043 C 
ATOM     69  H   UNL     1     150.665 163.979 188.277  0.00  0.00    +0.027 HD
ATOM     70  H   UNL     1     150.731 165.686 187.941  0.00  0.00    +0.027 HD
ATOM     71  H   UNL     1     150.556 164.570 186.592  0.00  0.00    +0.027 HD
ENDBRANCH  18  68
BRANCH   7  72
ATOM     72  C   UNL     1     146.448 164.546 187.690  0.00  0.00    -0.057 C 
ATOM     73  H   UNL     1     146.655 165.002 188.659  0.00  0.00    +0.023 HD
ATOM     74  H   UNL     1     145.417 164.785 187.415  0.00  0.00    +0.023 HD
ATOM     75  H   UNL     1     146.520 163.464 187.832  0.00  0.00    +0.023 HD
ENDBRANCH   7  72
BRANCH  25  76
ATOM     76  C   UNL     1     148.962 167.295 191.861  0.00  0.00    +0.020 C 
ATOM     77  H   UNL     1     148.088 167.830 192.249  0.00  0.00    +0.036 HD
BRANCH  76  78
ATOM     78  C   UNL     1     148.646 166.884 190.418  0.00  0.00    -0.057 C 
ATOM     79  H   UNL     1     148.987 167.621 189.687  0.00  0.00    +0.023 HD
ATOM     80  H   UNL     1     149.094 165.917 190.187  0.00  0.00    +0.023 HD
ATOM     81  H   UNL     1     147.575 166.754 190.253  0.00  0.00    +0.023 HD
ENDBRANCH  76  78
BRANCH  76  82
ATOM     82  C   UNL     1     149.224 166.091 192.836  0.00  0.00    +0.067 C 
ATOM     83  H   UNL     1     149.892 166.432 193.634  0.00  0.00    +0.060 HD
BRANCH  82  84
ATOM     84  C   UNL     1     149.895 164.786 192.307  0.00  0.00    -0.017 C 
ATOM     85  H   UNL     1     150.454 165.045 191.401  0.00  0.00    +0.032 HD
BRANCH  84  86
ATOM     86  C   UNL     1     150.955 164.319 193.322  0.00  0.00    -0.060 C 
ATOM     87  H   UNL     1     150.507 163.641 194.054  0.00  0.00    +0.023 HD
ATOM     88  H   UNL     1     151.373 165.167 193.878  0.00  0.00    +0.023 HD
ATOM     89  H   UNL     1     151.787 163.793 192.836  0.00  0.00    +0.023 HD
ENDBRANCH  84  86
BRANCH  84  90
ATOM     90  C   UNL     1     148.995 163.581 191.942  0.00  0.00    -0.041 C 
ATOM     91  H   UNL     1     147.951 163.866 192.132  0.00  0.00    +0.027 HD
ATOM     92  H   UNL     1     149.176 162.766 192.646  0.00  0.00    +0.027 HD
BRANCH  90  93
ATOM     93  C   UNL     1     149.101 163.032 190.521  0.00  0.00    +0.007 C 
ATOM     94  H   UNL     1     150.010 163.373 190.020  0.00  0.00    +0.034 HD
ATOM     95  H   UNL     1     148.246 163.365 189.920  0.00  0.00    +0.034 HD
BRANCH  93  96
ATOM     96  C   UNL     1     149.092 161.508 190.495  0.00  0.00    +0.139 C 
ATOM     97  O   UNL     1     148.337 160.889 191.253  0.00  0.00    -0.297 OA
BRANCH  96  98
ATOM     98  C   UNL     1     150.055 160.788 189.542  0.00  0.00    +0.041 C 
ATOM     99  H   UNL     1     150.262 161.508 188.747  0.00  0.00    +0.040 HD
BRANCH  98 100
ATOM    100  C   UNL     1     149.406 159.575 188.873  0.00  0.00    -0.053 C 
ATOM    101  H   UNL     1     149.776 159.415 187.855  0.00  0.00    +0.024 HD
ATOM    102  H   UNL     1     149.625 158.662 189.438  0.00  0.00    +0.024 HD
ATOM    103  H   UNL     1     148.314 159.678 188.842  0.00  0.00    +0.024 HD
ENDBRANCH  98 100
BRANCH  98 104
ATOM    104  C   UNL     1     151.413 160.463 190.213  0.00  0.00    +0.071 C 
ATOM    105  H   UNL     1     152.132 160.098 189.468  0.00  0.00    +0.061 HD
BRANCH 104 106
ATOM    106  C   UNL     1     152.083 161.620 190.994  0.00  0.00    -0.006 C 
ATOM    107  H   UNL     1     151.346 162.411 191.184  0.00  0.00    +0.033 HD
ATOM    108  H   UNL     1     152.343 161.245 191.992  0.00  0.00    +0.033 HD
BRANCH 106 109
ATOM    109  C   UNL     1     153.339 162.175 190.377  0.00  0.00    -0.067 C 
ATOM    110  C   UNL     1     154.064 161.504 189.472  0.00  0.00    -0.005 C 
ATOM    111  H   UNL     1     153.608 163.173 190.714  0.00  0.00    +0.059 HD
ATOM    112  H   UNL     1     153.714 160.528 189.142  0.00  0.00    +0.078 HD
BRANCH 110 113
ATOM    113  N   UNL     1     155.247 161.914 188.880  0.00  0.00    -0.284 N 
ATOM    114  C   UNL     1     155.616 161.660 187.559  0.00  0.00    +0.206 C 
ATOM    115  O   UNL     1     156.665 162.019 187.029  0.00  0.00    -0.279 OA
ATOM    116  H   UNL     1     154.870 161.100 186.983  0.00  0.00    +0.126 HD
BRANCH 113 117
ATOM    117  C   UNL     1     156.161 162.710 189.693  0.00  0.00    +0.007 C 
ATOM    118  H   UNL     1     157.090 162.141 189.822  0.00  0.00    +0.043 HD
ATOM    119  H   UNL     1     155.749 162.935 190.680  0.00  0.00    +0.043 HD
ATOM    120  H   UNL     1     156.378 163.655 189.181  0.00  0.00    +0.043 HD
ENDBRANCH 113 117
ENDBRANCH 110 113
ENDBRANCH 106 109
ENDBRANCH 104 106
BRANCH 104 121
ATOM    121  O   UNL     1     151.202 159.420 191.193  0.00  0.00    -0.379 OA
BRANCH 121 122
ATOM    122  C   UNL     1     152.190 158.393 191.148  0.00  0.00    +0.037 C 
ATOM    123  H   UNL     1     151.768 157.530 190.625  0.00  0.00    +0.052 HD
ATOM    124  H   UNL     1     153.075 158.728 190.605  0.00  0.00    +0.052 HD
ATOM    125  H   UNL     1     152.469 158.088 192.161  0.00  0.00    +0.052 HD
ENDBRANCH 121 122
ENDBRANCH 104 121
ENDBRANCH  98 104
ENDBRANCH  96  98
ENDBRANCH  93  96
ENDBRANCH  90  93
ENDBRANCH  84  90
ENDBRANCH  82  84
BRANCH  82 126
ATOM    126  O   UNL     1     147.972 165.735 193.455  0.00  0.00    -0.379 OA
BRANCH 126 127
ATOM    127  C   UNL     1     147.857 166.192 194.800  0.00  0.00    +0.037 C 
ATOM    128  H   UNL     1     148.664 165.778 195.413  0.00  0.00    +0.052 HD
ATOM    129  H   UNL     1     147.873 167.286 194.840  0.00  0.00    +0.052 HD
ATOM    130  H   UNL     1     146.901 165.841 195.204  0.00  0.00    +0.052 HD
ENDBRANCH 126 127
ENDBRANCH  82 126
ENDBRANCH  76  82
ENDBRANCH  25  76
BRANCH  31 131
ATOM    131  O   UNL     1     145.586 168.427 191.050  0.00  0.00    -0.379 OA
BRANCH 131 132
ATOM    132  C   UNL     1     144.768 167.339 191.475  0.00  0.00    +0.037 C 
ATOM    133  H   UNL     1     145.131 166.400 191.047  0.00  0.00    +0.052 HD
ATOM    134  H   UNL     1     144.817 167.275 192.566  0.00  0.00    +0.052 HD
ATOM    135  H   UNL     1     143.726 167.510 191.181  0.00  0.00    +0.052 HD
ENDBRANCH 131 132
ENDBRANCH  31 131
BRANCH  29 136
ATOM    136  O   UNL     1     145.464 171.964 191.585  0.00  0.00    -0.376 OA
BRANCH 136 137
ATOM    137  C   UNL     1     145.706 173.317 191.946  0.00  0.00    +0.037 C 
ATOM    138  H   UNL     1     146.710 173.624 191.633  0.00  0.00    +0.052 HD
ATOM    139  H   UNL     1     144.973 173.944 191.428  0.00  0.00    +0.052 HD
ATOM    140  H   UNL     1     145.582 173.456 193.023  0.00  0.00    +0.052 HD
ENDBRANCH 136 137
ENDBRANCH  29 136
BRANCH  16 141
ATOM    141  O   UNL     1     152.012 161.684 186.724  0.00  0.00    -0.379 OA
BRANCH 141 142
ATOM    142  C   UNL     1     152.330 160.324 186.469  0.00  0.00    +0.037 C 
ATOM    143  H   UNL     1     151.790 160.013 185.567  0.00  0.00    +0.052 HD
ATOM    144  H   UNL     1     152.025 159.676 187.297  0.00  0.00    +0.052 HD
ATOM    145  H   UNL     1     153.406 160.217 186.281  0.00  0.00    +0.052 HD
ENDBRANCH 141 142
ENDBRANCH  16 141
BRANCH   6 146
ATOM    146  O   UNL     1     148.330 167.001 185.543  0.00  0.00    -0.379 OA
BRANCH 146 147
ATOM    147  C   UNL     1     149.314 167.681 186.318  0.00  0.00    +0.037 C 
ATOM    148  H   UNL     1     149.688 168.550 185.769  0.00  0.00    +0.052 HD
ATOM    149  H   UNL     1     150.149 167.016 186.567  0.00  0.00    +0.052 HD
ATOM    150  H   UNL     1     148.851 168.022 187.249  0.00  0.00    +0.052 HD
ENDBRANCH 146 147
ENDBRANCH   6 146
BRANCH   4 151
ATOM    151  O   UNL     1     146.352 169.235 185.283  0.00  0.00    -0.376 OA
BRANCH 151 152
ATOM    152  C   UNL     1     146.455 169.461 183.880  0.00  0.00    +0.037 C 
ATOM    153  H   UNL     1     145.912 170.367 183.595  0.00  0.00    +0.052 HD
ATOM    154  H   UNL     1     147.508 169.604 183.639  0.00  0.00    +0.052 HD
ATOM    155  H   UNL     1     146.076 168.605 183.317  0.00  0.00    +0.052 HD
ENDBRANCH 151 152
ENDBRANCH   4 151
TORSDOF 33
ENDMDL
MODEL 2
REMARK VINA RESULT:      -4.6      1.801      3.302
REMARK  Name = Reidispongiolide A_conf3
REMARK  33 active torsions:
REMARK  status: ('A' for Active; 'I' for Inactive)
REMARK    1  A    between atoms: C_1  and  C_2
REMARK    2  A    between atoms: C_5  and  O_67
REMARK    3  A    between atoms: C_7  and  O_65
REMARK    4  A    between atoms: C_8  and  C_64
REMARK    5  A    between atoms: C_17  and  O_62
REMARK    6  A    between atoms: C_19  and  C_61
REMARK    7  A    between atoms: C_26  and  C_38
REMARK    8  A    between atoms: C_27  and  C_37
REMARK    9  A    between atoms: C_30  and  O_35
REMARK   10  A    between atoms: C_32  and  O_33
REMARK   11  A    between atoms: O_33  and  C_34
REMARK   12  A    between atoms: O_35  and  C_36
REMARK   13  A    between atoms: C_38  and  C_39
REMARK   14  A    between atoms: C_38  and  C_40
REMARK   15  A    between atoms: C_40  and  C_41
REMARK   16  A    between atoms: C_40  and  O_59
REMARK   17  A    between atoms: C_41  and  C_42
REMARK   18  A    between atoms: C_41  and  C_43
REMARK   19  A    between atoms: C_43  and  C_44
REMARK   20  A    between atoms: C_44  and  C_45
REMARK   21  A    between atoms: C_45  and  C_47
REMARK   22  A    between atoms: C_47  and  C_48
REMARK   23  A    between atoms: C_47  and  C_49
REMARK   24  A    between atoms: C_49  and  C_50
REMARK   25  A    between atoms: C_49  and  O_57
REMARK   26  A    between atoms: C_50  and  C_51
REMARK   27  A    between atoms: C_52  and  N_53
REMARK   28  A    between atoms: N_53  and  C_54
REMARK   29  A    between atoms: O_57  and  C_58
REMARK   30  A    between atoms: O_59  and  C_60
REMARK   31  A    between atoms: O_62  and  C_63
REMARK   32  A    between atoms: O_65  and  C_66
REMARK   33  A    between atoms: O_67  and  C_68
REMARK                            x       y       z     vdW  Elec       q    Type
REMARK                         _______ _______ _______ _____ _____    ______ ____
ROOT
ATOM      1  C   UNL     1     144.015 168.348 189.319  0.00  0.00    +0.001 C 
ATOM      2  C   UNL     1     144.779 167.829 188.106  0.00  0.00    -0.080 C 
ATOM      3  C   UNL     1     144.836 168.418 186.898  0.00  0.00    -0.059 C 
ATOM      4  C   UNL     1     145.499 167.967 185.621  0.00  0.00    +0.079 C 
ATOM      5  C   UNL     1     146.140 166.566 185.571  0.00  0.00    +0.004 C 
ATOM      6  C   UNL     1     147.477 166.379 186.323  0.00  0.00    +0.067 C 
ATOM      7  C   UNL     1     147.806 164.884 186.620  0.00  0.00    +0.020 C 
ATOM      8  C   UNL     1     147.885 163.985 185.342  0.00  0.00    +0.112 C 
ATOM      9  C   UNL     1     149.257 163.944 184.634  0.00  0.00    +0.006 C 
ATOM     10  C   UNL     1     150.166 162.862 185.152  0.00  0.00    -0.057 C 
ATOM     11  C   UNL     1     149.658 161.858 185.887  0.00  0.00    +0.022 C 
ATOM     12  C   UNL     1     148.217 161.715 186.162  0.00  0.00    +0.332 C 
ATOM     13  O   UNL     1     147.787 160.754 186.788  0.00  0.00    -0.246 OA
ATOM     14  O   UNL     1     147.400 162.647 185.621  0.00  0.00    -0.458 OA
ATOM     15  C   UNL     1     151.601 162.821 184.642  0.00  0.00    -0.004 C 
ATOM     16  C   UNL     1     152.826 162.763 185.604  0.00  0.00    +0.066 C 
ATOM     17  C   UNL     1     153.374 164.147 186.041  0.00  0.00    -0.005 C 
ATOM     18  C   UNL     1     152.893 164.767 187.342  0.00  0.00    -0.070 C 
ATOM     19  C   UNL     1     153.782 165.250 188.238  0.00  0.00    -0.062 C 
ATOM     20  C   UNL     1     153.446 165.893 189.492  0.00  0.00    -0.055 C 
ATOM     21  C   UNL     1     152.729 167.024 189.573  0.00  0.00    +0.023 C 
ATOM     22  C   UNL     1     152.299 167.512 190.892  0.00  0.00    +0.332 C 
ATOM     23  O   UNL     1     152.851 167.256 191.952  0.00  0.00    -0.246 OA
ATOM     24  O   UNL     1     151.149 168.205 190.725  0.00  0.00    -0.457 OA
ATOM     25  C   UNL     1     150.310 168.338 191.894  0.00  0.00    +0.114 C 
ATOM     26  C   UNL     1     149.822 169.812 192.068  0.00  0.00    +0.012 C 
ATOM     27  C   UNL     1     148.719 170.268 191.140  0.00  0.00    -0.079 C 
ATOM     28  C   UNL     1     147.515 170.686 191.580  0.00  0.00    -0.059 C 
ATOM     29  C   UNL     1     146.408 171.203 190.704  0.00  0.00    +0.079 C 
ATOM     30  C   UNL     1     145.799 170.187 189.717  0.00  0.00    +0.004 C 
ATOM     31  C   UNL     1     144.900 169.110 190.355  0.00  0.00    +0.067 C 
ATOM     32  H   UNL     1     143.630 167.445 189.819  0.00  0.00    +0.037 HD
ATOM     33  H   UNL     1     145.297 166.891 188.281  0.00  0.00    +0.057 HD
ATOM     34  H   UNL     1     144.325 169.370 186.770  0.00  0.00    +0.059 HD
ATOM     35  H   UNL     1     144.681 167.956 184.884  0.00  0.00    +0.064 HD
ATOM     36  H   UNL     1     146.318 166.345 184.514  0.00  0.00    +0.032 HD
ATOM     37  H   UNL     1     145.393 165.848 185.920  0.00  0.00    +0.032 HD
ATOM     38  H   UNL     1     147.428 166.912 187.280  0.00  0.00    +0.060 HD
ATOM     39  H   UNL     1     148.793 164.862 187.088  0.00  0.00    +0.036 HD
ATOM     40  H   UNL     1     147.174 164.371 184.605  0.00  0.00    +0.074 HD
ATOM     41  H   UNL     1     149.752 164.917 184.688  0.00  0.00    +0.035 HD
ATOM     42  H   UNL     1     149.088 163.736 183.568  0.00  0.00    +0.035 HD
ATOM     43  H   UNL     1     150.263 161.024 186.230  0.00  0.00    +0.069 HD
ATOM     44  H   UNL     1     151.756 163.637 183.919  0.00  0.00    +0.034 HD
ATOM     45  H   UNL     1     151.655 161.905 184.029  0.00  0.00    +0.034 HD
ATOM     46  H   UNL     1     153.618 162.317 184.983  0.00  0.00    +0.060 HD
ATOM     47  H   UNL     1     153.212 164.875 185.232  0.00  0.00    +0.034 HD
ATOM     48  H   UNL     1     154.465 164.036 186.107  0.00  0.00    +0.034 HD
ATOM     49  H   UNL     1     154.852 165.141 188.060  0.00  0.00    +0.062 HD
ATOM     50  H   UNL     1     153.801 165.395 190.394  0.00  0.00    +0.062 HD
ATOM     51  H   UNL     1     152.358 167.548 188.703  0.00  0.00    +0.069 HD
ATOM     52  H   UNL     1     150.917 168.161 192.790  0.00  0.00    +0.074 HD
ATOM     53  H   UNL     1     149.442 169.871 193.098  0.00  0.00    +0.038 HD
ATOM     54  H   UNL     1     148.939 170.275 190.072  0.00  0.00    +0.057 HD
ATOM     55  H   UNL     1     147.322 170.695 192.654  0.00  0.00    +0.059 HD
ATOM     56  H   UNL     1     146.812 172.041 190.118  0.00  0.00    +0.064 HD
ATOM     57  H   UNL     1     146.608 169.723 189.141  0.00  0.00    +0.032 HD
ATOM     58  H   UNL     1     145.186 170.770 189.017  0.00  0.00    +0.032 HD
ATOM     59  H   UNL     1     144.221 169.590 191.074  0.00  0.00    +0.060 HD
ENDROOT
BRANCH   1  60
ATOM     60  C   UNL     1     142.775 169.178 188.956  0.00  0.00    -0.057 C 
ATOM     61  H   UNL     1     142.292 169.562 189.861  0.00  0.00    +0.024 HD
ATOM     62  H   UNL     1     142.036 168.568 188.426  0.00  0.00    +0.024 HD
ATOM     63  H   UNL     1     143.017 170.038 188.325  0.00  0.00    +0.024 HD
ENDBRANCH   1  60
BRANCH  26  64
ATOM     64  C   UNL     1     151.006 170.783 191.962  0.00  0.00    -0.056 C 
ATOM     65  H   UNL     1     151.176 171.308 192.910  0.00  0.00    +0.024 HD
ATOM     66  H   UNL     1     150.831 171.533 191.187  0.00  0.00    +0.024 HD
ATOM     67  H   UNL     1     151.920 170.247 191.694  0.00  0.00    +0.024 HD
ENDBRANCH  26  64
BRANCH  18  68
ATOM     68  C   UNL     1     151.406 164.817 187.527  0.00  0.00    -0.043 C 
ATOM     69  H   UNL     1     151.068 163.974 188.133  0.00  0.00    +0.027 HD
ATOM     70  H   UNL     1     151.047 165.712 188.038  0.00  0.00    +0.027 HD
ATOM     71  H   UNL     1     150.932 164.788 186.546  0.00  0.00    +0.027 HD
ENDBRANCH  18  68
BRANCH   7  72
ATOM     72  C   UNL     1     146.837 164.340 187.678  0.00  0.00    -0.057 C 
ATOM     73  H   UNL     1     146.399 165.155 188.258  0.00  0.00    +0.023 HD
ATOM     74  H   UNL     1     146.021 163.762 187.235  0.00  0.00    +0.023 HD
ATOM     75  H   UNL     1     147.363 163.698 188.390  0.00  0.00    +0.023 HD
ENDBRANCH   7  72
BRANCH  25  76
ATOM     76  C   UNL     1     149.177 167.254 191.839  0.00  0.00    +0.020 C 
ATOM     77  H   UNL     1     148.230 167.783 191.997  0.00  0.00    +0.036 HD
BRANCH  76  78
ATOM     78  C   UNL     1     149.105 166.587 190.460  0.00  0.00    -0.057 C 
ATOM     79  H   UNL     1     149.780 167.047 189.734  0.00  0.00    +0.023 HD
ATOM     80  H   UNL     1     149.334 165.523 190.536  0.00  0.00    +0.023 HD
ATOM     81  H   UNL     1     148.104 166.639 190.030  0.00  0.00    +0.023 HD
ENDBRANCH  76  78
BRANCH  76  82
ATOM     82  C   UNL     1     149.341 166.251 193.037  0.00  0.00    +0.067 C 
ATOM     83  H   UNL     1     149.333 166.825 193.970  0.00  0.00    +0.060 HD
BRANCH  82  84
ATOM     84  C   UNL     1     150.616 165.361 193.146  0.00  0.00    -0.017 C 
ATOM     85  H   UNL     1     151.455 165.932 192.731  0.00  0.00    +0.032 HD
BRANCH  84  86
ATOM     86  C   UNL     1     150.959 165.153 194.632  0.00  0.00    -0.060 C 
ATOM     87  H   UNL     1     152.002 165.427 194.823  0.00  0.00    +0.023 HD
ATOM     88  H   UNL     1     150.842 164.102 194.923  0.00  0.00    +0.023 HD
ATOM     89  H   UNL     1     150.322 165.757 195.291  0.00  0.00    +0.023 HD
ENDBRANCH  84  86
BRANCH  84  90
ATOM     90  C   UNL     1     150.626 163.985 192.438  0.00  0.00    -0.041 C 
ATOM     91  H   UNL     1     149.584 163.685 192.261  0.00  0.00    +0.027 HD
ATOM     92  H   UNL     1     151.004 163.225 193.125  0.00  0.00    +0.027 HD
BRANCH  90  93
ATOM     93  C   UNL     1     151.395 163.879 191.123  0.00  0.00    +0.007 C 
ATOM     94  H   UNL     1     152.384 164.339 191.191  0.00  0.00    +0.034 HD
ATOM     95  H   UNL     1     150.848 164.388 190.320  0.00  0.00    +0.034 HD
BRANCH  93  96
ATOM     96  C   UNL     1     151.578 162.431 190.683  0.00  0.00    +0.139 C 
ATOM     97  O   UNL     1     152.661 161.867 190.874  0.00  0.00    -0.297 OA
BRANCH  96  98
ATOM     98  C   UNL     1     150.409 161.727 189.982  0.00  0.00    +0.041 C 
ATOM     99  H   UNL     1     150.841 161.281 189.083  0.00  0.00    +0.040 HD
BRANCH  98 100
ATOM    100  C   UNL     1     149.342 162.715 189.507  0.00  0.00    -0.053 C 
ATOM    101  H   UNL     1     148.942 162.453 188.523  0.00  0.00    +0.024 HD
ATOM    102  H   UNL     1     148.494 162.727 190.202  0.00  0.00    +0.024 HD
ATOM    103  H   UNL     1     149.738 163.737 189.469  0.00  0.00    +0.024 HD
ENDBRANCH  98 100
BRANCH  98 104
ATOM    104  C   UNL     1     149.833 160.562 190.824  0.00  0.00    +0.071 C 
ATOM    105  H   UNL     1     150.412 160.432 191.747  0.00  0.00    +0.061 HD
BRANCH 104 106
ATOM    106  C   UNL     1     148.338 160.675 191.212  0.00  0.00    -0.006 C 
ATOM    107  H   UNL     1     148.230 160.564 192.298  0.00  0.00    +0.033 HD
ATOM    108  H   UNL     1     148.016 161.705 191.009  0.00  0.00    +0.033 HD
BRANCH 106 109
ATOM    109  C   UNL     1     147.406 159.755 190.469  0.00  0.00    -0.067 C 
ATOM    110  C   UNL     1     146.258 160.171 189.917  0.00  0.00    -0.005 C 
ATOM    111  H   UNL     1     147.743 158.723 190.402  0.00  0.00    +0.059 HD
ATOM    112  H   UNL     1     146.001 161.227 189.979  0.00  0.00    +0.078 HD
BRANCH 110 113
ATOM    113  N   UNL     1     145.322 159.397 189.251  0.00  0.00    -0.284 N 
ATOM    114  C   UNL     1     144.723 159.726 188.036  0.00  0.00    +0.206 C 
ATOM    115  O   UNL     1     143.891 159.045 187.442  0.00  0.00    -0.279 OA
ATOM    116  H   UNL     1     145.063 160.678 187.610  0.00  0.00    +0.126 HD
BRANCH 113 117
ATOM    117  C   UNL     1     144.968 158.113 189.851  0.00  0.00    +0.007 C 
ATOM    118  H   UNL     1     144.812 158.269 190.925  0.00  0.00    +0.043 HD
ATOM    119  H   UNL     1     145.751 157.363 189.716  0.00  0.00    +0.043 HD
ATOM    120  H   UNL     1     144.044 157.740 189.395  0.00  0.00    +0.043 HD
ENDBRANCH 113 117
ENDBRANCH 110 113
ENDBRANCH 106 109
ENDBRANCH 104 106
BRANCH 104 121
ATOM    121  O   UNL     1     149.930 159.344 190.049  0.00  0.00    -0.379 OA
BRANCH 121 122
ATOM    122  C   UNL     1     150.966 158.472 190.494  0.00  0.00    +0.037 C 
ATOM    123  H   UNL     1     151.657 159.046 191.118  0.00  0.00    +0.052 HD
ATOM    124  H   UNL     1     150.558 157.655 191.091  0.00  0.00    +0.052 HD
ATOM    125  H   UNL     1     151.518 158.069 189.639  0.00  0.00    +0.052 HD
ENDBRANCH 121 122
ENDBRANCH 104 121
ENDBRANCH  98 104
ENDBRANCH  96  98
ENDBRANCH  93  96
ENDBRANCH  90  93
ENDBRANCH  84  90
ENDBRANCH  82  84
BRANCH  82 126
ATOM    126  O   UNL     1     148.186 165.389 193.061  0.00  0.00    -0.379 OA
BRANCH 126 127
ATOM    127  C   UNL     1     147.236 165.745 194.062  0.00  0.00    +0.037 C 
ATOM    128  H   UNL     1     147.269 166.823 194.251  0.00  0.00    +0.052 HD
ATOM    129  H   UNL     1     146.227 165.442 193.764  0.00  0.00    +0.052 HD
ATOM    130  H   UNL     1     147.498 165.223 194.989  0.00  0.00    +0.052 HD
ENDBRANCH 126 127
ENDBRANCH  82 126
ENDBRANCH  76  82
ENDBRANCH  25  76
BRANCH  31 131
ATOM    131  O   UNL     1     145.728 168.155 191.043  0.00  0.00    -0.379 OA
BRANCH 131 132
ATOM    132  C   UNL     1     144.975 167.048 191.534  0.00  0.00    +0.037 C 
ATOM    133  H   UNL     1     144.137 167.397 192.144  0.00  0.00    +0.052 HD
ATOM    134  H   UNL     1     144.583 166.489 190.679  0.00  0.00    +0.052 HD
ATOM    135  H   UNL     1     145.619 166.382 192.121  0.00  0.00    +0.052 HD
ENDBRANCH 131 132
ENDBRANCH  31 131
BRANCH  29 136
ATOM    136  O   UNL     1     145.368 171.675 191.579  0.00  0.00    -0.376 OA
BRANCH 136 137
ATOM    137  C   UNL     1     144.952 173.002 191.285  0.00  0.00    +0.037 C 
ATOM    138  H   UNL     1     144.828 173.135 190.204  0.00  0.00    +0.052 HD
ATOM    139  H   UNL     1     143.983 173.169 191.770  0.00  0.00    +0.052 HD
ATOM    140  H   UNL     1     145.668 173.727 191.680  0.00  0.00    +0.052 HD
ENDBRANCH 136 137
ENDBRANCH  29 136
BRANCH  16 141
ATOM    141  O   UNL     1     152.578 161.863 186.687  0.00  0.00    -0.379 OA
BRANCH 141 142
ATOM    142  C   UNL     1     153.737 161.178 187.143  0.00  0.00    +0.037 C 
ATOM    143  H   UNL     1     153.412 160.265 187.653  0.00  0.00    +0.052 HD
ATOM    144  H   UNL     1     154.312 161.785 187.850  0.00  0.00    +0.052 HD
ATOM    145  H   UNL     1     154.365 160.893 186.290  0.00  0.00    +0.052 HD
ENDBRANCH 141 142
ENDBRANCH  16 141
BRANCH   6 146
ATOM    146  O   UNL     1     148.538 166.917 185.524  0.00  0.00    -0.379 OA
BRANCH 146 147
ATOM    147  C   UNL     1     149.449 167.705 186.286  0.00  0.00    +0.037 C 
ATOM    148  H   UNL     1     149.961 168.420 185.635  0.00  0.00    +0.052 HD
ATOM    149  H   UNL     1     150.189 167.073 186.792  0.00  0.00    +0.052 HD
ATOM    150  H   UNL     1     148.885 168.256 187.044  0.00  0.00    +0.052 HD
ENDBRANCH 146 147
ENDBRANCH   6 146
BRANCH   4 151
ATOM    151  O   UNL     1     146.412 169.012 185.272  0.00  0.00    -0.376 OA
BRANCH 151 152
ATOM    152  C   UNL     1     146.062 170.275 185.828  0.00  0.00    +0.037 C 
ATOM    153  H   UNL     1     145.597 170.149 186.811  0.00  0.00    +0.052 HD
ATOM    154  H   UNL     1     146.977 170.852 185.955  0.00  0.00    +0.052 HD
ATOM    155  H   UNL     1     145.389 170.822 185.163  0.00  0.00    +0.052 HD
ENDBRANCH 151 152
ENDBRANCH   4 151
TORSDOF 33
ENDMDL
MODEL 3
REMARK VINA RESULT:      -4.5      2.991      9.089
REMARK  Name = Reidispongiolide A_conf3
REMARK  33 active torsions:
REMARK  status: ('A' for Active; 'I' for Inactive)
REMARK    1  A    between atoms: C_1  and  C_2
REMARK    2  A    between atoms: C_5  and  O_67
REMARK    3  A    between atoms: C_7  and  O_65
REMARK    4  A    between atoms: C_8  and  C_64
REMARK    5  A    between atoms: C_17  and  O_62
REMARK    6  A    between atoms: C_19  and  C_61
REMARK    7  A    between atoms: C_26  and  C_38
REMARK    8  A    between atoms: C_27  and  C_37
REMARK    9  A    between atoms: C_30  and  O_35
REMARK   10  A    between atoms: C_32  and  O_33
REMARK   11  A    between atoms: O_33  and  C_34
REMARK   12  A    between atoms: O_35  and  C_36
REMARK   13  A    between atoms: C_38  and  C_39
REMARK   14  A    between atoms: C_38  and  C_40
REMARK   15  A    between atoms: C_40  and  C_41
REMARK   16  A    between atoms: C_40  and  O_59
REMARK   17  A    between atoms: C_41  and  C_42
REMARK   18  A    between atoms: C_41  and  C_43
REMARK   19  A    between atoms: C_43  and  C_44
REMARK   20  A    between atoms: C_44  and  C_45
REMARK   21  A    between atoms: C_45  and  C_47
REMARK   22  A    between atoms: C_47  and  C_48
REMARK   23  A    between atoms: C_47  and  C_49
REMARK   24  A    between atoms: C_49  and  C_50
REMARK   25  A    between atoms: C_49  and  O_57
REMARK   26  A    between atoms: C_50  and  C_51
REMARK   27  A    between atoms: C_52  and  N_53
REMARK   28  A    between atoms: N_53  and  C_54
REMARK   29  A    between atoms: O_57  and  C_58
REMARK   30  A    between atoms: O_59  and  C_60
REMARK   31  A    between atoms: O_62  and  C_63
REMARK   32  A    between atoms: O_65  and  C_66
REMARK   33  A    between atoms: O_67  and  C_68
REMARK                            x       y       z     vdW  Elec       q    Type
REMARK                         _______ _______ _______ _____ _____    ______ ____
ROOT
ATOM      1  C   UNL     1     149.440 166.976 192.952  0.00  0.00    +0.001 C 
ATOM      2  C   UNL     1     150.244 166.051 192.044  0.00  0.00    -0.080 C 
ATOM      3  C   UNL     1     150.477 164.743 192.257  0.00  0.00    -0.059 C 
ATOM      4  C   UNL     1     151.303 163.758 191.470  0.00  0.00    +0.079 C 
ATOM      5  C   UNL     1     152.142 164.271 190.283  0.00  0.00    +0.004 C 
ATOM      6  C   UNL     1     151.376 164.647 188.994  0.00  0.00    +0.067 C 
ATOM      7  C   UNL     1     152.197 165.572 188.044  0.00  0.00    +0.020 C 
ATOM      8  C   UNL     1     153.563 164.962 187.588  0.00  0.00    +0.112 C 
ATOM      9  C   UNL     1     153.510 164.055 186.339  0.00  0.00    +0.006 C 
ATOM     10  C   UNL     1     153.692 164.805 185.046  0.00  0.00    -0.057 C 
ATOM     11  C   UNL     1     154.197 166.050 185.062  0.00  0.00    +0.022 C 
ATOM     12  C   UNL     1     154.658 166.713 186.295  0.00  0.00    +0.332 C 
ATOM     13  O   UNL     1     155.165 167.827 186.260  0.00  0.00    -0.246 OA
ATOM     14  O   UNL     1     154.568 165.998 187.439  0.00  0.00    -0.458 OA
ATOM     15  C   UNL     1     153.503 164.044 183.740  0.00  0.00    -0.004 C 
ATOM     16  C   UNL     1     152.562 164.555 182.608  0.00  0.00    +0.066 C 
ATOM     17  C   UNL     1     151.093 164.067 182.715  0.00  0.00    -0.005 C 
ATOM     18  C   UNL     1     150.063 164.940 183.412  0.00  0.00    -0.070 C 
ATOM     19  C   UNL     1     148.879 165.205 182.818  0.00  0.00    -0.062 C 
ATOM     20  C   UNL     1     147.807 165.991 183.394  0.00  0.00    -0.055 C 
ATOM     21  C   UNL     1     147.178 165.660 184.532  0.00  0.00    +0.023 C 
ATOM     22  C   UNL     1     146.217 166.602 185.124  0.00  0.00    +0.332 C 
ATOM     23  O   UNL     1     145.605 167.465 184.510  0.00  0.00    -0.246 OA
ATOM     24  O   UNL     1     146.208 166.401 186.463  0.00  0.00    -0.457 OA
ATOM     25  C   UNL     1     145.741 167.505 187.270  0.00  0.00    +0.114 C 
ATOM     26  C   UNL     1     144.724 167.018 188.351  0.00  0.00    +0.012 C 
ATOM     27  C   UNL     1     145.308 166.301 189.546  0.00  0.00    -0.079 C 
ATOM     28  C   UNL     1     145.175 166.753 190.810  0.00  0.00    -0.059 C 
ATOM     29  C   UNL     1     145.685 166.048 192.036  0.00  0.00    +0.079 C 
ATOM     30  C   UNL     1     147.217 165.911 192.147  0.00  0.00    +0.004 C 
ATOM     31  C   UNL     1     147.970 167.213 192.482  0.00  0.00    +0.067 C 
ATOM     32  H   UNL     1     149.960 167.945 192.902  0.00  0.00    +0.037 HD
ATOM     33  H   UNL     1     150.655 166.544 191.168  0.00  0.00    +0.057 HD
ATOM     34  H   UNL     1     150.027 164.280 193.133  0.00  0.00    +0.059 HD
ATOM     35  H   UNL     1     152.023 163.365 192.205  0.00  0.00    +0.064 HD
ATOM     36  H   UNL     1     152.845 163.471 190.031  0.00  0.00    +0.032 HD
ATOM     37  H   UNL     1     152.740 165.114 190.640  0.00  0.00    +0.032 HD
ATOM     38  H   UNL     1     150.453 165.173 189.265  0.00  0.00    +0.060 HD
ATOM     39  H   UNL     1     151.595 165.719 187.144  0.00  0.00    +0.036 HD
ATOM     40  H   UNL     1     153.950 164.339 188.400  0.00  0.00    +0.074 HD
ATOM     41  H   UNL     1     152.582 163.477 186.318  0.00  0.00    +0.035 HD
ATOM     42  H   UNL     1     154.332 163.329 186.406  0.00  0.00    +0.035 HD
ATOM     43  H   UNL     1     154.404 166.605 184.152  0.00  0.00    +0.069 HD
ATOM     44  H   UNL     1     153.257 162.994 183.960  0.00  0.00    +0.034 HD
ATOM     45  H   UNL     1     154.512 163.995 183.295  0.00  0.00    +0.034 HD
ATOM     46  H   UNL     1     152.965 164.073 181.703  0.00  0.00    +0.060 HD
ATOM     47  H   UNL     1     151.073 163.072 183.183  0.00  0.00    +0.034 HD
ATOM     48  H   UNL     1     150.750 163.903 181.685  0.00  0.00    +0.034 HD
ATOM     49  H   UNL     1     148.680 164.844 181.808  0.00  0.00    +0.062 HD
ATOM     50  H   UNL     1     147.535 166.897 182.852  0.00  0.00    +0.062 HD
ATOM     51  H   UNL     1     147.417 164.771 185.099  0.00  0.00    +0.069 HD
ATOM     52  H   UNL     1     145.145 168.178 186.642  0.00  0.00    +0.074 HD
ATOM     53  H   UNL     1     144.228 167.930 188.713  0.00  0.00    +0.038 HD
ATOM     54  H   UNL     1     145.833 165.364 189.358  0.00  0.00    +0.057 HD
ATOM     55  H   UNL     1     144.624 167.679 190.983  0.00  0.00    +0.059 HD
ATOM     56  H   UNL     1     145.255 165.036 192.041  0.00  0.00    +0.064 HD
ATOM     57  H   UNL     1     147.602 165.471 191.220  0.00  0.00    +0.032 HD
ATOM     58  H   UNL     1     147.402 165.193 192.956  0.00  0.00    +0.032 HD
ATOM     59  H   UNL     1     147.446 167.729 193.299  0.00  0.00    +0.060 HD
ENDROOT
BRANCH   1  60
ATOM     60  C   UNL     1     149.473 166.565 194.432  0.00  0.00    -0.057 C 
ATOM     61  H   UNL     1     148.485 166.223 194.757  0.00  0.00    +0.024 HD
ATOM     62  H   UNL     1     149.749 167.413 195.068  0.00  0.00    +0.024 HD
ATOM     63  H   UNL     1     150.180 165.755 194.626  0.00  0.00    +0.024 HD
ENDBRANCH   1  60
BRANCH  26  64
ATOM     64  C   UNL     1     143.644 166.135 187.709  0.00  0.00    -0.056 C 
ATOM     65  H   UNL     1     143.830 165.996 186.636  0.00  0.00    +0.024 HD
ATOM     66  H   UNL     1     142.653 166.578 187.826  0.00  0.00    +0.024 HD
ATOM     67  H   UNL     1     143.619 165.151 188.185  0.00  0.00    +0.024 HD
ENDBRANCH  26  64
BRANCH  18  68
ATOM     68  C   UNL     1     150.449 165.442 184.771  0.00  0.00    -0.043 C 
ATOM     69  H   UNL     1     149.642 165.268 185.485  0.00  0.00    +0.027 HD
ATOM     70  H   UNL     1     151.331 164.960 185.194  0.00  0.00    +0.027 HD
ATOM     71  H   UNL     1     150.662 166.510 184.699  0.00  0.00    +0.027 HD
ENDBRANCH  18  68
BRANCH   7  72
ATOM     72  C   UNL     1     152.341 166.964 188.674  0.00  0.00    -0.057 C 
ATOM     73  H   UNL     1     151.853 167.721 188.056  0.00  0.00    +0.023 HD
ATOM     74  H   UNL     1     151.907 167.013 189.676  0.00  0.00    +0.023 HD
ATOM     75  H   UNL     1     153.394 167.250 188.743  0.00  0.00    +0.023 HD
ENDBRANCH   7  72
BRANCH  25  76
ATOM     76  C   UNL     1     146.978 168.300 187.817  0.00  0.00    +0.020 C 
ATOM     77  H   UNL     1     146.938 168.228 188.910  0.00  0.00    +0.036 HD
BRANCH  76  78
ATOM     78  C   UNL     1     148.298 167.666 187.363  0.00  0.00    -0.057 C 
ATOM     79  H   UNL     1     148.493 167.816 186.299  0.00  0.00    +0.023 HD
ATOM     80  H   UNL     1     149.134 168.065 187.939  0.00  0.00    +0.023 HD
ATOM     81  H   UNL     1     148.316 166.589 187.535  0.00  0.00    +0.023 HD
ENDBRANCH  76  78
BRANCH  76  82
ATOM     82  C   UNL     1     146.833 169.823 187.458  0.00  0.00    +0.067 C 
ATOM     83  H   UNL     1     147.828 170.280 187.489  0.00  0.00    +0.060 HD
BRANCH  82  84
ATOM     84  C   UNL     1     145.954 170.757 188.345  0.00  0.00    -0.017 C 
ATOM     85  H   UNL     1     146.584 171.593 188.671  0.00  0.00    +0.032 HD
BRANCH  84  86
ATOM     86  C   UNL     1     144.855 171.391 187.474  0.00  0.00    -0.060 C 
ATOM     87  H   UNL     1     144.959 172.481 187.464  0.00  0.00    +0.023 HD
ATOM     88  H   UNL     1     143.856 171.165 187.867  0.00  0.00    +0.023 HD
ATOM     89  H   UNL     1     144.895 171.036 186.436  0.00  0.00    +0.023 HD
ENDBRANCH  84  86
BRANCH  84  90
ATOM     90  C   UNL     1     145.300 170.174 189.621  0.00  0.00    -0.041 C 
ATOM     91  H   UNL     1     145.577 170.815 190.469  0.00  0.00    +0.027 HD
ATOM     92  H   UNL     1     145.761 169.212 189.859  0.00  0.00    +0.027 HD
BRANCH  90  93
ATOM     93  C   UNL     1     143.783 170.001 189.614  0.00  0.00    +0.007 C 
ATOM     94  H   UNL     1     143.493 168.967 189.408  0.00  0.00    +0.034 HD
ATOM     95  H   UNL     1     143.331 170.633 188.840  0.00  0.00    +0.034 HD
BRANCH  93  96
ATOM     96  C   UNL     1     143.155 170.411 190.941  0.00  0.00    +0.139 C 
ATOM     97  O   UNL     1     143.265 169.669 191.924  0.00  0.00    -0.297 OA
BRANCH  96  98
ATOM     98  C   UNL     1     142.373 171.730 191.002  0.00  0.00    +0.041 C 
ATOM     99  H   UNL     1     141.568 171.552 191.718  0.00  0.00    +0.040 HD
BRANCH  98 100
ATOM    100  C   UNL     1     141.703 172.065 189.668  0.00  0.00    -0.053 C 
ATOM    101  H   UNL     1     141.021 172.918 189.749  0.00  0.00    +0.024 HD
ATOM    102  H   UNL     1     142.455 172.329 188.916  0.00  0.00    +0.024 HD
ATOM    103  H   UNL     1     141.148 171.203 189.277  0.00  0.00    +0.024 HD
ENDBRANCH  98 100
BRANCH  98 104
ATOM    104  C   UNL     1     143.225 172.893 191.568  0.00  0.00    +0.071 C 
ATOM    105  H   UNL     1     143.900 172.529 192.353  0.00  0.00    +0.061 HD
BRANCH 104 106
ATOM    106  C   UNL     1     144.072 173.681 190.539  0.00  0.00    -0.006 C 
ATOM    107  H   UNL     1     143.842 173.329 189.525  0.00  0.00    +0.033 HD
ATOM    108  H   UNL     1     143.728 174.724 190.550  0.00  0.00    +0.033 HD
BRANCH 106 109
ATOM    109  C   UNL     1     145.555 173.691 190.794  0.00  0.00    -0.067 C 
ATOM    110  C   UNL     1     146.110 173.150 191.887  0.00  0.00    -0.005 C 
ATOM    111  H   UNL     1     146.149 174.161 190.013  0.00  0.00    +0.059 HD
ATOM    112  H   UNL     1     145.465 172.652 192.609  0.00  0.00    +0.078 HD
BRANCH 110 113
ATOM    113  N   UNL     1     147.453 173.143 192.227  0.00  0.00    -0.284 N 
ATOM    114  C   UNL     1     147.958 172.946 193.511  0.00  0.00    +0.206 C 
ATOM    115  O   UNL     1     149.147 172.941 193.818  0.00  0.00    -0.279 OA
ATOM    116  H   UNL     1     147.190 172.774 194.275  0.00  0.00    +0.126 HD
BRANCH 113 117
ATOM    117  C   UNL     1     148.417 173.316 191.143  0.00  0.00    +0.007 C 
ATOM    118  H   UNL     1     149.212 172.570 191.270  0.00  0.00    +0.043 HD
ATOM    119  H   UNL     1     148.867 174.311 191.144  0.00  0.00    +0.043 HD
ATOM    120  H   UNL     1     147.917 173.159 190.181  0.00  0.00    +0.043 HD
ENDBRANCH 113 117
ENDBRANCH 110 113
ENDBRANCH 106 109
ENDBRANCH 104 106
BRANCH 104 121
ATOM    121  O   UNL     1     142.334 173.872 192.150  0.00  0.00    -0.379 OA
BRANCH 121 122
ATOM    122  C   UNL     1     141.365 173.304 193.029  0.00  0.00    +0.037 C 
ATOM    123  H   UNL     1     141.521 173.718 194.030  0.00  0.00    +0.052 HD
ATOM    124  H   UNL     1     140.353 173.551 192.706  0.00  0.00    +0.052 HD
ATOM    125  H   UNL     1     141.485 172.217 193.077  0.00  0.00    +0.052 HD
ENDBRANCH 121 122
ENDBRANCH 104 121
ENDBRANCH  98 104
ENDBRANCH  96  98
ENDBRANCH  93  96
ENDBRANCH  90  93
ENDBRANCH  84  90
ENDBRANCH  82  84
BRANCH  82 126
ATOM    126  O   UNL     1     146.364 169.921 186.099  0.00  0.00    -0.379 OA
BRANCH 126 127
ATOM    127  C   UNL     1     147.351 170.408 185.194  0.00  0.00    +0.037 C 
ATOM    128  H   UNL     1     146.878 170.790 184.284  0.00  0.00    +0.052 HD
ATOM    129  H   UNL     1     147.956 171.190 185.665  0.00  0.00    +0.052 HD
ATOM    130  H   UNL     1     148.009 169.576 184.919  0.00  0.00    +0.052 HD
ENDBRANCH 126 127
ENDBRANCH  82 126
ENDBRANCH  76  82
ENDBRANCH  25  76
BRANCH  31 131
ATOM    131  O   UNL     1     147.991 168.057 191.318  0.00  0.00    -0.379 OA
BRANCH 131 132
ATOM    132  C   UNL     1     148.332 169.404 191.637  0.00  0.00    +0.037 C 
ATOM    133  H   UNL     1     147.579 170.092 191.242  0.00  0.00    +0.052 HD
ATOM    134  H   UNL     1     148.367 169.504 192.726  0.00  0.00    +0.052 HD
ATOM    135  H   UNL     1     149.320 169.652 191.231  0.00  0.00    +0.052 HD
ENDBRANCH 131 132
ENDBRANCH  31 131
BRANCH  29 136
ATOM    136  O   UNL     1     145.207 166.788 193.173  0.00  0.00    -0.376 OA
BRANCH 136 137
ATOM    137  C   UNL     1     143.829 166.566 193.444  0.00  0.00    +0.037 C 
ATOM    138  H   UNL     1     143.709 165.928 194.326  0.00  0.00    +0.052 HD
ATOM    139  H   UNL     1     143.362 167.536 193.649  0.00  0.00    +0.052 HD
ATOM    140  H   UNL     1     143.334 166.119 192.578  0.00  0.00    +0.052 HD
ENDBRANCH 136 137
ENDBRANCH  29 136
BRANCH  16 141
ATOM    141  O   UNL     1     152.699 165.967 182.432  0.00  0.00    -0.379 OA
BRANCH 141 142
ATOM    142  C   UNL     1     153.254 166.340 181.179  0.00  0.00    +0.037 C 
ATOM    143  H   UNL     1     152.539 166.999 180.674  0.00  0.00    +0.052 HD
ATOM    144  H   UNL     1     153.434 165.469 180.541  0.00  0.00    +0.052 HD
ATOM    145  H   UNL     1     154.188 166.896 181.332  0.00  0.00    +0.052 HD
ENDBRANCH 141 142
ENDBRANCH  16 141
BRANCH   6 146
ATOM    146  O   UNL     1     151.056 163.447 188.278  0.00  0.00    -0.379 OA
BRANCH 146 147
ATOM    147  C   UNL     1     149.721 163.449 187.779  0.00  0.00    +0.037 C 
ATOM    148  H   UNL     1     149.267 162.464 187.920  0.00  0.00    +0.052 HD
ATOM    149  H   UNL     1     149.697 163.716 186.716  0.00  0.00    +0.052 HD
ATOM    150  H   UNL     1     149.141 164.189 188.338  0.00  0.00    +0.052 HD
ENDBRANCH 146 147
ENDBRANCH   6 146
BRANCH   4 151
ATOM    151  O   UNL     1     150.405 162.707 191.106  0.00  0.00    -0.376 OA
BRANCH 151 152
ATOM    152  C   UNL     1     149.082 162.900 191.598  0.00  0.00    +0.037 C 
ATOM    153  H   UNL     1     149.104 163.296 192.618  0.00  0.00    +0.052 HD
ATOM    154  H   UNL     1     148.589 163.631 190.958  0.00  0.00    +0.052 HD
ATOM    155  H   UNL     1     148.514 161.967 191.571  0.00  0.00    +0.052 HD
ENDBRANCH 151 152
ENDBRANCH   4 151
TORSDOF 33
ENDMDL
MODEL 4
REMARK VINA RESULT:      -4.4      1.352      1.847
REMARK  Name = Reidispongiolide A_conf3
REMARK  33 active torsions:
REMARK  status: ('A' for Active; 'I' for Inactive)
REMARK    1  A    between atoms: C_1  and  C_2
REMARK    2  A    between atoms: C_5  and  O_67
REMARK    3  A    between atoms: C_7  and  O_65
REMARK    4  A    between atoms: C_8  and  C_64
REMARK    5  A    between atoms: C_17  and  O_62
REMARK    6  A    between atoms: C_19  and  C_61
REMARK    7  A    between atoms: C_26  and  C_38
REMARK    8  A    between atoms: C_27  and  C_37
REMARK    9  A    between atoms: C_30  and  O_35
REMARK   10  A    between atoms: C_32  and  O_33
REMARK   11  A    between atoms: O_33  and  C_34
REMARK   12  A    between atoms: O_35  and  C_36
REMARK   13  A    between atoms: C_38  and  C_39
REMARK   14  A    between atoms: C_38  and  C_40
REMARK   15  A    between atoms: C_40  and  C_41
REMARK   16  A    between atoms: C_40  and  O_59
REMARK   17  A    between atoms: C_41  and  C_42
REMARK   18  A    between atoms: C_41  and  C_43
REMARK   19  A    between atoms: C_43  and  C_44
REMARK   20  A    between atoms: C_44  and  C_45
REMARK   21  A    between atoms: C_45  and  C_47
REMARK   22  A    between atoms: C_47  and  C_48
REMARK   23  A    between atoms: C_47  and  C_49
REMARK   24  A    between atoms: C_49  and  C_50
REMARK   25  A    between atoms: C_49  and  O_57
REMARK   26  A    between atoms: C_50  and  C_51
REMARK   27  A    between atoms: C_52  and  N_53
REMARK   28  A    between atoms: N_53  and  C_54
REMARK   29  A    between atoms: O_57  and  C_58
REMARK   30  A    between atoms: O_59  and  C_60
REMARK   31  A    between atoms: O_62  and  C_63
REMARK   32  A    between atoms: O_65  and  C_66
REMARK   33  A    between atoms: O_67  and  C_68
REMARK                            x       y       z     vdW  Elec       q    Type
REMARK                         _______ _______ _______ _____ _____    ______ ____
ROOT
ATOM      1  C   UNL     1     143.938 168.600 189.372  0.00  0.00    +0.001 C 
ATOM      2  C   UNL     1     144.681 168.010 188.178  0.00  0.00    -0.080 C 
ATOM      3  C   UNL     1     144.782 168.567 186.958  0.00  0.00    -0.059 C 
ATOM      4  C   UNL     1     145.428 168.049 185.698  0.00  0.00    +0.079 C 
ATOM      5  C   UNL     1     145.987 166.613 185.685  0.00  0.00    +0.004 C 
ATOM      6  C   UNL     1     147.305 166.368 186.453  0.00  0.00    +0.067 C 
ATOM      7  C   UNL     1     147.546 164.863 186.787  0.00  0.00    +0.020 C 
ATOM      8  C   UNL     1     147.583 163.932 185.531  0.00  0.00    +0.112 C 
ATOM      9  C   UNL     1     148.956 163.796 184.836  0.00  0.00    +0.006 C 
ATOM     10  C   UNL     1     149.798 162.676 185.388  0.00  0.00    -0.057 C 
ATOM     11  C   UNL     1     149.226 161.720 186.141  0.00  0.00    +0.022 C 
ATOM     12  C   UNL     1     147.778 161.666 186.405  0.00  0.00    +0.332 C 
ATOM     13  O   UNL     1     147.288 160.746 187.049  0.00  0.00    -0.246 OA
ATOM     14  O   UNL     1     147.019 162.630 185.835  0.00  0.00    -0.458 OA
ATOM     15  C   UNL     1     151.231 162.541 184.892  0.00  0.00    -0.004 C 
ATOM     16  C   UNL     1     152.443 162.435 185.867  0.00  0.00    +0.066 C 
ATOM     17  C   UNL     1     153.067 163.796 186.278  0.00  0.00    -0.005 C 
ATOM     18  C   UNL     1     152.611 164.472 187.559  0.00  0.00    -0.070 C 
ATOM     19  C   UNL     1     153.519 164.923 188.453  0.00  0.00    -0.062 C 
ATOM     20  C   UNL     1     153.211 165.613 189.688  0.00  0.00    -0.055 C 
ATOM     21  C   UNL     1     152.559 166.785 189.737  0.00  0.00    +0.023 C 
ATOM     22  C   UNL     1     152.148 167.327 191.041  0.00  0.00    +0.332 C 
ATOM     23  O   UNL     1     152.676 167.065 192.112  0.00  0.00    -0.246 OA
ATOM     24  O   UNL     1     151.041 168.081 190.847  0.00  0.00    -0.457 OA
ATOM     25  C   UNL     1     150.201 168.289 192.005  0.00  0.00    +0.114 C 
ATOM     26  C   UNL     1     149.797 169.792 192.141  0.00  0.00    +0.012 C 
ATOM     27  C   UNL     1     148.730 170.289 191.193  0.00  0.00    -0.079 C 
ATOM     28  C   UNL     1     147.548 170.785 191.612  0.00  0.00    -0.059 C 
ATOM     29  C   UNL     1     146.480 171.344 190.714  0.00  0.00    +0.079 C 
ATOM     30  C   UNL     1     145.821 170.343 189.745  0.00  0.00    +0.004 C 
ATOM     31  C   UNL     1     144.857 169.333 190.399  0.00  0.00    +0.067 C 
ATOM     32  H   UNL     1     143.498 167.732 189.889  0.00  0.00    +0.037 HD
ATOM     33  H   UNL     1     145.143 167.048 188.378  0.00  0.00    +0.057 HD
ATOM     34  H   UNL     1     144.327 169.544 186.803  0.00  0.00    +0.059 HD
ATOM     35  H   UNL     1     144.617 168.068 184.953  0.00  0.00    +0.064 HD
ATOM     36  H   UNL     1     146.161 166.358 184.635  0.00  0.00    +0.032 HD
ATOM     37  H   UNL     1     145.198 165.947 186.043  0.00  0.00    +0.032 HD
ATOM     38  H   UNL     1     147.279 166.924 187.398  0.00  0.00    +0.060 HD
ATOM     39  H   UNL     1     148.525 164.796 187.265  0.00  0.00    +0.036 HD
ATOM     40  H   UNL     1     146.901 164.341 184.779  0.00  0.00    +0.074 HD
ATOM     41  H   UNL     1     149.506 164.740 184.873  0.00  0.00    +0.035 HD
ATOM     42  H   UNL     1     148.784 163.573 183.774  0.00  0.00    +0.035 HD
ATOM     43  H   UNL     1     149.779 160.861 186.507  0.00  0.00    +0.069 HD
ATOM     44  H   UNL     1     151.439 163.330 184.152  0.00  0.00    +0.034 HD
ATOM     45  H   UNL     1     151.238 161.610 184.300  0.00  0.00    +0.034 HD
ATOM     46  H   UNL     1     153.213 161.930 185.264  0.00  0.00    +0.060 HD
ATOM     47  H   UNL     1     152.953 164.512 185.451  0.00  0.00    +0.034 HD
ATOM     48  H   UNL     1     154.148 163.624 186.356  0.00  0.00    +0.034 HD
ATOM     49  H   UNL     1     154.583 164.750 188.287  0.00  0.00    +0.062 HD
ATOM     50  H   UNL     1     153.529 165.116 190.604  0.00  0.00    +0.062 HD
ATOM     51  H   UNL     1     152.226 167.310 188.852  0.00  0.00    +0.069 HD
ATOM     52  H   UNL     1     150.789 168.098 192.910  0.00  0.00    +0.074 HD
ATOM     53  H   UNL     1     149.413 169.896 193.166  0.00  0.00    +0.038 HD
ATOM     54  H   UNL     1     148.958 170.259 190.127  0.00  0.00    +0.057 HD
ATOM     55  H   UNL     1     147.347 170.830 192.684  0.00  0.00    +0.059 HD
ATOM     56  H   UNL     1     146.936 172.144 190.113  0.00  0.00    +0.064 HD
ATOM     57  H   UNL     1     146.607 169.820 189.187  0.00  0.00    +0.032 HD
ATOM     58  H   UNL     1     145.249 170.943 189.026  0.00  0.00    +0.032 HD
ATOM     59  H   UNL     1     144.202 169.868 191.100  0.00  0.00    +0.060 HD
ENDROOT
BRANCH   1  60
ATOM     60  C   UNL     1     142.751 169.492 188.978  0.00  0.00    -0.057 C 
ATOM     61  H   UNL     1     141.804 168.986 189.194  0.00  0.00    +0.024 HD
ATOM     62  H   UNL     1     142.765 169.712 187.906  0.00  0.00    +0.024 HD
ATOM     63  H   UNL     1     142.744 170.442 189.518  0.00  0.00    +0.024 HD
ENDBRANCH   1  60
BRANCH  26  64
ATOM     64  C   UNL     1     151.036 170.691 192.024  0.00  0.00    -0.056 C 
ATOM     65  H   UNL     1     151.762 170.473 192.818  0.00  0.00    +0.024 HD
ATOM     66  H   UNL     1     150.764 171.747 192.096  0.00  0.00    +0.024 HD
ATOM     67  H   UNL     1     151.526 170.546 191.058  0.00  0.00    +0.024 HD
ENDBRANCH  26  64
BRANCH  18  68
ATOM     68  C   UNL     1     151.128 164.611 187.730  0.00  0.00    -0.043 C 
ATOM     69  H   UNL     1     150.702 165.188 186.907  0.00  0.00    +0.027 HD
ATOM     70  H   UNL     1     150.587 163.664 187.741  0.00  0.00    +0.027 HD
ATOM     71  H   UNL     1     150.933 165.111 188.679  0.00  0.00    +0.027 HD
ENDBRANCH  18  68
BRANCH   7  72
ATOM     72  C   UNL     1     146.538 164.400 187.848  0.00  0.00    -0.057 C 
ATOM     73  H   UNL     1     146.260 165.226 188.504  0.00  0.00    +0.023 HD
ATOM     74  H   UNL     1     145.625 163.996 187.404  0.00  0.00    +0.023 HD
ATOM     75  H   UNL     1     146.977 163.629 188.487  0.00  0.00    +0.023 HD
ENDBRANCH   7  72
BRANCH  25  76
ATOM     76  C   UNL     1     149.008 167.271 191.964  0.00  0.00    +0.020 C 
ATOM     77  H   UNL     1     148.108 167.832 192.241  0.00  0.00    +0.036 HD
BRANCH  76  78
ATOM     78  C   UNL     1     148.789 166.721 190.549  0.00  0.00    -0.057 C 
ATOM     79  H   UNL     1     147.903 167.141 190.067  0.00  0.00    +0.023 HD
ATOM     80  H   UNL     1     149.661 166.912 189.923  0.00  0.00    +0.023 HD
ATOM     81  H   UNL     1     148.661 165.637 190.545  0.00  0.00    +0.023 HD
ENDBRANCH  76  78
BRANCH  76  82
ATOM     82  C   UNL     1     149.211 166.168 193.064  0.00  0.00    +0.067 C 
ATOM     83  H   UNL     1     149.666 166.638 193.943  0.00  0.00    +0.060 HD
BRANCH  82  84
ATOM     84  C   UNL     1     150.117 164.932 192.778  0.00  0.00    -0.017 C 
ATOM     85  H   UNL     1     150.841 165.223 192.008  0.00  0.00    +0.032 HD
BRANCH  84  86
ATOM     86  C   UNL     1     150.958 164.624 194.031  0.00  0.00    -0.060 C 
ATOM     87  H   UNL     1     150.315 164.259 194.839  0.00  0.00    +0.023 HD
ATOM     88  H   UNL     1     151.463 165.524 194.402  0.00  0.00    +0.023 HD
ATOM     89  H   UNL     1     151.725 163.864 193.836  0.00  0.00    +0.023 HD
ENDBRANCH  84  86
BRANCH  84  90
ATOM     90  C   UNL     1     149.457 163.621 192.291  0.00  0.00    -0.041 C 
ATOM     91  H   UNL     1     148.367 163.764 192.300  0.00  0.00    +0.027 HD
ATOM     92  H   UNL     1     149.623 162.833 193.030  0.00  0.00    +0.027 HD
BRANCH  90  93
ATOM     93  C   UNL     1     149.869 163.096 190.917  0.00  0.00    +0.007 C 
ATOM     94  H   UNL     1     150.947 163.173 190.760  0.00  0.00    +0.034 HD
ATOM     95  H   UNL     1     149.376 163.674 190.126  0.00  0.00    +0.034 HD
BRANCH  93  96
ATOM     96  C   UNL     1     149.466 161.640 190.717  0.00  0.00    +0.139 C 
ATOM     97  O   UNL     1     148.401 161.230 191.193  0.00  0.00    -0.297 OA
BRANCH  96  98
ATOM     98  C   UNL     1     150.422 160.716 189.951  0.00  0.00    +0.041 C 
ATOM     99  H   UNL     1     150.831 161.331 189.147  0.00  0.00    +0.040 HD
BRANCH  98 100
ATOM    100  C   UNL     1     149.687 159.554 189.280  0.00  0.00    -0.053 C 
ATOM    101  H   UNL     1     150.329 158.677 189.150  0.00  0.00    +0.024 HD
ATOM    102  H   UNL     1     148.834 159.237 189.890  0.00  0.00    +0.024 HD
ATOM    103  H   UNL     1     149.288 159.850 188.302  0.00  0.00    +0.024 HD
ENDBRANCH  98 100
BRANCH  98 104
ATOM    104  C   UNL     1     151.622 160.262 190.818  0.00  0.00    +0.071 C 
ATOM    105  H   UNL     1     151.631 160.801 191.774  0.00  0.00    +0.061 HD
BRANCH 104 106
ATOM    106  C   UNL     1     151.707 158.746 191.125  0.00  0.00    -0.006 C 
ATOM    107  H   UNL     1     151.740 158.591 192.211  0.00  0.00    +0.033 HD
ATOM    108  H   UNL     1     150.760 158.287 190.812  0.00  0.00    +0.033 HD
BRANCH 106 109
ATOM    109  C   UNL     1     152.820 158.007 190.430  0.00  0.00    -0.067 C 
ATOM    110  C   UNL     1     152.622 157.247 189.344  0.00  0.00    -0.005 C 
ATOM    111  H   UNL     1     153.804 158.149 190.869  0.00  0.00    +0.059 HD
ATOM    112  H   UNL     1     151.619 157.184 188.925  0.00  0.00    +0.078 HD
BRANCH 110 113
ATOM    113  N   UNL     1     153.571 156.503 188.662  0.00  0.00    -0.284 N 
ATOM    114  C   UNL     1     154.737 157.013 188.094  0.00  0.00    +0.206 C 
ATOM    115  O   UNL     1     155.581 156.358 187.486  0.00  0.00    -0.279 OA
ATOM    116  H   UNL     1     154.873 158.091 188.237  0.00  0.00    +0.126 HD
BRANCH 113 117
ATOM    117  C   UNL     1     153.350 155.062 188.568  0.00  0.00    +0.007 C 
ATOM    118  H   UNL     1     152.282 154.891 188.381  0.00  0.00    +0.043 HD
ATOM    119  H   UNL     1     153.633 154.539 189.485  0.00  0.00    +0.043 HD
ATOM    120  H   UNL     1     153.938 154.656 187.737  0.00  0.00    +0.043 HD
ENDBRANCH 113 117
ENDBRANCH 110 113
ENDBRANCH 106 109
ENDBRANCH 104 106
BRANCH 104 121
ATOM    121  O   UNL     1     152.844 160.571 190.108  0.00  0.00    -0.379 OA
BRANCH 121 122
ATOM    122  C   UNL     1     153.294 161.908 190.314  0.00  0.00    +0.037 C 
ATOM    123  H   UNL     1     153.373 162.400 189.339  0.00  0.00    +0.052 HD
ATOM    124  H   UNL     1     152.586 162.468 190.927  0.00  0.00    +0.052 HD
ATOM    125  H   UNL     1     154.280 161.910 190.788  0.00  0.00    +0.052 HD
ENDBRANCH 121 122
ENDBRANCH 104 121
ENDBRANCH  98 104
ENDBRANCH  96  98
ENDBRANCH  93  96
ENDBRANCH  90  93
ENDBRANCH  84  90
ENDBRANCH  82  84
BRANCH  82 126
ATOM    126  O   UNL     1     147.911 165.691 193.465  0.00  0.00    -0.379 OA
BRANCH 126 127
ATOM    127  C   UNL     1     147.241 166.568 194.366  0.00  0.00    +0.037 C 
ATOM    128  H   UNL     1     146.302 166.920 193.926  0.00  0.00    +0.052 HD
ATOM    129  H   UNL     1     147.049 166.069 195.322  0.00  0.00    +0.052 HD
ATOM    130  H   UNL     1     147.885 167.435 194.548  0.00  0.00    +0.052 HD
ENDBRANCH 126 127
ENDBRANCH  82 126
ENDBRANCH  76  82
ENDBRANCH  25  76
BRANCH  31 131
ATOM    131  O   UNL     1     145.623 168.349 191.115  0.00  0.00    -0.379 OA
BRANCH 131 132
ATOM    132  C   UNL     1     144.814 167.267 191.570  0.00  0.00    +0.037 C 
ATOM    133  H   UNL     1     144.731 166.500 190.793  0.00  0.00    +0.052 HD
ATOM    134  H   UNL     1     145.287 166.827 192.453  0.00  0.00    +0.052 HD
ATOM    135  H   UNL     1     143.818 167.629 191.851  0.00  0.00    +0.052 HD
ENDBRANCH 131 132
ENDBRANCH  31 131
BRANCH  29 136
ATOM    136  O   UNL     1     145.462 171.895 191.568  0.00  0.00    -0.376 OA
BRANCH 136 137
ATOM    137  C   UNL     1     145.708 173.248 191.929  0.00  0.00    +0.037 C 
ATOM    138  H   UNL     1     145.553 173.392 193.004  0.00  0.00    +0.052 HD
ATOM    139  H   UNL     1     146.754 173.477 191.694  0.00  0.00    +0.052 HD
ATOM    140  H   UNL     1     145.067 173.922 191.356  0.00  0.00    +0.052 HD
ENDBRANCH 136 137
ENDBRANCH  29 136
BRANCH  16 141
ATOM    141  O   UNL     1     152.136 161.576 186.967  0.00  0.00    -0.379 OA
BRANCH 141 142
ATOM    142  C   UNL     1     152.563 160.234 186.787  0.00  0.00    +0.037 C 
ATOM    143  H   UNL     1     151.716 159.657 186.401  0.00  0.00    +0.052 HD
ATOM    144  H   UNL     1     152.888 159.783 187.731  0.00  0.00    +0.052 HD
ATOM    145  H   UNL     1     153.375 160.193 186.049  0.00  0.00    +0.052 HD
ENDBRANCH 141 142
ENDBRANCH  16 141
BRANCH   6 146
ATOM    146  O   UNL     1     148.402 166.825 185.652  0.00  0.00    -0.379 OA
BRANCH 146 147
ATOM    147  C   UNL     1     149.370 167.544 186.412  0.00  0.00    +0.037 C 
ATOM    148  H   UNL     1     150.355 167.082 186.298  0.00  0.00    +0.052 HD
ATOM    149  H   UNL     1     149.098 167.570 187.474  0.00  0.00    +0.052 HD
ATOM    150  H   UNL     1     149.415 168.571 186.038  0.00  0.00    +0.052 HD
ENDBRANCH 146 147
ENDBRANCH   6 146
BRANCH   4 151
ATOM    151  O   UNL     1     146.402 169.032 185.334  0.00  0.00    -0.376 OA
BRANCH 151 152
ATOM    152  C   UNL     1     146.031 170.357 185.702  0.00  0.00    +0.037 C 
ATOM    153  H   UNL     1     145.235 170.339 186.453  0.00  0.00    +0.052 HD
ATOM    154  H   UNL     1     146.904 170.840 186.141  0.00  0.00    +0.052 HD
ATOM    155  H   UNL     1     145.711 170.931 184.830  0.00  0.00    +0.052 HD
ENDBRANCH 151 152
ENDBRANCH   4 151
TORSDOF 33
ENDMDL
MODEL 5
REMARK VINA RESULT:      -4.4      3.330      5.429
REMARK  Name = Reidispongiolide A_conf3
REMARK  33 active torsions:
REMARK  status: ('A' for Active; 'I' for Inactive)
REMARK    1  A    between atoms: C_1  and  C_2
REMARK    2  A    between atoms: C_5  and  O_67
REMARK    3  A    between atoms: C_7  and  O_65
REMARK    4  A    between atoms: C_8  and  C_64
REMARK    5  A    between atoms: C_17  and  O_62
REMARK    6  A    between atoms: C_19  and  C_61
REMARK    7  A    between atoms: C_26  and  C_38
REMARK    8  A    between atoms: C_27  and  C_37
REMARK    9  A    between atoms: C_30  and  O_35
REMARK   10  A    between atoms: C_32  and  O_33
REMARK   11  A    between atoms: O_33  and  C_34
REMARK   12  A    between atoms: O_35  and  C_36
REMARK   13  A    between atoms: C_38  and  C_39
REMARK   14  A    between atoms: C_38  and  C_40
REMARK   15  A    between atoms: C_40  and  C_41
REMARK   16  A    between atoms: C_40  and  O_59
REMARK   17  A    between atoms: C_41  and  C_42
REMARK   18  A    between atoms: C_41  and  C_43
REMARK   19  A    between atoms: C_43  and  C_44
REMARK   20  A    between atoms: C_44  and  C_45
REMARK   21  A    between atoms: C_45  and  C_47
REMARK   22  A    between atoms: C_47  and  C_48
REMARK   23  A    between atoms: C_47  and  C_49
REMARK   24  A    between atoms: C_49  and  C_50
REMARK   25  A    between atoms: C_49  and  O_57
REMARK   26  A    between atoms: C_50  and  C_51
REMARK   27  A    between atoms: C_52  and  N_53
REMARK   28  A    between atoms: N_53  and  C_54
REMARK   29  A    between atoms: O_57  and  C_58
REMARK   30  A    between atoms: O_59  and  C_60
REMARK   31  A    between atoms: O_62  and  C_63
REMARK   32  A    between atoms: O_65  and  C_66
REMARK   33  A    between atoms: O_67  and  C_68
REMARK                            x       y       z     vdW  Elec       q    Type
REMARK                         _______ _______ _______ _____ _____    ______ ____
ROOT
ATOM      1  C   UNL     1     143.747 171.753 189.807  0.00  0.00    +0.001 C 
ATOM      2  C   UNL     1     144.180 171.377 188.395  0.00  0.00    -0.080 C 
ATOM      3  C   UNL     1     144.488 172.238 187.408  0.00  0.00    -0.059 C 
ATOM      4  C   UNL     1     144.862 171.983 185.970  0.00  0.00    +0.079 C 
ATOM      5  C   UNL     1     144.793 170.542 185.428  0.00  0.00    +0.004 C 
ATOM      6  C   UNL     1     145.905 169.569 185.882  0.00  0.00    +0.067 C 
ATOM      7  C   UNL     1     145.520 168.070 185.690  0.00  0.00    +0.020 C 
ATOM      8  C   UNL     1     145.169 167.688 184.215  0.00  0.00    +0.112 C 
ATOM      9  C   UNL     1     146.365 167.292 183.321  0.00  0.00    +0.006 C 
ATOM     10  C   UNL     1     146.686 165.822 183.367  0.00  0.00    -0.057 C 
ATOM     11  C   UNL     1     145.783 164.957 183.858  0.00  0.00    +0.022 C 
ATOM     12  C   UNL     1     144.438 165.365 184.300  0.00  0.00    +0.332 C 
ATOM     13  O   UNL     1     143.623 164.537 184.687  0.00  0.00    -0.246 OA
ATOM     14  O   UNL     1     144.129 166.676 184.175  0.00  0.00    -0.458 OA
ATOM     15  C   UNL     1     147.940 165.337 182.651  0.00  0.00    -0.004 C 
ATOM     16  C   UNL     1     149.012 164.453 183.357  0.00  0.00    +0.066 C 
ATOM     17  C   UNL     1     150.135 165.246 184.077  0.00  0.00    -0.005 C 
ATOM     18  C   UNL     1     150.001 165.558 185.557  0.00  0.00    -0.070 C 
ATOM     19  C   UNL     1     151.020 165.296 186.406  0.00  0.00    -0.062 C 
ATOM     20  C   UNL     1     151.025 165.580 187.826  0.00  0.00    -0.055 C 
ATOM     21  C   UNL     1     150.903 166.816 188.332  0.00  0.00    +0.023 C 
ATOM     22  C   UNL     1     150.755 166.989 189.785  0.00  0.00    +0.332 C 
ATOM     23  O   UNL     1     151.139 166.195 190.632  0.00  0.00    -0.246 OA
ATOM     24  O   UNL     1     150.045 168.121 190.000  0.00  0.00    -0.457 OA
ATOM     25  C   UNL     1     149.369 168.218 191.274  0.00  0.00    +0.114 C 
ATOM     26  C   UNL     1     149.608 169.615 191.929  0.00  0.00    +0.012 C 
ATOM     27  C   UNL     1     148.826 170.771 191.349  0.00  0.00    -0.079 C 
ATOM     28  C   UNL     1     147.948 171.500 192.069  0.00  0.00    -0.059 C 
ATOM     29  C   UNL     1     147.191 172.692 191.556  0.00  0.00    +0.079 C 
ATOM     30  C   UNL     1     146.176 172.413 190.429  0.00  0.00    +0.004 C 
ATOM     31  C   UNL     1     144.892 171.684 190.867  0.00  0.00    +0.067 C 
ATOM     32  H   UNL     1     142.998 170.995 190.086  0.00  0.00    +0.037 HD
ATOM     33  H   UNL     1     144.216 170.307 188.215  0.00  0.00    +0.057 HD
ATOM     34  H   UNL     1     144.466 173.302 187.634  0.00  0.00    +0.059 HD
ATOM     35  H   UNL     1     144.122 172.562 185.394  0.00  0.00    +0.064 HD
ATOM     36  H   UNL     1     144.842 170.618 184.337  0.00  0.00    +0.032 HD
ATOM     37  H   UNL     1     143.804 170.143 185.671  0.00  0.00    +0.032 HD
ATOM     38  H   UNL     1     146.113 169.732 186.946  0.00  0.00    +0.060 HD
ATOM     39  H   UNL     1     146.392 167.478 185.975  0.00  0.00    +0.036 HD
ATOM     40  H   UNL     1     144.705 168.556 183.735  0.00  0.00    +0.074 HD
ATOM     41  H   UNL     1     147.249 167.884 183.571  0.00  0.00    +0.035 HD
ATOM     42  H   UNL     1     146.110 167.531 182.279  0.00  0.00    +0.035 HD
ATOM     43  H   UNL     1     145.944 163.883 183.853  0.00  0.00    +0.069 HD
ATOM     44  H   UNL     1     148.443 166.191 182.172  0.00  0.00    +0.034 HD
ATOM     45  H   UNL     1     147.565 164.737 181.803  0.00  0.00    +0.034 HD
ATOM     46  H   UNL     1     149.509 163.936 182.522  0.00  0.00    +0.060 HD
ATOM     47  H   UNL     1     150.315 166.190 183.541  0.00  0.00    +0.034 HD
ATOM     48  H   UNL     1     151.056 164.663 183.940  0.00  0.00    +0.034 HD
ATOM     49  H   UNL     1     151.922 164.802 186.042  0.00  0.00    +0.062 HD
ATOM     50  H   UNL     1     151.122 164.717 188.485  0.00  0.00    +0.062 HD
ATOM     51  H   UNL     1     150.804 167.698 187.714  0.00  0.00    +0.069 HD
ATOM     52  H   UNL     1     149.837 167.520 191.979  0.00  0.00    +0.074 HD
ATOM     53  H   UNL     1     149.306 169.497 192.980  0.00  0.00    +0.038 HD
ATOM     54  H   UNL     1     149.015 171.027 190.306  0.00  0.00    +0.057 HD
ATOM     55  H   UNL     1     147.790 171.245 193.119  0.00  0.00    +0.059 HD
ATOM     56  H   UNL     1     147.927 173.415 191.175  0.00  0.00    +0.064 HD
ATOM     57  H   UNL     1     146.680 171.860 189.627  0.00  0.00    +0.032 HD
ATOM     58  H   UNL     1     145.890 173.393 190.025  0.00  0.00    +0.032 HD
ATOM     59  H   UNL     1     144.513 172.150 191.787  0.00  0.00    +0.060 HD
ENDROOT
BRANCH   1  60
ATOM     60  C   UNL     1     143.018 173.103 189.889  0.00  0.00    -0.057 C 
ATOM     61  H   UNL     1     142.038 172.981 190.359  0.00  0.00    +0.024 HD
ATOM     62  H   UNL     1     142.851 173.518 188.890  0.00  0.00    +0.024 HD
ATOM     63  H   UNL     1     143.572 173.843 190.473  0.00  0.00    +0.024 HD
ENDBRANCH   1  60
BRANCH  26  64
ATOM     64  C   UNL     1     151.103 169.962 191.920  0.00  0.00    -0.056 C 
ATOM     65  H   UNL     1     151.278 170.958 191.495  0.00  0.00    +0.024 HD
ATOM     66  H   UNL     1     151.671 169.238 191.330  0.00  0.00    +0.024 HD
ATOM     67  H   UNL     1     151.509 169.943 192.935  0.00  0.00    +0.024 HD
ENDBRANCH  26  64
BRANCH  18  68
ATOM     68  C   UNL     1     148.702 166.178 185.976  0.00  0.00    -0.043 C 
ATOM     69  H   UNL     1     148.379 166.921 185.244  0.00  0.00    +0.027 HD
ATOM     70  H   UNL     1     147.875 165.472 186.067  0.00  0.00    +0.027 HD
ATOM     71  H   UNL     1     148.839 166.648 186.951  0.00  0.00    +0.027 HD
ENDBRANCH  18  68
BRANCH   7  72
ATOM     72  C   UNL     1     144.418 167.686 186.688  0.00  0.00    -0.057 C 
ATOM     73  H   UNL     1     143.548 167.282 186.168  0.00  0.00    +0.023 HD
ATOM     74  H   UNL     1     144.758 166.942 187.413  0.00  0.00    +0.023 HD
ATOM     75  H   UNL     1     144.072 168.565 187.238  0.00  0.00    +0.023 HD
ENDBRANCH   7  72
BRANCH  25  76
ATOM     76  C   UNL     1     147.866 167.806 191.090  0.00  0.00    +0.020 C 
ATOM     77  H   UNL     1     147.274 168.508 191.688  0.00  0.00    +0.036 HD
BRANCH  76  78
ATOM     78  C   UNL     1     147.418 167.954 189.631  0.00  0.00    -0.057 C 
ATOM     79  H   UNL     1     146.374 167.670 189.480  0.00  0.00    +0.023 HD
ATOM     80  H   UNL     1     147.563 168.980 189.287  0.00  0.00    +0.023 HD
ATOM     81  H   UNL     1     148.011 167.336 188.955  0.00  0.00    +0.023 HD
ENDBRANCH  76  78
BRANCH  76  82
ATOM     82  C   UNL     1     147.627 166.378 191.700  0.00  0.00    +0.067 C 
ATOM     83  H   UNL     1     148.145 166.325 192.664  0.00  0.00    +0.060 HD
BRANCH  82  84
ATOM     84  C   UNL     1     148.108 165.108 190.935  0.00  0.00    -0.017 C 
ATOM     85  H   UNL     1     148.941 165.407 190.288  0.00  0.00    +0.032 HD
BRANCH  84  86
ATOM     86  C   UNL     1     148.712 164.112 191.943  0.00  0.00    -0.060 C 
ATOM     87  H   UNL     1     148.255 164.246 192.928  0.00  0.00    +0.023 HD
ATOM     88  H   UNL     1     149.791 164.273 192.062  0.00  0.00    +0.023 HD
ATOM     89  H   UNL     1     148.559 163.070 191.635  0.00  0.00    +0.023 HD
ENDBRANCH  84  86
BRANCH  84  90
ATOM     90  C   UNL     1     147.099 164.353 190.037  0.00  0.00    -0.041 C 
ATOM     91  H   UNL     1     146.229 165.005 189.879  0.00  0.00    +0.027 HD
ATOM     92  H   UNL     1     146.690 163.501 190.586  0.00  0.00    +0.027 HD
BRANCH  90  93
ATOM     93  C   UNL     1     147.598 163.864 188.679  0.00  0.00    +0.007 C 
ATOM     94  H   UNL     1     148.687 163.781 188.652  0.00  0.00    +0.034 HD
ATOM     95  H   UNL     1     147.299 164.564 187.890  0.00  0.00    +0.034 HD
BRANCH  93  96
ATOM     96  C   UNL     1     147.012 162.506 188.310  0.00  0.00    +0.139 C 
ATOM     97  O   UNL     1     147.310 161.986 187.229  0.00  0.00    -0.297 OA
BRANCH  96  98
ATOM     98  C   UNL     1     146.038 161.840 189.290  0.00  0.00    +0.041 C 
ATOM     99  H   UNL     1     146.066 162.461 190.188  0.00  0.00    +0.040 HD
BRANCH  98 100
ATOM    100  C   UNL     1     146.507 160.445 189.711  0.00  0.00    -0.053 C 
ATOM    101  H   UNL     1     146.733 159.807 188.851  0.00  0.00    +0.024 HD
ATOM    102  H   UNL     1     147.424 160.513 190.308  0.00  0.00    +0.024 HD
ATOM    103  H   UNL     1     145.755 159.948 190.336  0.00  0.00    +0.024 HD
ENDBRANCH  98 100
BRANCH  98 104
ATOM    104  C   UNL     1     144.577 161.865 188.776  0.00  0.00    +0.071 C 
ATOM    105  H   UNL     1     143.873 161.783 189.614  0.00  0.00    +0.061 HD
BRANCH 104 106
ATOM    106  C   UNL     1     144.172 163.099 187.932  0.00  0.00    -0.006 C 
ATOM    107  H   UNL     1     145.073 163.639 187.613  0.00  0.00    +0.033 HD
ATOM    108  H   UNL     1     143.727 162.734 186.997  0.00  0.00    +0.033 HD
BRANCH 106 109
ATOM    109  C   UNL     1     143.175 164.024 188.577  0.00  0.00    -0.067 C 
ATOM    110  C   UNL     1     143.535 165.064 189.342  0.00  0.00    -0.005 C 
ATOM    111  H   UNL     1     142.135 163.793 188.363  0.00  0.00    +0.059 HD
ATOM    112  H   UNL     1     144.596 165.270 189.479  0.00  0.00    +0.078 HD
BRANCH 110 113
ATOM    113  N   UNL     1     142.696 165.944 190.005  0.00  0.00    -0.284 N 
ATOM    114  C   UNL     1     142.503 165.988 191.385  0.00  0.00    +0.206 C 
ATOM    115  O   UNL     1     141.759 166.765 191.978  0.00  0.00    -0.279 OA
ATOM    116  H   UNL     1     143.097 165.256 191.945  0.00  0.00    +0.126 HD
BRANCH 113 117
ATOM    117  C   UNL     1     141.987 166.931 189.194  0.00  0.00    +0.007 C 
ATOM    118  H   UNL     1     141.615 167.718 189.861  0.00  0.00    +0.043 HD
ATOM    119  H   UNL     1     141.140 166.496 188.658  0.00  0.00    +0.043 HD
ATOM    120  H   UNL     1     142.678 167.366 188.462  0.00  0.00    +0.043 HD
ENDBRANCH 113 117
ENDBRANCH 110 113
ENDBRANCH 106 109
ENDBRANCH 104 106
BRANCH 104 121
ATOM    121  O   UNL     1     144.379 160.730 187.901  0.00  0.00    -0.379 OA
BRANCH 121 122
ATOM    122  C   UNL     1     143.941 161.094 186.594  0.00  0.00    +0.037 C 
ATOM    123  H   UNL     1     144.177 162.150 186.431  0.00  0.00    +0.052 HD
ATOM    124  H   UNL     1     144.454 160.504 185.833  0.00  0.00    +0.052 HD
ATOM    125  H   UNL     1     142.859 160.958 186.503  0.00  0.00    +0.052 HD
ENDBRANCH 121 122
ENDBRANCH 104 121
ENDBRANCH  98 104
ENDBRANCH  96  98
ENDBRANCH  93  96
ENDBRANCH  90  93
ENDBRANCH  84  90
ENDBRANCH  82  84
BRANCH  82 126
ATOM    126  O   UNL     1     146.218 166.236 191.968  0.00  0.00    -0.379 OA
BRANCH 126 127
ATOM    127  C   UNL     1     145.909 166.199 193.359  0.00  0.00    +0.037 C 
ATOM    128  H   UNL     1     145.559 167.180 193.697  0.00  0.00    +0.052 HD
ATOM    129  H   UNL     1     145.155 165.433 193.569  0.00  0.00    +0.052 HD
ATOM    130  H   UNL     1     146.822 165.949 193.910  0.00  0.00    +0.052 HD
ENDBRANCH 126 127
ENDBRANCH  82 126
ENDBRANCH  76  82
ENDBRANCH  25  76
BRANCH  31 131
ATOM    131  O   UNL     1     145.199 170.302 191.121  0.00  0.00    -0.379 OA
BRANCH 131 132
ATOM    132  C   UNL     1     144.037 169.477 191.085  0.00  0.00    +0.037 C 
ATOM    133  H   UNL     1     144.312 168.438 190.884  0.00  0.00    +0.052 HD
ATOM    134  H   UNL     1     143.543 169.532 192.059  0.00  0.00    +0.052 HD
ATOM    135  H   UNL     1     143.340 169.838 190.318  0.00  0.00    +0.052 HD
ENDBRANCH 131 132
ENDBRANCH  31 131
BRANCH  29 136
ATOM    136  O   UNL     1     146.488 173.256 192.677  0.00  0.00    -0.376 OA
BRANCH 136 137
ATOM    137  C   UNL     1     147.349 173.635 193.742  0.00  0.00    +0.037 C 
ATOM    138  H   UNL     1     148.110 172.866 193.914  0.00  0.00    +0.052 HD
ATOM    139  H   UNL     1     147.853 174.566 193.457  0.00  0.00    +0.052 HD
ATOM    140  H   UNL     1     146.776 173.816 194.655  0.00  0.00    +0.052 HD
ENDBRANCH 136 137
ENDBRANCH  29 136
BRANCH  16 141
ATOM    141  O   UNL     1     148.392 163.451 184.167  0.00  0.00    -0.379 OA
BRANCH 141 142
ATOM    142  C   UNL     1     148.540 162.131 183.664  0.00  0.00    +0.037 C 
ATOM    143  H   UNL     1     148.771 161.471 184.507  0.00  0.00    +0.052 HD
ATOM    144  H   UNL     1     149.356 162.065 182.937  0.00  0.00    +0.052 HD
ATOM    145  H   UNL     1     147.600 161.794 183.208  0.00  0.00    +0.052 HD
ENDBRANCH 141 142
ENDBRANCH  16 141
BRANCH   6 146
ATOM    146  O   UNL     1     147.088 169.824 185.113  0.00  0.00    -0.379 OA
BRANCH 146 147
ATOM    147  C   UNL     1     148.280 169.511 185.827  0.00  0.00    +0.037 C 
ATOM    148  H   UNL     1     148.102 169.582 186.905  0.00  0.00    +0.052 HD
ATOM    149  H   UNL     1     149.098 170.184 185.545  0.00  0.00    +0.052 HD
ATOM    150  H   UNL     1     148.573 168.485 185.584  0.00  0.00    +0.052 HD
ENDBRANCH 146 147
ENDBRANCH   6 146
BRANCH   4 151
ATOM    151  O   UNL     1     146.147 172.586 185.793  0.00  0.00    -0.376 OA
BRANCH 151 152
ATOM    152  C   UNL     1     146.127 174.004 185.920  0.00  0.00    +0.037 C 
ATOM    153  H   UNL     1     145.932 174.475 184.952  0.00  0.00    +0.052 HD
ATOM    154  H   UNL     1     145.316 174.270 186.598  0.00  0.00    +0.052 HD
ATOM    155  H   UNL     1     147.068 174.374 186.334  0.00  0.00    +0.052 HD
ENDBRANCH 151 152
ENDBRANCH   4 151
TORSDOF 33
ENDMDL
MODEL 6
REMARK VINA RESULT:      -4.3      3.540      6.076
REMARK  Name = Reidispongiolide A_conf3
REMARK  33 active torsions:
REMARK  status: ('A' for Active; 'I' for Inactive)
REMARK    1  A    between atoms: C_1  and  C_2
REMARK    2  A    between atoms: C_5  and  O_67
REMARK    3  A    between atoms: C_7  and  O_65
REMARK    4  A    between atoms: C_8  and  C_64
REMARK    5  A    between atoms: C_17  and  O_62
REMARK    6  A    between atoms: C_19  and  C_61
REMARK    7  A    between atoms: C_26  and  C_38
REMARK    8  A    between atoms: C_27  and  C_37
REMARK    9  A    between atoms: C_30  and  O_35
REMARK   10  A    between atoms: C_32  and  O_33
REMARK   11  A    between atoms: O_33  and  C_34
REMARK   12  A    between atoms: O_35  and  C_36
REMARK   13  A    between atoms: C_38  and  C_39
REMARK   14  A    between atoms: C_38  and  C_40
REMARK   15  A    between atoms: C_40  and  C_41
REMARK   16  A    between atoms: C_40  and  O_59
REMARK   17  A    between atoms: C_41  and  C_42
REMARK   18  A    between atoms: C_41  and  C_43
REMARK   19  A    between atoms: C_43  and  C_44
REMARK   20  A    between atoms: C_44  and  C_45
REMARK   21  A    between atoms: C_45  and  C_47
REMARK   22  A    between atoms: C_47  and  C_48
REMARK   23  A    between atoms: C_47  and  C_49
REMARK   24  A    between atoms: C_49  and  C_50
REMARK   25  A    between atoms: C_49  and  O_57
REMARK   26  A    between atoms: C_50  and  C_51
REMARK   27  A    between atoms: C_52  and  N_53
REMARK   28  A    between atoms: N_53  and  C_54
REMARK   29  A    between atoms: O_57  and  C_58
REMARK   30  A    between atoms: O_59  and  C_60
REMARK   31  A    between atoms: O_62  and  C_63
REMARK   32  A    between atoms: O_65  and  C_66
REMARK   33  A    between atoms: O_67  and  C_68
REMARK                            x       y       z     vdW  Elec       q    Type
REMARK                         _______ _______ _______ _____ _____    ______ ____
ROOT
ATOM      1  C   UNL     1     143.554 172.918 190.018  0.00  0.00    +0.001 C 
ATOM      2  C   UNL     1     143.909 172.652 188.559  0.00  0.00    -0.080 C 
ATOM      3  C   UNL     1     144.394 173.555 187.687  0.00  0.00    -0.059 C 
ATOM      4  C   UNL     1     144.715 173.421 186.221  0.00  0.00    +0.079 C 
ATOM      5  C   UNL     1     144.355 172.109 185.497  0.00  0.00    +0.004 C 
ATOM      6  C   UNL     1     145.241 170.878 185.796  0.00  0.00    +0.067 C 
ATOM      7  C   UNL     1     144.557 169.528 185.418  0.00  0.00    +0.020 C 
ATOM      8  C   UNL     1     144.145 169.424 183.913  0.00  0.00    +0.112 C 
ATOM      9  C   UNL     1     145.239 168.914 182.950  0.00  0.00    +0.006 C 
ATOM     10  C   UNL     1     145.251 167.417 182.796  0.00  0.00    -0.057 C 
ATOM     11  C   UNL     1     144.186 166.697 183.189  0.00  0.00    +0.022 C 
ATOM     12  C   UNL     1     142.951 167.310 183.709  0.00  0.00    +0.332 C 
ATOM     13  O   UNL     1     141.980 166.623 184.002  0.00  0.00    -0.246 OA
ATOM     14  O   UNL     1     142.919 168.661 183.764  0.00  0.00    -0.458 OA
ATOM     15  C   UNL     1     146.383 166.784 181.997  0.00  0.00    -0.004 C 
ATOM     16  C   UNL     1     147.246 165.614 182.559  0.00  0.00    +0.066 C 
ATOM     17  C   UNL     1     148.504 166.058 183.353  0.00  0.00    -0.005 C 
ATOM     18  C   UNL     1     148.426 166.193 184.864  0.00  0.00    -0.070 C 
ATOM     19  C   UNL     1     149.365 165.618 185.649  0.00  0.00    -0.062 C 
ATOM     20  C   UNL     1     149.419 165.704 187.093  0.00  0.00    -0.055 C 
ATOM     21  C   UNL     1     149.550 166.862 187.759  0.00  0.00    +0.023 C 
ATOM     22  C   UNL     1     149.432 166.867 189.225  0.00  0.00    +0.332 C 
ATOM     23  O   UNL     1     149.640 165.907 189.953  0.00  0.00    -0.246 OA
ATOM     24  O   UNL     1     148.969 168.082 189.601  0.00  0.00    -0.457 OA
ATOM     25  C   UNL     1     148.319 168.146 190.890  0.00  0.00    +0.114 C 
ATOM     26  C   UNL     1     148.836 169.366 191.718  0.00  0.00    +0.012 C 
ATOM     27  C   UNL     1     148.312 170.723 191.310  0.00  0.00    -0.079 C 
ATOM     28  C   UNL     1     147.598 171.514 192.138  0.00  0.00    -0.059 C 
ATOM     29  C   UNL     1     147.105 172.893 191.801  0.00  0.00    +0.079 C 
ATOM     30  C   UNL     1     146.063 172.980 190.669  0.00  0.00    +0.004 C 
ATOM     31  C   UNL     1     144.652 172.477 191.035  0.00  0.00    +0.067 C 
ATOM     32  H   UNL     1     142.663 172.300 190.210  0.00  0.00    +0.037 HD
ATOM     33  H   UNL     1     143.724 171.630 188.241  0.00  0.00    +0.057 HD
ATOM     34  H   UNL     1     144.589 174.562 188.051  0.00  0.00    +0.059 HD
ATOM     35  H   UNL     1     144.114 174.209 185.742  0.00  0.00    +0.064 HD
ATOM     36  H   UNL     1     144.426 172.317 184.424  0.00  0.00    +0.032 HD
ATOM     37  H   UNL     1     143.304 171.892 185.706  0.00  0.00    +0.032 HD
ATOM     38  H   UNL     1     145.471 170.853 186.867  0.00  0.00    +0.060 HD
ATOM     39  H   UNL     1     145.287 168.738 185.605  0.00  0.00    +0.036 HD
ATOM     40  H   UNL     1     143.872 170.425 183.561  0.00  0.00    +0.074 HD
ATOM     41  H   UNL     1     146.225 169.275 183.257  0.00  0.00    +0.035 HD
ATOM     42  H   UNL     1     145.046 169.336 181.954  0.00  0.00    +0.035 HD
ATOM     43  H   UNL     1     144.123 165.623 183.041  0.00  0.00    +0.069 HD
ATOM     44  H   UNL     1     147.054 167.573 181.624  0.00  0.00    +0.034 HD
ATOM     45  H   UNL     1     145.898 166.391 181.087  0.00  0.00    +0.034 HD
ATOM     46  H   UNL     1     147.631 165.122 181.653  0.00  0.00    +0.060 HD
ATOM     47  H   UNL     1     148.876 167.008 182.941  0.00  0.00    +0.034 HD
ATOM     48  H   UNL     1     149.285 165.323 183.121  0.00  0.00    +0.034 HD
ATOM     49  H   UNL     1     150.148 165.003 185.204  0.00  0.00    +0.062 HD
ATOM     50  H   UNL     1     149.333 164.761 187.632  0.00  0.00    +0.062 HD
ATOM     51  H   UNL     1     149.639 167.819 187.264  0.00  0.00    +0.069 HD
ATOM     52  H   UNL     1     148.629 167.280 191.488  0.00  0.00    +0.074 HD
ATOM     53  H   UNL     1     148.510 169.174 192.750  0.00  0.00    +0.038 HD
ATOM     54  H   UNL     1     148.556 171.071 190.306  0.00  0.00    +0.057 HD
ATOM     55  H   UNL     1     147.385 171.161 193.148  0.00  0.00    +0.059 HD
ATOM     56  H   UNL     1     147.977 173.495 191.502  0.00  0.00    +0.064 HD
ATOM     57  H   UNL     1     146.447 172.446 189.791  0.00  0.00    +0.032 HD
ATOM     58  H   UNL     1     145.986 174.042 190.402  0.00  0.00    +0.032 HD
ATOM     59  H   UNL     1     144.372 172.885 192.016  0.00  0.00    +0.060 HD
ENDROOT
BRANCH   1  60
ATOM     60  C   UNL     1     143.117 174.366 190.290  0.00  0.00    -0.057 C 
ATOM     61  H   UNL     1     142.745 174.832 189.372  0.00  0.00    +0.024 HD
ATOM     62  H   UNL     1     143.959 174.969 190.644  0.00  0.00    +0.024 HD
ATOM     63  H   UNL     1     142.321 174.430 191.036  0.00  0.00    +0.024 HD
ENDBRANCH   1  60
BRANCH  26  64
ATOM     64  C   UNL     1     150.371 169.397 191.723  0.00  0.00    -0.056 C 
ATOM     65  H   UNL     1     150.755 170.169 191.044  0.00  0.00    +0.024 HD
ATOM     66  H   UNL     1     150.785 168.435 191.410  0.00  0.00    +0.024 HD
ATOM     67  H   UNL     1     150.748 169.602 192.728  0.00  0.00    +0.024 HD
ENDBRANCH  26  64
BRANCH  18  68
ATOM     68  C   UNL     1     147.280 167.005 185.387  0.00  0.00    -0.043 C 
ATOM     69  H   UNL     1     147.561 168.057 185.463  0.00  0.00    +0.027 HD
ATOM     70  H   UNL     1     146.388 166.979 184.760  0.00  0.00    +0.027 HD
ATOM     71  H   UNL     1     147.001 166.619 186.369  0.00  0.00    +0.027 HD
ENDBRANCH  18  68
BRANCH   7  72
ATOM     72  C   UNL     1     143.394 169.249 186.380  0.00  0.00    -0.057 C 
ATOM     73  H   UNL     1     143.127 168.191 186.368  0.00  0.00    +0.023 HD
ATOM     74  H   UNL     1     143.633 169.528 187.410  0.00  0.00    +0.023 HD
ATOM     75  H   UNL     1     142.500 169.801 186.076  0.00  0.00    +0.023 HD
ENDBRANCH   7  72
BRANCH  25  76
ATOM     76  C   UNL     1     146.765 168.078 190.686  0.00  0.00    +0.020 C 
ATOM     77  H   UNL     1     146.324 168.771 191.412  0.00  0.00    +0.036 HD
BRANCH  76  78
ATOM     78  C   UNL     1     146.362 168.560 189.288  0.00  0.00    -0.057 C 
ATOM     79  H   UNL     1     146.924 168.065 188.493  0.00  0.00    +0.023 HD
ATOM     80  H   UNL     1     145.295 168.405 189.121  0.00  0.00    +0.023 HD
ATOM     81  H   UNL     1     146.522 169.632 189.161  0.00  0.00    +0.023 HD
ENDBRANCH  76  78
BRANCH  76  82
ATOM     82  C   UNL     1     146.242 166.643 191.054  0.00  0.00    +0.067 C 
ATOM     83  H   UNL     1     147.084 166.057 191.436  0.00  0.00    +0.060 HD
BRANCH  82  84
ATOM     84  C   UNL     1     145.609 165.735 189.957  0.00  0.00    -0.017 C 
ATOM     85  H   UNL     1     145.782 166.216 188.987  0.00  0.00    +0.032 HD
BRANCH  84  86
ATOM     86  C   UNL     1     146.384 164.405 189.895  0.00  0.00    -0.060 C 
ATOM     87  H   UNL     1     147.410 164.548 190.248  0.00  0.00    +0.023 HD
ATOM     88  H   UNL     1     146.444 164.028 188.867  0.00  0.00    +0.023 HD
ATOM     89  H   UNL     1     145.917 163.627 190.513  0.00  0.00    +0.023 HD
ENDBRANCH  84  86
BRANCH  84  90
ATOM     90  C   UNL     1     144.095 165.422 190.030  0.00  0.00    -0.041 C 
ATOM     91  H   UNL     1     143.793 165.447 191.086  0.00  0.00    +0.027 HD
ATOM     92  H   UNL     1     143.923 164.385 189.734  0.00  0.00    +0.027 HD
BRANCH  90  93
ATOM     93  C   UNL     1     143.154 166.321 189.231  0.00  0.00    +0.007 C 
ATOM     94  H   UNL     1     143.589 167.307 189.051  0.00  0.00    +0.034 HD
ATOM     95  H   UNL     1     142.214 166.468 189.777  0.00  0.00    +0.034 HD
BRANCH  93  96
ATOM     96  C   UNL     1     142.790 165.711 187.882  0.00  0.00    +0.139 C 
ATOM     97  O   UNL     1     141.833 166.166 187.246  0.00  0.00    -0.297 OA
BRANCH  96  98
ATOM     98  C   UNL     1     143.613 164.522 187.372  0.00  0.00    +0.041 C 
ATOM     99  H   UNL     1     144.256 164.239 188.208  0.00  0.00    +0.040 HD
BRANCH  98 100
ATOM    100  C   UNL     1     144.543 164.915 186.222  0.00  0.00    -0.053 C 
ATOM    101  H   UNL     1     144.500 164.201 185.393  0.00  0.00    +0.024 HD
ATOM    102  H   UNL     1     144.258 165.892 185.816  0.00  0.00    +0.024 HD
ATOM    103  H   UNL     1     145.581 165.000 186.564  0.00  0.00    +0.024 HD
ENDBRANCH  98 100
BRANCH  98 104
ATOM    104  C   UNL     1     142.731 163.290 187.052  0.00  0.00    +0.071 C 
ATOM    105  H   UNL     1     142.176 163.446 186.119  0.00  0.00    +0.061 HD
BRANCH 104 106
ATOM    106  C   UNL     1     143.469 161.932 186.946  0.00  0.00    -0.006 C 
ATOM    107  H   UNL     1     142.735 161.119 186.875  0.00  0.00    +0.033 HD
ATOM    108  H   UNL     1     143.993 161.910 185.982  0.00  0.00    +0.033 HD
BRANCH 106 109
ATOM    109  C   UNL     1     144.487 161.663 188.021  0.00  0.00    -0.067 C 
ATOM    110  C   UNL     1     145.746 161.289 187.755  0.00  0.00    -0.005 C 
ATOM    111  H   UNL     1     144.126 161.808 189.037  0.00  0.00    +0.059 HD
ATOM    112  H   UNL     1     146.058 161.207 186.716  0.00  0.00    +0.078 HD
BRANCH 110 113
ATOM    113  N   UNL     1     146.738 160.984 188.673  0.00  0.00    -0.284 N 
ATOM    114  C   UNL     1     146.522 160.476 189.953  0.00  0.00    +0.206 C 
ATOM    115  O   UNL     1     147.397 160.206 190.771  0.00  0.00    -0.279 OA
ATOM    116  H   UNL     1     145.466 160.312 190.200  0.00  0.00    +0.126 HD
BRANCH 113 117
ATOM    117  C   UNL     1     148.123 161.170 188.247  0.00  0.00    +0.007 C 
ATOM    118  H   UNL     1     148.205 162.156 187.772  0.00  0.00    +0.043 HD
ATOM    119  H   UNL     1     148.442 160.409 187.531  0.00  0.00    +0.043 HD
ATOM    120  H   UNL     1     148.783 161.127 189.121  0.00  0.00    +0.043 HD
ENDBRANCH 113 117
ENDBRANCH 110 113
ENDBRANCH 106 109
ENDBRANCH 104 106
BRANCH 104 121
ATOM    121  O   UNL     1     141.778 163.116 188.127  0.00  0.00    -0.379 OA
BRANCH 121 122
ATOM    122  C   UNL     1     140.444 162.903 187.670  0.00  0.00    +0.037 C 
ATOM    123  H   UNL     1     139.983 163.877 187.483  0.00  0.00    +0.052 HD
ATOM    124  H   UNL     1     140.437 162.332 186.741  0.00  0.00    +0.052 HD
ATOM    125  H   UNL     1     139.860 162.379 188.433  0.00  0.00    +0.052 HD
ENDBRANCH 121 122
ENDBRANCH 104 121
ENDBRANCH  98 104
ENDBRANCH  96  98
ENDBRANCH  93  96
ENDBRANCH  90  93
ENDBRANCH  84  90
ENDBRANCH  82  84
BRANCH  82 126
ATOM    126  O   UNL     1     145.294 166.775 192.132  0.00  0.00    -0.379 OA
BRANCH 126 127
ATOM    127  C   UNL     1     145.749 166.204 193.356  0.00  0.00    +0.037 C 
ATOM    128  H   UNL     1     144.995 166.334 194.140  0.00  0.00    +0.052 HD
ATOM    129  H   UNL     1     145.982 165.142 193.226  0.00  0.00    +0.052 HD
ATOM    130  H   UNL     1     146.661 166.727 193.663  0.00  0.00    +0.052 HD
ENDBRANCH 126 127
ENDBRANCH  82 126
ENDBRANCH  76  82
ENDBRANCH  25  76
BRANCH  31 131
ATOM    131  O   UNL     1     144.668 171.040 191.100  0.00  0.00    -0.379 OA
BRANCH 131 132
ATOM    132  C   UNL     1     143.354 170.492 191.174  0.00  0.00    +0.037 C 
ATOM    133  H   UNL     1     143.399 169.422 191.400  0.00  0.00    +0.052 HD
ATOM    134  H   UNL     1     142.811 171.001 191.976  0.00  0.00    +0.052 HD
ATOM    135  H   UNL     1     142.820 170.656 190.231  0.00  0.00    +0.052 HD
ENDBRANCH 131 132
ENDBRANCH  31 131
BRANCH  29 136
ATOM    136  O   UNL     1     146.526 173.436 193.001  0.00  0.00    -0.376 OA
BRANCH 136 137
ATOM    137  C   UNL     1     147.493 173.749 193.995  0.00  0.00    +0.037 C 
ATOM    138  H   UNL     1     147.625 174.834 194.074  0.00  0.00    +0.052 HD
ATOM    139  H   UNL     1     147.127 173.371 194.956  0.00  0.00    +0.052 HD
ATOM    140  H   UNL     1     148.446 173.263 193.771  0.00  0.00    +0.052 HD
ENDBRANCH 136 137
ENDBRANCH  29 136
BRANCH  16 141
ATOM    141  O   UNL     1     146.428 164.662 183.244  0.00  0.00    -0.379 OA
BRANCH 141 142
ATOM    142  C   UNL     1     146.846 163.316 183.074  0.00  0.00    +0.037 C 
ATOM    143  H   UNL     1     147.272 162.970 184.023  0.00  0.00    +0.052 HD
ATOM    144  H   UNL     1     147.613 163.226 182.297  0.00  0.00    +0.052 HD
ATOM    145  H   UNL     1     145.985 162.682 182.830  0.00  0.00    +0.052 HD
ENDBRANCH 141 142
ENDBRANCH  16 141
BRANCH   6 146
ATOM    146  O   UNL     1     146.456 170.986 185.042  0.00  0.00    -0.379 OA
BRANCH 146 147
ATOM    147  C   UNL     1     147.568 170.402 185.715  0.00  0.00    +0.037 C 
ATOM    148  H   UNL     1     148.503 170.747 185.264  0.00  0.00    +0.052 HD
ATOM    149  H   UNL     1     147.523 169.308 185.677  0.00  0.00    +0.052 HD
ATOM    150  H   UNL     1     147.545 170.716 186.764  0.00  0.00    +0.052 HD
ENDBRANCH 146 147
ENDBRANCH   6 146
BRANCH   4 151
ATOM    151  O   UNL     1     146.098 173.766 186.097  0.00  0.00    -0.376 OA
BRANCH 151 152
ATOM    152  C   UNL     1     146.313 174.999 185.417  0.00  0.00    +0.037 C 
ATOM    153  H   UNL     1     145.386 175.349 184.953  0.00  0.00    +0.052 HD
ATOM    154  H   UNL     1     146.628 175.738 186.152  0.00  0.00    +0.052 HD
ATOM    155  H   UNL     1     147.095 174.897 184.661  0.00  0.00    +0.052 HD
ENDBRANCH 151 152
ENDBRANCH   4 151
TORSDOF 33
ENDMDL
MODEL 7
REMARK VINA RESULT:      -4.2      6.418     12.125
REMARK  Name = Reidispongiolide A_conf3
REMARK  33 active torsions:
REMARK  status: ('A' for Active; 'I' for Inactive)
REMARK    1  A    between atoms: C_1  and  C_2
REMARK    2  A    between atoms: C_5  and  O_67
REMARK    3  A    between atoms: C_7  and  O_65
REMARK    4  A    between atoms: C_8  and  C_64
REMARK    5  A    between atoms: C_17  and  O_62
REMARK    6  A    between atoms: C_19  and  C_61
REMARK    7  A    between atoms: C_26  and  C_38
REMARK    8  A    between atoms: C_27  and  C_37
REMARK    9  A    between atoms: C_30  and  O_35
REMARK   10  A    between atoms: C_32  and  O_33
REMARK   11  A    between atoms: O_33  and  C_34
REMARK   12  A    between atoms: O_35  and  C_36
REMARK   13  A    between atoms: C_38  and  C_39
REMARK   14  A    between atoms: C_38  and  C_40
REMARK   15  A    between atoms: C_40  and  C_41
REMARK   16  A    between atoms: C_40  and  O_59
REMARK   17  A    between atoms: C_41  and  C_42
REMARK   18  A    between atoms: C_41  and  C_43
REMARK   19  A    between atoms: C_43  and  C_44
REMARK   20  A    between atoms: C_44  and  C_45
REMARK   21  A    between atoms: C_45  and  C_47
REMARK   22  A    between atoms: C_47  and  C_48
REMARK   23  A    between atoms: C_47  and  C_49
REMARK   24  A    between atoms: C_49  and  C_50
REMARK   25  A    between atoms: C_49  and  O_57
REMARK   26  A    between atoms: C_50  and  C_51
REMARK   27  A    between atoms: C_52  and  N_53
REMARK   28  A    between atoms: N_53  and  C_54
REMARK   29  A    between atoms: O_57  and  C_58
REMARK   30  A    between atoms: O_59  and  C_60
REMARK   31  A    between atoms: O_62  and  C_63
REMARK   32  A    between atoms: O_65  and  C_66
REMARK   33  A    between atoms: O_67  and  C_68
REMARK                            x       y       z     vdW  Elec       q    Type
REMARK                         _______ _______ _______ _____ _____    ______ ____
ROOT
ATOM      1  C   UNL     1     159.912 166.100 185.865  0.00  0.00    +0.001 C 
ATOM      2  C   UNL     1     159.846 167.298 184.924  0.00  0.00    -0.080 C 
ATOM      3  C   UNL     1     160.773 167.634 184.009  0.00  0.00    -0.059 C 
ATOM      4  C   UNL     1     160.843 168.820 183.080  0.00  0.00    +0.079 C 
ATOM      5  C   UNL     1     159.784 169.932 183.212  0.00  0.00    +0.004 C 
ATOM      6  C   UNL     1     158.365 169.614 182.688  0.00  0.00    +0.067 C 
ATOM      7  C   UNL     1     157.274 170.566 183.267  0.00  0.00    +0.020 C 
ATOM      8  C   UNL     1     157.529 172.080 182.969  0.00  0.00    +0.112 C 
ATOM      9  C   UNL     1     156.989 172.600 181.619  0.00  0.00    +0.006 C 
ATOM     10  C   UNL     1     155.572 173.106 181.696  0.00  0.00    -0.057 C 
ATOM     11  C   UNL     1     155.026 173.382 182.893  0.00  0.00    +0.022 C 
ATOM     12  C   UNL     1     155.774 173.282 184.158  0.00  0.00    +0.332 C 
ATOM     13  O   UNL     1     155.258 173.597 185.223  0.00  0.00    -0.246 OA
ATOM     14  O   UNL     1     157.071 172.907 184.070  0.00  0.00    -0.458 OA
ATOM     15  C   UNL     1     154.877 173.498 180.399  0.00  0.00    -0.004 C 
ATOM     16  C   UNL     1     153.474 172.944 180.006  0.00  0.00    +0.066 C 
ATOM     17  C   UNL     1     153.502 171.619 179.199  0.00  0.00    -0.005 C 
ATOM     18  C   UNL     1     153.375 170.294 179.930  0.00  0.00    -0.070 C 
ATOM     19  C   UNL     1     152.490 169.363 179.508  0.00  0.00    -0.062 C 
ATOM     20  C   UNL     1     152.302 168.054 180.098  0.00  0.00    -0.055 C 
ATOM     21  C   UNL     1     153.269 167.126 180.159  0.00  0.00    +0.023 C 
ATOM     22  C   UNL     1     153.034 165.890 180.920  0.00  0.00    +0.332 C 
ATOM     23  O   UNL     1     151.937 165.408 181.162  0.00  0.00    -0.246 OA
ATOM     24  O   UNL     1     154.230 165.447 181.373  0.00  0.00    -0.457 OA
ATOM     25  C   UNL     1     154.191 164.569 182.521  0.00  0.00    +0.114 C 
ATOM     26  C   UNL     1     155.111 163.325 182.306  0.00  0.00    +0.012 C 
ATOM     27  C   UNL     1     156.598 163.557 182.447  0.00  0.00    -0.079 C 
ATOM     28  C   UNL     1     157.355 162.928 183.369  0.00  0.00    -0.059 C 
ATOM     29  C   UNL     1     158.844 163.080 183.512  0.00  0.00    +0.079 C 
ATOM     30  C   UNL     1     159.343 164.480 183.922  0.00  0.00    +0.004 C 
ATOM     31  C   UNL     1     159.081 164.867 185.391  0.00  0.00    +0.067 C 
ATOM     32  H   UNL     1     159.464 166.454 186.807  0.00  0.00    +0.037 HD
ATOM     33  H   UNL     1     158.958 167.909 185.051  0.00  0.00    +0.057 HD
ATOM     34  H   UNL     1     161.637 166.983 183.893  0.00  0.00    +0.059 HD
ATOM     35  H   UNL     1     161.811 169.289 183.317  0.00  0.00    +0.064 HD
ATOM     36  H   UNL     1     160.163 170.790 182.647  0.00  0.00    +0.032 HD
ATOM     37  H   UNL     1     159.752 170.236 184.262  0.00  0.00    +0.032 HD
ATOM     38  H   UNL     1     158.102 168.587 182.966  0.00  0.00    +0.060 HD
ATOM     39  H   UNL     1     156.331 170.300 182.784  0.00  0.00    +0.036 HD
ATOM     40  H   UNL     1     158.610 172.250 182.950  0.00  0.00    +0.074 HD
ATOM     41  H   UNL     1     157.079 171.835 180.844  0.00  0.00    +0.035 HD
ATOM     42  H   UNL     1     157.613 173.446 181.301  0.00  0.00    +0.035 HD
ATOM     43  H   UNL     1     154.032 173.807 182.994  0.00  0.00    +0.069 HD
ATOM     44  H   UNL     1     155.567 173.350 179.554  0.00  0.00    +0.034 HD
ATOM     45  H   UNL     1     154.761 174.594 180.462  0.00  0.00    +0.034 HD
ATOM     46  H   UNL     1     153.085 173.702 179.309  0.00  0.00    +0.060 HD
ATOM     47  H   UNL     1     154.414 171.587 178.584  0.00  0.00    +0.034 HD
ATOM     48  H   UNL     1     152.677 171.684 178.477  0.00  0.00    +0.034 HD
ATOM     49  H   UNL     1     151.818 169.584 178.677  0.00  0.00    +0.062 HD
ATOM     50  H   UNL     1     151.315 167.855 180.514  0.00  0.00    +0.062 HD
ATOM     51  H   UNL     1     154.261 167.283 179.759  0.00  0.00    +0.069 HD
ATOM     52  H   UNL     1     153.188 164.135 182.604  0.00  0.00    +0.074 HD
ATOM     53  H   UNL     1     154.807 162.604 183.078  0.00  0.00    +0.038 HD
ATOM     54  H   UNL     1     157.063 164.249 181.744  0.00  0.00    +0.057 HD
ATOM     55  H   UNL     1     156.877 162.220 184.049  0.00  0.00    +0.059 HD
ATOM     56  H   UNL     1     159.299 162.831 182.542  0.00  0.00    +0.064 HD
ATOM     57  H   UNL     1     158.909 165.224 183.243  0.00  0.00    +0.032 HD
ATOM     58  H   UNL     1     160.429 164.478 183.760  0.00  0.00    +0.032 HD
ATOM     59  H   UNL     1     159.354 164.021 186.037  0.00  0.00    +0.060 HD
ENDROOT
BRANCH   1  60
ATOM     60  C   UNL     1     161.345 165.678 186.223  0.00  0.00    -0.057 C 
ATOM     61  H   UNL     1     161.333 164.811 186.892  0.00  0.00    +0.024 HD
ATOM     62  H   UNL     1     161.873 166.484 186.744  0.00  0.00    +0.024 HD
ATOM     63  H   UNL     1     161.934 165.404 185.344  0.00  0.00    +0.024 HD
ENDBRANCH   1  60
BRANCH  26  64
ATOM     64  C   UNL     1     154.828 162.680 180.942  0.00  0.00    -0.056 C 
ATOM     65  H   UNL     1     155.622 161.976 180.662  0.00  0.00    +0.024 HD
ATOM     66  H   UNL     1     154.755 163.437 180.157  0.00  0.00    +0.024 HD
ATOM     67  H   UNL     1     153.878 162.140 180.962  0.00  0.00    +0.024 HD
ENDBRANCH  26  64
BRANCH  18  68
ATOM     68  C   UNL     1     154.296 170.104 181.098  0.00  0.00    -0.043 C 
ATOM     69  H   UNL     1     153.760 170.259 182.036  0.00  0.00    +0.027 HD
ATOM     70  H   UNL     1     154.733 169.107 181.167  0.00  0.00    +0.027 HD
ATOM     71  H   UNL     1     155.117 170.817 181.013  0.00  0.00    +0.027 HD
ENDBRANCH  18  68
BRANCH   7  72
ATOM     72  C   UNL     1     157.069 170.273 184.759  0.00  0.00    -0.057 C 
ATOM     73  H   UNL     1     156.149 169.709 184.920  0.00  0.00    +0.023 HD
ATOM     74  H   UNL     1     157.898 169.701 185.187  0.00  0.00    +0.023 HD
ATOM     75  H   UNL     1     156.969 171.203 185.325  0.00  0.00    +0.023 HD
ENDBRANCH   7  72
BRANCH  25  76
ATOM     76  C   UNL     1     154.480 165.406 183.817  0.00  0.00    +0.020 C 
ATOM     77  H   UNL     1     155.156 164.803 184.434  0.00  0.00    +0.036 HD
BRANCH  76  78
ATOM     78  C   UNL     1     155.204 166.717 183.488  0.00  0.00    -0.057 C 
ATOM     79  H   UNL     1     155.599 166.736 182.470  0.00  0.00    +0.023 HD
ATOM     80  H   UNL     1     154.538 167.569 183.629  0.00  0.00    +0.023 HD
ATOM     81  H   UNL     1     156.050 166.897 184.154  0.00  0.00    +0.023 HD
ENDBRANCH  76  78
BRANCH  76  82
ATOM     82  C   UNL     1     153.154 165.586 184.640  0.00  0.00    +0.067 C 
ATOM     83  H   UNL     1     152.755 166.585 184.437  0.00  0.00    +0.060 HD
BRANCH  82  84
ATOM     84  C   UNL     1     153.180 165.493 186.197  0.00  0.00    -0.017 C 
ATOM     85  H   UNL     1     152.164 165.253 186.531  0.00  0.00    +0.032 HD
BRANCH  84  86
ATOM     86  C   UNL     1     154.042 164.287 186.615  0.00  0.00    -0.060 C 
ATOM     87  H   UNL     1     153.447 163.582 187.204  0.00  0.00    +0.023 HD
ATOM     88  H   UNL     1     154.886 164.601 187.241  0.00  0.00    +0.023 HD
ATOM     89  H   UNL     1     154.448 163.750 185.748  0.00  0.00    +0.023 HD
ENDBRANCH  84  86
BRANCH  84  90
ATOM     90  C   UNL     1     153.631 166.730 187.009  0.00  0.00    -0.041 C 
ATOM     91  H   UNL     1     153.938 167.510 186.299  0.00  0.00    +0.027 HD
ATOM     92  H   UNL     1     154.550 166.494 187.551  0.00  0.00    +0.027 HD
BRANCH  90  93
ATOM     93  C   UNL     1     152.626 167.329 187.990  0.00  0.00    +0.007 C 
ATOM     94  H   UNL     1     151.596 167.104 187.705  0.00  0.00    +0.034 HD
ATOM     95  H   UNL     1     152.731 168.421 188.023  0.00  0.00    +0.034 HD
BRANCH  93  96
ATOM     96  C   UNL     1     152.843 166.823 189.412  0.00  0.00    +0.139 C 
ATOM     97  O   UNL     1     153.987 166.556 189.797  0.00  0.00    -0.297 OA
BRANCH  96  98
ATOM     98  C   UNL     1     151.617 166.630 190.313  0.00  0.00    +0.041 C 
ATOM     99  H   UNL     1     151.801 165.697 190.850  0.00  0.00    +0.040 HD
BRANCH  98 100
ATOM    100  C   UNL     1     150.334 166.422 189.506  0.00  0.00    -0.053 C 
ATOM    101  H   UNL     1     150.117 165.363 189.338  0.00  0.00    +0.024 HD
ATOM    102  H   UNL     1     149.474 166.843 190.038  0.00  0.00    +0.024 HD
ATOM    103  H   UNL     1     150.391 166.932 188.536  0.00  0.00    +0.024 HD
ENDBRANCH  98 100
BRANCH  98 104
ATOM    104  C   UNL     1     151.493 167.743 191.383  0.00  0.00    +0.071 C 
ATOM    105  H   UNL     1     150.466 167.794 191.768  0.00  0.00    +0.061 HD
BRANCH 104 106
ATOM    106  C   UNL     1     152.451 167.634 192.595  0.00  0.00    -0.006 C 
ATOM    107  H   UNL     1     153.482 167.512 192.240  0.00  0.00    +0.033 HD
ATOM    108  H   UNL     1     152.453 168.604 193.110  0.00  0.00    +0.033 HD
BRANCH 106 109
ATOM    109  C   UNL     1     152.091 166.584 193.612  0.00  0.00    -0.067 C 
ATOM    110  C   UNL     1     150.884 166.512 194.190  0.00  0.00    -0.005 C 
ATOM    111  H   UNL     1     152.884 165.874 193.833  0.00  0.00    +0.059 HD
ATOM    112  H   UNL     1     150.118 167.225 193.889  0.00  0.00    +0.078 HD
BRANCH 110 113
ATOM    113  N   UNL     1     150.474 165.611 195.158  0.00  0.00    -0.284 N 
ATOM    114  C   UNL     1     151.119 164.415 195.470  0.00  0.00    +0.206 C 
ATOM    115  O   UNL     1     150.758 163.611 196.325  0.00  0.00    -0.279 OA
ATOM    116  H   UNL     1     152.025 164.226 194.882  0.00  0.00    +0.126 HD
BRANCH 113 117
ATOM    117  C   UNL     1     149.293 165.963 195.942  0.00  0.00    +0.007 C 
ATOM    118  H   UNL     1     148.729 166.724 195.389  0.00  0.00    +0.043 HD
ATOM    119  H   UNL     1     149.554 166.366 196.924  0.00  0.00    +0.043 HD
ATOM    120  H   UNL     1     148.669 165.073 196.084  0.00  0.00    +0.043 HD
ENDBRANCH 113 117
ENDBRANCH 110 113
ENDBRANCH 106 109
ENDBRANCH 104 106
BRANCH 104 121
ATOM    121  O   UNL     1     151.812 169.011 190.765  0.00  0.00    -0.379 OA
BRANCH 121 122
ATOM    122  C   UNL     1     151.647 170.124 191.641  0.00  0.00    +0.037 C 
ATOM    123  H   UNL     1     152.041 169.852 192.625  0.00  0.00    +0.052 HD
ATOM    124  H   UNL     1     152.197 170.992 191.276  0.00  0.00    +0.052 HD
ATOM    125  H   UNL     1     150.586 170.373 191.745  0.00  0.00    +0.052 HD
ENDBRANCH 121 122
ENDBRANCH 104 121
ENDBRANCH  98 104
ENDBRANCH  96  98
ENDBRANCH  93  96
ENDBRANCH  90  93
ENDBRANCH  84  90
ENDBRANCH  82  84
BRANCH  82 126
ATOM    126  O   UNL     1     152.189 164.635 184.148  0.00  0.00    -0.379 OA
BRANCH 126 127
ATOM    127  C   UNL     1     150.851 164.936 184.538  0.00  0.00    +0.037 C 
ATOM    128  H   UNL     1     150.839 165.399 185.531  0.00  0.00    +0.052 HD
ATOM    129  H   UNL     1     150.372 165.594 183.806  0.00  0.00    +0.052 HD
ATOM    130  H   UNL     1     150.286 163.999 184.587  0.00  0.00    +0.052 HD
ENDBRANCH 126 127
ENDBRANCH  82 126
ENDBRANCH  76  82
ENDBRANCH  25  76
BRANCH  31 131
ATOM    131  O   UNL     1     157.683 165.165 185.556  0.00  0.00    -0.379 OA
BRANCH 131 132
ATOM    132  C   UNL     1     157.355 165.469 186.909  0.00  0.00    +0.037 C 
ATOM    133  H   UNL     1     157.203 166.546 187.032  0.00  0.00    +0.052 HD
ATOM    134  H   UNL     1     156.429 164.948 187.167  0.00  0.00    +0.052 HD
ATOM    135  H   UNL     1     158.150 165.121 187.580  0.00  0.00    +0.052 HD
ENDBRANCH 131 132
ENDBRANCH  31 131
BRANCH  29 136
ATOM    136  O   UNL     1     159.268 162.132 184.508  0.00  0.00    -0.376 OA
BRANCH 136 137
ATOM    137  C   UNL     1     158.235 161.238 184.902  0.00  0.00    +0.037 C 
ATOM    138  H   UNL     1     157.291 161.778 185.038  0.00  0.00    +0.052 HD
ATOM    139  H   UNL     1     158.102 160.499 184.105  0.00  0.00    +0.052 HD
ATOM    140  H   UNL     1     158.510 160.714 185.821  0.00  0.00    +0.052 HD
ENDBRANCH 136 137
ENDBRANCH  29 136
BRANCH  16 141
ATOM    141  O   UNL     1     152.602 172.920 181.138  0.00  0.00    -0.379 OA
BRANCH 141 142
ATOM    142  C   UNL     1     151.730 174.040 181.217  0.00  0.00    +0.037 C 
ATOM    143  H   UNL     1     150.828 173.729 181.755  0.00  0.00    +0.052 HD
ATOM    144  H   UNL     1     151.437 174.393 180.223  0.00  0.00    +0.052 HD
ATOM    145  H   UNL     1     152.209 174.850 181.781  0.00  0.00    +0.052 HD
ENDBRANCH 141 142
ENDBRANCH  16 141
BRANCH   6 146
ATOM    146  O   UNL     1     158.357 169.746 181.261  0.00  0.00    -0.379 OA
BRANCH 146 147
ATOM    147  C   UNL     1     157.655 168.685 180.619  0.00  0.00    +0.037 C 
ATOM    148  H   UNL     1     158.201 168.358 179.729  0.00  0.00    +0.052 HD
ATOM    149  H   UNL     1     156.643 168.995 180.335  0.00  0.00    +0.052 HD
ATOM    150  H   UNL     1     157.580 167.844 181.316  0.00  0.00    +0.052 HD
ENDBRANCH 146 147
ENDBRANCH   6 146
BRANCH   4 151
ATOM    151  O   UNL     1     160.916 168.271 181.761  0.00  0.00    -0.376 OA
BRANCH 151 152
ATOM    152  C   UNL     1     161.527 166.985 181.718  0.00  0.00    +0.037 C 
ATOM    153  H   UNL     1     160.778 166.209 181.533  0.00  0.00    +0.052 HD
ATOM    154  H   UNL     1     162.237 166.978 180.892  0.00  0.00    +0.052 HD
ATOM    155  H   UNL     1     162.062 166.775 182.647  0.00  0.00    +0.052 HD
ENDBRANCH 151 152
ENDBRANCH   4 151
TORSDOF 33
ENDMDL
MODEL 8
REMARK VINA RESULT:      -4.2      2.444      3.841
REMARK  Name = Reidispongiolide A_conf3
REMARK  33 active torsions:
REMARK  status: ('A' for Active; 'I' for Inactive)
REMARK    1  A    between atoms: C_1  and  C_2
REMARK    2  A    between atoms: C_5  and  O_67
REMARK    3  A    between atoms: C_7  and  O_65
REMARK    4  A    between atoms: C_8  and  C_64
REMARK    5  A    between atoms: C_17  and  O_62
REMARK    6  A    between atoms: C_19  and  C_61
REMARK    7  A    between atoms: C_26  and  C_38
REMARK    8  A    between atoms: C_27  and  C_37
REMARK    9  A    between atoms: C_30  and  O_35
REMARK   10  A    between atoms: C_32  and  O_33
REMARK   11  A    between atoms: O_33  and  C_34
REMARK   12  A    between atoms: O_35  and  C_36
REMARK   13  A    between atoms: C_38  and  C_39
REMARK   14  A    between atoms: C_38  and  C_40
REMARK   15  A    between atoms: C_40  and  C_41
REMARK   16  A    between atoms: C_40  and  O_59
REMARK   17  A    between atoms: C_41  and  C_42
REMARK   18  A    between atoms: C_41  and  C_43
REMARK   19  A    between atoms: C_43  and  C_44
REMARK   20  A    between atoms: C_44  and  C_45
REMARK   21  A    between atoms: C_45  and  C_47
REMARK   22  A    between atoms: C_47  and  C_48
REMARK   23  A    between atoms: C_47  and  C_49
REMARK   24  A    between atoms: C_49  and  C_50
REMARK   25  A    between atoms: C_49  and  O_57
REMARK   26  A    between atoms: C_50  and  C_51
REMARK   27  A    between atoms: C_52  and  N_53
REMARK   28  A    between atoms: N_53  and  C_54
REMARK   29  A    between atoms: O_57  and  C_58
REMARK   30  A    between atoms: O_59  and  C_60
REMARK   31  A    between atoms: O_62  and  C_63
REMARK   32  A    between atoms: O_65  and  C_66
REMARK   33  A    between atoms: O_67  and  C_68
REMARK                            x       y       z     vdW  Elec       q    Type
REMARK                         _______ _______ _______ _____ _____    ______ ____
ROOT
ATOM      1  C   UNL     1     143.666 171.784 189.765  0.00  0.00    +0.001 C 
ATOM      2  C   UNL     1     144.106 171.369 188.365  0.00  0.00    -0.080 C 
ATOM      3  C   UNL     1     144.434 172.203 187.361  0.00  0.00    -0.059 C 
ATOM      4  C   UNL     1     144.817 171.908 185.933  0.00  0.00    +0.079 C 
ATOM      5  C   UNL     1     144.735 170.456 185.425  0.00  0.00    +0.004 C 
ATOM      6  C   UNL     1     145.830 169.480 185.912  0.00  0.00    +0.067 C 
ATOM      7  C   UNL     1     145.427 167.982 185.753  0.00  0.00    +0.020 C 
ATOM      8  C   UNL     1     145.085 167.569 184.283  0.00  0.00    +0.112 C 
ATOM      9  C   UNL     1     146.283 167.137 183.410  0.00  0.00    +0.006 C 
ATOM     10  C   UNL     1     146.585 165.664 183.494  0.00  0.00    -0.057 C 
ATOM     11  C   UNL     1     145.666 164.822 183.997  0.00  0.00    +0.022 C 
ATOM     12  C   UNL     1     144.323 165.258 184.417  0.00  0.00    +0.332 C 
ATOM     13  O   UNL     1     143.493 164.451 184.817  0.00  0.00    -0.246 OA
ATOM     14  O   UNL     1     144.032 166.570 184.259  0.00  0.00    -0.458 OA
ATOM     15  C   UNL     1     147.839 165.146 182.802  0.00  0.00    -0.004 C 
ATOM     16  C   UNL     1     148.893 164.266 183.538  0.00  0.00    +0.066 C 
ATOM     17  C   UNL     1     150.020 165.062 184.250  0.00  0.00    -0.005 C 
ATOM     18  C   UNL     1     149.876 165.410 185.721  0.00  0.00    -0.070 C 
ATOM     19  C   UNL     1     150.884 165.156 186.585  0.00  0.00    -0.062 C 
ATOM     20  C   UNL     1     150.881 165.474 187.998  0.00  0.00    -0.055 C 
ATOM     21  C   UNL     1     150.770 166.724 188.473  0.00  0.00    +0.023 C 
ATOM     22  C   UNL     1     150.611 166.932 189.920  0.00  0.00    +0.332 C 
ATOM     23  O   UNL     1     150.978 166.155 190.789  0.00  0.00    -0.246 OA
ATOM     24  O   UNL     1     149.914 168.079 190.101  0.00  0.00    -0.457 OA
ATOM     25  C   UNL     1     149.228 168.214 191.366  0.00  0.00    +0.114 C 
ATOM     26  C   UNL     1     149.479 169.624 191.990  0.00  0.00    +0.012 C 
ATOM     27  C   UNL     1     148.717 170.775 191.375  0.00  0.00    -0.079 C 
ATOM     28  C   UNL     1     147.843 171.532 192.070  0.00  0.00    -0.059 C 
ATOM     29  C   UNL     1     147.105 172.721 191.521  0.00  0.00    +0.079 C 
ATOM     30  C   UNL     1     146.098 172.428 190.392  0.00  0.00    +0.004 C 
ATOM     31  C   UNL     1     144.799 171.726 190.836  0.00  0.00    +0.067 C 
ATOM     32  H   UNL     1     142.904 171.043 190.054  0.00  0.00    +0.037 HD
ATOM     33  H   UNL     1     144.129 170.294 188.212  0.00  0.00    +0.057 HD
ATOM     34  H   UNL     1     144.423 173.272 187.562  0.00  0.00    +0.059 HD
ATOM     35  H   UNL     1     144.090 172.482 185.337  0.00  0.00    +0.064 HD
ATOM     36  H   UNL     1     144.794 170.505 184.333  0.00  0.00    +0.032 HD
ATOM     37  H   UNL     1     143.739 170.076 185.668  0.00  0.00    +0.032 HD
ATOM     38  H   UNL     1     146.030 169.666 186.974  0.00  0.00    +0.060 HD
ATOM     39  H   UNL     1     146.289 167.386 186.060  0.00  0.00    +0.036 HD
ATOM     40  H   UNL     1     144.636 168.431 183.779  0.00  0.00    +0.074 HD
ATOM     41  H   UNL     1     147.173 167.724 183.654  0.00  0.00    +0.035 HD
ATOM     42  H   UNL     1     146.041 167.354 182.361  0.00  0.00    +0.035 HD
ATOM     43  H   UNL     1     145.814 163.747 184.020  0.00  0.00    +0.069 HD
ATOM     44  H   UNL     1     148.357 165.982 182.308  0.00  0.00    +0.034 HD
ATOM     45  H   UNL     1     147.464 164.531 181.965  0.00  0.00    +0.034 HD
ATOM     46  H   UNL     1     149.391 163.723 182.720  0.00  0.00    +0.060 HD
ATOM     47  H   UNL     1     150.216 165.990 183.693  0.00  0.00    +0.034 HD
ATOM     48  H   UNL     1     150.934 164.464 184.135  0.00  0.00    +0.034 HD
ATOM     49  H   UNL     1     151.783 164.643 186.241  0.00  0.00    +0.062 HD
ATOM     50  H   UNL     1     150.961 164.626 188.677  0.00  0.00    +0.062 HD
ATOM     51  H   UNL     1     150.688 167.591 187.833  0.00  0.00    +0.069 HD
ATOM     52  H   UNL     1     149.681 167.528 192.092  0.00  0.00    +0.074 HD
ATOM     53  H   UNL     1     149.166 169.535 193.040  0.00  0.00    +0.038 HD
ATOM     54  H   UNL     1     148.919 171.004 190.328  0.00  0.00    +0.057 HD
ATOM     55  H   UNL     1     147.672 171.304 193.124  0.00  0.00    +0.059 HD
ATOM     56  H   UNL     1     147.854 173.426 191.130  0.00  0.00    +0.064 HD
ATOM     57  H   UNL     1     146.601 171.850 189.609  0.00  0.00    +0.032 HD
ATOM     58  H   UNL     1     145.828 173.402 189.962  0.00  0.00    +0.032 HD
ATOM     59  H   UNL     1     144.418 172.218 191.741  0.00  0.00    +0.060 HD
ENDROOT
BRANCH   1  60
ATOM     60  C   UNL     1     142.954 173.145 189.807  0.00  0.00    -0.057 C 
ATOM     61  H   UNL     1     141.913 173.043 189.483  0.00  0.00    +0.024 HD
ATOM     62  H   UNL     1     143.436 173.860 189.133  0.00  0.00    +0.024 HD
ATOM     63  H   UNL     1     142.943 173.581 190.809  0.00  0.00    +0.024 HD
ENDBRANCH   1  60
BRANCH  26  64
ATOM     64  C   UNL     1     150.979 169.951 191.987  0.00  0.00    -0.056 C 
ATOM     65  H   UNL     1     151.380 169.991 193.008  0.00  0.00    +0.024 HD
ATOM     66  H   UNL     1     151.170 170.916 191.511  0.00  0.00    +0.024 HD
ATOM     67  H   UNL     1     151.536 169.196 191.426  0.00  0.00    +0.024 HD
ENDBRANCH  26  64
BRANCH  18  68
ATOM     68  C   UNL     1     148.582 166.057 186.113  0.00  0.00    -0.043 C 
ATOM     69  H   UNL     1     148.608 166.359 187.162  0.00  0.00    +0.027 HD
ATOM     70  H   UNL     1     148.342 166.960 185.550  0.00  0.00    +0.027 HD
ATOM     71  H   UNL     1     147.773 165.344 185.948  0.00  0.00    +0.027 HD
ENDBRANCH  18  68
BRANCH   7  72
ATOM     72  C   UNL     1     144.312 167.636 186.749  0.00  0.00    -0.057 C 
ATOM     73  H   UNL     1     143.330 167.806 186.305  0.00  0.00    +0.023 HD
ATOM     74  H   UNL     1     144.360 166.595 187.080  0.00  0.00    +0.023 HD
ATOM     75  H   UNL     1     144.371 168.278 187.632  0.00  0.00    +0.023 HD
ENDBRANCH   7  72
BRANCH  25  76
ATOM     76  C   UNL     1     147.722 167.817 191.178  0.00  0.00    +0.020 C 
ATOM     77  H   UNL     1     147.148 168.423 191.889  0.00  0.00    +0.036 HD
BRANCH  76  78
ATOM     78  C   UNL     1     147.222 168.163 189.771  0.00  0.00    -0.057 C 
ATOM     79  H   UNL     1     147.199 169.240 189.585  0.00  0.00    +0.023 HD
ATOM     80  H   UNL     1     147.844 167.684 189.013  0.00  0.00    +0.023 HD
ATOM     81  H   UNL     1     146.211 167.795 189.592  0.00  0.00    +0.023 HD
ENDBRANCH  76  78
BRANCH  76  82
ATOM     82  C   UNL     1     147.512 166.316 191.591  0.00  0.00    +0.067 C 
ATOM     83  H   UNL     1     148.316 166.032 192.278  0.00  0.00    +0.060 HD
BRANCH  82  84
ATOM     84  C   UNL     1     147.520 165.196 190.506  0.00  0.00    -0.017 C 
ATOM     85  H   UNL     1     148.103 165.565 189.654  0.00  0.00    +0.032 HD
BRANCH  84  86
ATOM     86  C   UNL     1     148.304 163.983 191.041  0.00  0.00    -0.060 C 
ATOM     87  H   UNL     1     148.817 164.244 191.973  0.00  0.00    +0.023 HD
ATOM     88  H   UNL     1     149.072 163.661 190.328  0.00  0.00    +0.023 HD
ATOM     89  H   UNL     1     147.649 163.125 191.242  0.00  0.00    +0.023 HD
ENDBRANCH  84  86
BRANCH  84  90
ATOM     90  C   UNL     1     146.170 164.701 189.936  0.00  0.00    -0.041 C 
ATOM     91  H   UNL     1     145.370 165.319 190.368  0.00  0.00    +0.027 HD
ATOM     92  H   UNL     1     145.960 163.699 190.317  0.00  0.00    +0.027 HD
BRANCH  90  93
ATOM     93  C   UNL     1     146.012 164.689 188.417  0.00  0.00    +0.007 C 
ATOM     94  H   UNL     1     146.972 164.796 187.908  0.00  0.00    +0.034 HD
ATOM     95  H   UNL     1     145.371 165.520 188.095  0.00  0.00    +0.034 HD
BRANCH  93  96
ATOM     96  C   UNL     1     145.354 163.407 187.921  0.00  0.00    +0.139 C 
ATOM     97  O   UNL     1     144.221 163.110 188.314  0.00  0.00    -0.297 OA
BRANCH  96  98
ATOM     98  C   UNL     1     146.145 162.503 186.965  0.00  0.00    +0.041 C 
ATOM     99  H   UNL     1     146.710 163.186 186.328  0.00  0.00    +0.040 HD
BRANCH  98 100
ATOM    100  C   UNL     1     145.228 161.702 186.039  0.00  0.00    -0.053 C 
ATOM    101  H   UNL     1     145.567 160.668 185.913  0.00  0.00    +0.024 HD
ATOM    102  H   UNL     1     144.213 161.657 186.449  0.00  0.00    +0.024 HD
ATOM    103  H   UNL     1     145.154 162.173 185.052  0.00  0.00    +0.024 HD
ENDBRANCH  98 100
BRANCH  98 104
ATOM    104  C   UNL     1     147.182 161.626 187.709  0.00  0.00    +0.071 C 
ATOM    105  H   UNL     1     147.251 160.634 187.243  0.00  0.00    +0.061 HD
BRANCH 104 106
ATOM    106  C   UNL     1     148.615 162.204 187.813  0.00  0.00    -0.006 C 
ATOM    107  H   UNL     1     149.054 162.283 186.810  0.00  0.00    +0.033 HD
ATOM    108  H   UNL     1     148.534 163.243 188.157  0.00  0.00    +0.033 HD
BRANCH 106 109
ATOM    109  C   UNL     1     149.536 161.483 188.761  0.00  0.00    -0.067 C 
ATOM    110  C   UNL     1     149.930 160.217 188.573  0.00  0.00    -0.005 C 
ATOM    111  H   UNL     1     149.870 162.076 189.610  0.00  0.00    +0.059 HD
ATOM    112  H   UNL     1     149.597 159.693 187.678  0.00  0.00    +0.078 HD
BRANCH 110 113
ATOM    113  N   UNL     1     150.740 159.461 189.404  0.00  0.00    -0.284 N 
ATOM    114  C   UNL     1     151.048 159.773 190.728  0.00  0.00    +0.206 C 
ATOM    115  O   UNL     1     151.767 159.108 191.469  0.00  0.00    -0.279 OA
ATOM    116  H   UNL     1     150.576 160.691 191.095  0.00  0.00    +0.126 HD
BRANCH 113 117
ATOM    117  C   UNL     1     151.281 158.218 188.862  0.00  0.00    +0.007 C 
ATOM    118  H   UNL     1     150.682 157.937 187.987  0.00  0.00    +0.043 HD
ATOM    119  H   UNL     1     151.248 157.401 189.587  0.00  0.00    +0.043 HD
ATOM    120  H   UNL     1     152.323 158.374 188.559  0.00  0.00    +0.043 HD
ENDBRANCH 113 117
ENDBRANCH 110 113
ENDBRANCH 106 109
ENDBRANCH 104 106
BRANCH 104 121
ATOM    121  O   UNL     1     146.744 161.458 189.077  0.00  0.00    -0.379 OA
BRANCH 121 122
ATOM    122  C   UNL     1     146.172 160.178 189.335  0.00  0.00    +0.037 C 
ATOM    123  H   UNL     1     146.929 159.551 189.817  0.00  0.00    +0.052 HD
ATOM    124  H   UNL     1     145.315 160.262 190.005  0.00  0.00    +0.052 HD
ATOM    125  H   UNL     1     145.867 159.701 188.399  0.00  0.00    +0.052 HD
ENDBRANCH 121 122
ENDBRANCH 104 121
ENDBRANCH  98 104
ENDBRANCH  96  98
ENDBRANCH  93  96
ENDBRANCH  90  93
ENDBRANCH  84  90
ENDBRANCH  82  84
BRANCH  82 126
ATOM    126  O   UNL     1     146.275 166.222 192.325  0.00  0.00    -0.379 OA
BRANCH 126 127
ATOM    127  C   UNL     1     146.462 166.088 193.732  0.00  0.00    +0.037 C 
ATOM    128  H   UNL     1     146.324 167.054 194.228  0.00  0.00    +0.052 HD
ATOM    129  H   UNL     1     145.772 165.346 194.146  0.00  0.00    +0.052 HD
ATOM    130  H   UNL     1     147.488 165.750 193.913  0.00  0.00    +0.052 HD
ENDBRANCH 126 127
ENDBRANCH  82 126
ENDBRANCH  76  82
ENDBRANCH  25  76
BRANCH  31 131
ATOM    131  O   UNL     1     145.087 170.346 191.126  0.00  0.00    -0.379 OA
BRANCH 131 132
ATOM    132  C   UNL     1     143.920 169.530 191.063  0.00  0.00    +0.037 C 
ATOM    133  H   UNL     1     143.521 169.513 190.045  0.00  0.00    +0.052 HD
ATOM    134  H   UNL     1     144.194 168.512 191.355  0.00  0.00    +0.052 HD
ATOM    135  H   UNL     1     143.160 169.901 191.761  0.00  0.00    +0.052 HD
ENDBRANCH 131 132
ENDBRANCH  31 131
BRANCH  29 136
ATOM    136  O   UNL     1     146.400 173.320 192.623  0.00  0.00    -0.376 OA
BRANCH 136 137
ATOM    137  C   UNL     1     147.239 173.608 193.733  0.00  0.00    +0.037 C 
ATOM    138  H   UNL     1     147.039 172.913 194.556  0.00  0.00    +0.052 HD
ATOM    139  H   UNL     1     148.280 173.481 193.414  0.00  0.00    +0.052 HD
ATOM    140  H   UNL     1     147.101 174.641 194.063  0.00  0.00    +0.052 HD
ENDBRANCH 136 137
ENDBRANCH  29 136
BRANCH  16 141
ATOM    141  O   UNL     1     148.253 163.292 184.366  0.00  0.00    -0.379 OA
BRANCH 141 142
ATOM    142  C   UNL     1     148.329 161.967 183.860  0.00  0.00    +0.037 C 
ATOM    143  H   UNL     1     148.502 161.291 184.705  0.00  0.00    +0.052 HD
ATOM    144  H   UNL     1     149.155 161.852 183.150  0.00  0.00    +0.052 HD
ATOM    145  H   UNL     1     147.380 161.690 183.384  0.00  0.00    +0.052 HD
ENDBRANCH 141 142
ENDBRANCH  16 141
BRANCH   6 146
ATOM    146  O   UNL     1     147.022 169.702 185.148  0.00  0.00    -0.379 OA
BRANCH 146 147
ATOM    147  C   UNL     1     148.206 169.467 185.906  0.00  0.00    +0.037 C 
ATOM    148  H   UNL     1     148.821 168.707 185.415  0.00  0.00    +0.052 HD
ATOM    149  H   UNL     1     147.965 169.143 186.925  0.00  0.00    +0.052 HD
ATOM    150  H   UNL     1     148.776 170.400 185.962  0.00  0.00    +0.052 HD
ENDBRANCH 146 147
ENDBRANCH   6 146
BRANCH   4 151
ATOM    151  O   UNL     1     146.111 172.490 185.754  0.00  0.00    -0.376 OA
BRANCH 151 152
ATOM    152  C   UNL     1     146.105 173.913 185.826  0.00  0.00    +0.037 C 
ATOM    153  H   UNL     1     147.127 174.301 185.875  0.00  0.00    +0.052 HD
ATOM    154  H   UNL     1     145.638 174.293 184.918  0.00  0.00    +0.052 HD
ATOM    155  H   UNL     1     145.531 174.258 186.690  0.00  0.00    +0.052 HD
ENDBRANCH 151 152
ENDBRANCH   4 151
TORSDOF 33
ENDMDL
MODEL 9
REMARK VINA RESULT:      -4.1      3.942      7.082
REMARK  Name = Reidispongiolide A_conf3
REMARK  33 active torsions:
REMARK  status: ('A' for Active; 'I' for Inactive)
REMARK    1  A    between atoms: C_1  and  C_2
REMARK    2  A    between atoms: C_5  and  O_67
REMARK    3  A    between atoms: C_7  and  O_65
REMARK    4  A    between atoms: C_8  and  C_64
REMARK    5  A    between atoms: C_17  and  O_62
REMARK    6  A    between atoms: C_19  and  C_61
REMARK    7  A    between atoms: C_26  and  C_38
REMARK    8  A    between atoms: C_27  and  C_37
REMARK    9  A    between atoms: C_30  and  O_35
REMARK   10  A    between atoms: C_32  and  O_33
REMARK   11  A    between atoms: O_33  and  C_34
REMARK   12  A    between atoms: O_35  and  C_36
REMARK   13  A    between atoms: C_38  and  C_39
REMARK   14  A    between atoms: C_38  and  C_40
REMARK   15  A    between atoms: C_40  and  C_41
REMARK   16  A    between atoms: C_40  and  O_59
REMARK   17  A    between atoms: C_41  and  C_42
REMARK   18  A    between atoms: C_41  and  C_43
REMARK   19  A    between atoms: C_43  and  C_44
REMARK   20  A    between atoms: C_44  and  C_45
REMARK   21  A    between atoms: C_45  and  C_47
REMARK   22  A    between atoms: C_47  and  C_48
REMARK   23  A    between atoms: C_47  and  C_49
REMARK   24  A    between atoms: C_49  and  C_50
REMARK   25  A    between atoms: C_49  and  O_57
REMARK   26  A    between atoms: C_50  and  C_51
REMARK   27  A    between atoms: C_52  and  N_53
REMARK   28  A    between atoms: N_53  and  C_54
REMARK   29  A    between atoms: O_57  and  C_58
REMARK   30  A    between atoms: O_59  and  C_60
REMARK   31  A    between atoms: O_62  and  C_63
REMARK   32  A    between atoms: O_65  and  C_66
REMARK   33  A    between atoms: O_67  and  C_68
REMARK                            x       y       z     vdW  Elec       q    Type
REMARK                         _______ _______ _______ _____ _____    ______ ____
ROOT
ATOM      1  C   UNL     1     143.719 172.110 189.888  0.00  0.00    +0.001 C 
ATOM      2  C   UNL     1     144.121 171.793 188.452  0.00  0.00    -0.080 C 
ATOM      3  C   UNL     1     144.490 172.691 187.520  0.00  0.00    -0.059 C 
ATOM      4  C   UNL     1     144.841 172.500 186.066  0.00  0.00    +0.079 C 
ATOM      5  C   UNL     1     144.666 171.105 185.435  0.00  0.00    +0.004 C 
ATOM      6  C   UNL     1     145.704 170.027 185.819  0.00  0.00    +0.067 C 
ATOM      7  C   UNL     1     145.209 168.575 185.536  0.00  0.00    +0.020 C 
ATOM      8  C   UNL     1     144.829 168.314 184.041  0.00  0.00    +0.112 C 
ATOM      9  C   UNL     1     145.990 167.889 183.117  0.00  0.00    +0.006 C 
ATOM     10  C   UNL     1     146.203 166.399 183.068  0.00  0.00    -0.057 C 
ATOM     11  C   UNL     1     145.239 165.573 183.509  0.00  0.00    +0.022 C 
ATOM     12  C   UNL     1     143.929 166.050 183.984  0.00  0.00    +0.332 C 
ATOM     13  O   UNL     1     143.056 165.262 184.324  0.00  0.00    -0.246 OA
ATOM     14  O   UNL     1     143.718 167.386 183.945  0.00  0.00    -0.458 OA
ATOM     15  C   UNL     1     147.417 165.870 182.315  0.00  0.00    -0.004 C 
ATOM     16  C   UNL     1     148.422 164.867 182.957  0.00  0.00    +0.066 C 
ATOM     17  C   UNL     1     149.602 165.529 183.719  0.00  0.00    -0.005 C 
ATOM     18  C   UNL     1     149.493 165.755 185.216  0.00  0.00    -0.070 C 
ATOM     19  C   UNL     1     150.492 165.366 186.040  0.00  0.00    -0.062 C 
ATOM     20  C   UNL     1     150.520 165.558 187.475  0.00  0.00    -0.055 C 
ATOM     21  C   UNL     1     150.490 166.766 188.059  0.00  0.00    +0.023 C 
ATOM     22  C   UNL     1     150.358 166.856 189.521  0.00  0.00    +0.332 C 
ATOM     23  O   UNL     1     150.684 165.985 190.314  0.00  0.00    -0.246 OA
ATOM     24  O   UNL     1     149.733 168.022 189.811  0.00  0.00    -0.457 OA
ATOM     25  C   UNL     1     149.069 168.087 191.093  0.00  0.00    +0.114 C 
ATOM     26  C   UNL     1     149.410 169.419 191.834  0.00  0.00    +0.012 C 
ATOM     27  C   UNL     1     148.715 170.663 191.332  0.00  0.00    -0.079 C 
ATOM     28  C   UNL     1     147.894 171.407 192.103  0.00  0.00    -0.059 C 
ATOM     29  C   UNL     1     147.225 172.682 191.670  0.00  0.00    +0.079 C 
ATOM     30  C   UNL     1     146.191 172.550 190.535  0.00  0.00    +0.004 C 
ATOM     31  C   UNL     1     144.857 171.890 190.934  0.00  0.00    +0.067 C 
ATOM     32  H   UNL     1     142.916 171.393 190.123  0.00  0.00    +0.037 HD
ATOM     33  H   UNL     1     144.077 170.737 188.205  0.00  0.00    +0.057 HD
ATOM     34  H   UNL     1     144.546 173.737 187.812  0.00  0.00    +0.059 HD
ATOM     35  H   UNL     1     144.145 173.167 185.533  0.00  0.00    +0.064 HD
ATOM     36  H   UNL     1     144.718 171.247 184.350  0.00  0.00    +0.032 HD
ATOM     37  H   UNL     1     143.650 170.766 185.658  0.00  0.00    +0.032 HD
ATOM     38  H   UNL     1     145.925 170.107 186.890  0.00  0.00    +0.060 HD
ATOM     39  H   UNL     1     146.036 167.904 185.778  0.00  0.00    +0.036 HD
ATOM     40  H   UNL     1     144.429 169.242 183.620  0.00  0.00    +0.074 HD
ATOM     41  H   UNL     1     146.917 168.398 183.398  0.00  0.00    +0.035 HD
ATOM     42  H   UNL     1     145.753 168.212 182.094  0.00  0.00    +0.035 HD
ATOM     43  H   UNL     1     145.322 164.493 183.436  0.00  0.00    +0.069 HD
ATOM     44  H   UNL     1     147.980 166.714 181.888  0.00  0.00    +0.034 HD
ATOM     45  H   UNL     1     146.998 165.354 181.434  0.00  0.00    +0.034 HD
ATOM     46  H   UNL     1     148.878 164.369 182.087  0.00  0.00    +0.060 HD
ATOM     47  H   UNL     1     149.849 166.489 183.242  0.00  0.00    +0.034 HD
ATOM     48  H   UNL     1     150.477 164.890 183.539  0.00  0.00    +0.034 HD
ATOM     49  H   UNL     1     151.354 164.832 185.640  0.00  0.00    +0.062 HD
ATOM     50  H   UNL     1     150.555 164.651 188.078  0.00  0.00    +0.062 HD
ATOM     51  H   UNL     1     150.455 167.690 187.498  0.00  0.00    +0.069 HD
ATOM     52  H   UNL     1     149.485 167.314 191.749  0.00  0.00    +0.074 HD
ATOM     53  H   UNL     1     149.102 169.257 192.876  0.00  0.00    +0.038 HD
ATOM     54  H   UNL     1     148.920 170.970 190.306  0.00  0.00    +0.057 HD
ATOM     55  H   UNL     1     147.719 171.099 193.135  0.00  0.00    +0.059 HD
ATOM     56  H   UNL     1     148.012 173.372 191.331  0.00  0.00    +0.064 HD
ATOM     57  H   UNL     1     146.652 172.013 189.696  0.00  0.00    +0.032 HD
ATOM     58  H   UNL     1     145.977 173.571 190.195  0.00  0.00    +0.032 HD
ATOM     59  H   UNL     1     144.515 172.323 191.884  0.00  0.00    +0.060 HD
ENDROOT
BRANCH   1  60
ATOM     60  C   UNL     1     143.091 173.502 190.059  0.00  0.00    -0.057 C 
ATOM     61  H   UNL     1     143.204 174.087 189.141  0.00  0.00    +0.024 HD
ATOM     62  H   UNL     1     143.584 174.058 190.863  0.00  0.00    +0.024 HD
ATOM     63  H   UNL     1     142.024 173.454 190.288  0.00  0.00    +0.024 HD
ENDBRANCH   1  60
BRANCH  26  64
ATOM     64  C   UNL     1     150.927 169.655 191.837  0.00  0.00    -0.056 C 
ATOM     65  H   UNL     1     151.449 168.894 191.242  0.00  0.00    +0.024 HD
ATOM     66  H   UNL     1     151.328 169.623 192.853  0.00  0.00    +0.024 HD
ATOM     67  H   UNL     1     151.164 170.639 191.425  0.00  0.00    +0.024 HD
ENDBRANCH  26  64
BRANCH  18  68
ATOM     68  C   UNL     1     148.244 166.441 185.682  0.00  0.00    -0.043 C 
ATOM     69  H   UNL     1     147.377 165.793 185.540  0.00  0.00    +0.027 HD
ATOM     70  H   UNL     1     148.246 166.708 186.740  0.00  0.00    +0.027 HD
ATOM     71  H   UNL     1     148.121 167.363 185.112  0.00  0.00    +0.027 HD
ENDBRANCH  18  68
BRANCH   7  72
ATOM     72  C   UNL     1     144.084 168.211 186.514  0.00  0.00    -0.057 C 
ATOM     73  H   UNL     1     143.364 169.026 186.598  0.00  0.00    +0.023 HD
ATOM     74  H   UNL     1     143.545 167.310 186.208  0.00  0.00    +0.023 HD
ATOM     75  H   UNL     1     144.485 168.044 187.518  0.00  0.00    +0.023 HD
ENDBRANCH   7  72
BRANCH  25  76
ATOM     76  C   UNL     1     147.539 167.799 190.893  0.00  0.00    +0.020 C 
ATOM     77  H   UNL     1     147.007 168.408 191.633  0.00  0.00    +0.036 HD
BRANCH  76  78
ATOM     78  C   UNL     1     147.062 168.241 189.505  0.00  0.00    -0.057 C 
ATOM     79  H   UNL     1     147.605 169.113 189.131  0.00  0.00    +0.023 HD
ATOM     80  H   UNL     1     147.159 167.425 188.787  0.00  0.00    +0.023 HD
ATOM     81  H   UNL     1     146.004 168.508 189.500  0.00  0.00    +0.023 HD
ENDBRANCH  76  78
BRANCH  76  82
ATOM     82  C   UNL     1     147.231 166.297 191.237  0.00  0.00    +0.067 C 
ATOM     83  H   UNL     1     148.045 165.913 191.861  0.00  0.00    +0.060 HD
BRANCH  82  84
ATOM     84  C   UNL     1     147.092 165.244 190.096  0.00  0.00    -0.017 C 
ATOM     85  H   UNL     1     147.553 165.668 189.196  0.00  0.00    +0.032 HD
BRANCH  84  86
ATOM     86  C   UNL     1     147.942 164.008 190.446  0.00  0.00    -0.060 C 
ATOM     87  H   UNL     1     147.392 163.351 191.128  0.00  0.00    +0.023 HD
ATOM     88  H   UNL     1     148.871 164.296 190.952  0.00  0.00    +0.023 HD
ATOM     89  H   UNL     1     148.209 163.426 189.554  0.00  0.00    +0.023 HD
ENDBRANCH  84  86
BRANCH  84  90
ATOM     90  C   UNL     1     145.677 164.772 189.687  0.00  0.00    -0.041 C 
ATOM     91  H   UNL     1     144.977 165.059 190.484  0.00  0.00    +0.027 HD
ATOM     92  H   UNL     1     145.642 163.680 189.691  0.00  0.00    +0.027 HD
BRANCH  90  93
ATOM     93  C   UNL     1     145.128 165.273 188.353  0.00  0.00    +0.007 C 
ATOM     94  H   UNL     1     145.918 165.389 187.606  0.00  0.00    +0.034 HD
ATOM     95  H   UNL     1     144.648 166.250 188.482  0.00  0.00    +0.034 HD
BRANCH  93  96
ATOM     96  C   UNL     1     144.073 164.334 187.780  0.00  0.00    +0.139 C 
ATOM     97  O   UNL     1     144.377 163.556 186.869  0.00  0.00    -0.297 OA
BRANCH  96  98
ATOM     98  C   UNL     1     142.645 164.414 188.337  0.00  0.00    +0.041 C 
ATOM     99  H   UNL     1     142.663 163.820 189.253  0.00  0.00    +0.040 HD
BRANCH  98 100
ATOM    100  C   UNL     1     141.626 163.751 187.408  0.00  0.00    -0.053 C 
ATOM    101  H   UNL     1     140.715 164.349 187.299  0.00  0.00    +0.024 HD
ATOM    102  H   UNL     1     142.047 163.626 186.404  0.00  0.00    +0.024 HD
ATOM    103  H   UNL     1     141.354 162.752 187.768  0.00  0.00    +0.024 HD
ENDBRANCH  98 100
BRANCH  98 104
ATOM    104  C   UNL     1     142.253 165.854 188.748  0.00  0.00    +0.071 C 
ATOM    105  H   UNL     1     143.134 166.510 188.738  0.00  0.00    +0.061 HD
BRANCH 104 106
ATOM    106  C   UNL     1     141.148 166.529 187.898  0.00  0.00    -0.006 C 
ATOM    107  H   UNL     1     141.331 166.334 186.834  0.00  0.00    +0.033 HD
ATOM    108  H   UNL     1     140.201 166.015 188.110  0.00  0.00    +0.033 HD
BRANCH 106 109
ATOM    109  C   UNL     1     140.935 167.996 188.160  0.00  0.00    -0.067 C 
ATOM    110  C   UNL     1     140.033 168.731 187.497  0.00  0.00    -0.005 C 
ATOM    111  H   UNL     1     141.563 168.414 188.943  0.00  0.00    +0.059 HD
ATOM    112  H   UNL     1     139.401 168.241 186.757  0.00  0.00    +0.078 HD
BRANCH 110 113
ATOM    113  N   UNL     1     139.792 170.088 187.640  0.00  0.00    -0.284 N 
ATOM    114  C   UNL     1     140.311 170.895 188.652  0.00  0.00    +0.206 C 
ATOM    115  O   UNL     1     140.099 172.097 188.785  0.00  0.00    -0.279 OA
ATOM    116  H   UNL     1     140.965 170.368 189.356  0.00  0.00    +0.126 HD
BRANCH 113 117
ATOM    117  C   UNL     1     138.961 170.730 186.626  0.00  0.00    +0.007 C 
ATOM    118  H   UNL     1     138.820 171.780 186.913  0.00  0.00    +0.043 HD
ATOM    119  H   UNL     1     137.980 170.258 186.534  0.00  0.00    +0.043 HD
ATOM    120  H   UNL     1     139.466 170.680 185.654  0.00  0.00    +0.043 HD
ENDBRANCH 113 117
ENDBRANCH 110 113
ENDBRANCH 106 109
ENDBRANCH 104 106
BRANCH 104 121
ATOM    121  O   UNL     1     141.724 165.820 190.093  0.00  0.00    -0.379 OA
BRANCH 121 122
ATOM    122  C   UNL     1     142.677 166.199 191.085  0.00  0.00    +0.037 C 
ATOM    123  H   UNL     1     142.977 165.302 191.637  0.00  0.00    +0.052 HD
ATOM    124  H   UNL     1     143.565 166.636 190.626  0.00  0.00    +0.052 HD
ATOM    125  H   UNL     1     142.233 166.910 191.788  0.00  0.00    +0.052 HD
ENDBRANCH 121 122
ENDBRANCH 104 121
ENDBRANCH  98 104
ENDBRANCH  96  98
ENDBRANCH  93  96
ENDBRANCH  90  93
ENDBRANCH  84  90
ENDBRANCH  82  84
BRANCH  82 126
ATOM    126  O   UNL     1     146.031 166.258 192.035  0.00  0.00    -0.379 OA
BRANCH 126 127
ATOM    127  C   UNL     1     146.287 166.211 193.437  0.00  0.00    +0.037 C 
ATOM    128  H   UNL     1     147.106 166.889 193.697  0.00  0.00    +0.052 HD
ATOM    129  H   UNL     1     145.387 166.467 194.004  0.00  0.00    +0.052 HD
ATOM    130  H   UNL     1     146.586 165.190 193.699  0.00  0.00    +0.052 HD
ENDBRANCH 126 127
ENDBRANCH  82 126
ENDBRANCH  76  82
ENDBRANCH  25  76
BRANCH  31 131
ATOM    131  O   UNL     1     145.063 170.476 191.099  0.00  0.00    -0.379 OA
BRANCH 131 132
ATOM    132  C   UNL     1     143.840 169.745 191.043  0.00  0.00    +0.037 C 
ATOM    133  H   UNL     1     144.018 168.687 191.255  0.00  0.00    +0.052 HD
ATOM    134  H   UNL     1     143.161 170.149 191.800  0.00  0.00    +0.052 HD
ATOM    135  H   UNL     1     143.373 169.861 190.058  0.00  0.00    +0.052 HD
ENDBRANCH 131 132
ENDBRANCH  31 131
BRANCH  29 136
ATOM    136  O   UNL     1     146.567 173.223 192.829  0.00  0.00    -0.376 OA
BRANCH 136 137
ATOM    137  C   UNL     1     147.474 173.636 193.843  0.00  0.00    +0.037 C 
ATOM    138  H   UNL     1     147.474 172.920 194.673  0.00  0.00    +0.052 HD
ATOM    139  H   UNL     1     148.479 173.666 193.409  0.00  0.00    +0.052 HD
ATOM    140  H   UNL     1     147.221 174.637 194.202  0.00  0.00    +0.052 HD
ENDBRANCH 136 137
ENDBRANCH  29 136
BRANCH  16 141
ATOM    141  O   UNL     1     147.732 163.864 183.706  0.00  0.00    -0.379 OA
BRANCH 141 142
ATOM    142  C   UNL     1     147.599 162.625 183.024  0.00  0.00    +0.037 C 
ATOM    143  H   UNL     1     147.166 162.826 182.037  0.00  0.00    +0.052 HD
ATOM    144  H   UNL     1     146.936 161.938 183.560  0.00  0.00    +0.052 HD
ATOM    145  H   UNL     1     148.585 162.166 182.881  0.00  0.00    +0.052 HD
ENDBRANCH 141 142
ENDBRANCH  16 141
BRANCH   6 146
ATOM    146  O   UNL     1     146.901 170.243 185.060  0.00  0.00    -0.379 OA
BRANCH 146 147
ATOM    147  C   UNL     1     148.064 169.762 185.728  0.00  0.00    +0.037 C 
ATOM    148  H   UNL     1     148.742 169.291 185.010  0.00  0.00    +0.052 HD
ATOM    149  H   UNL     1     147.800 169.041 186.511  0.00  0.00    +0.052 HD
ATOM    150  H   UNL     1     148.575 170.610 186.194  0.00  0.00    +0.052 HD
ENDBRANCH 146 147
ENDBRANCH   6 146
BRANCH   4 151
ATOM    151  O   UNL     1     146.166 173.017 185.920  0.00  0.00    -0.376 OA
BRANCH 151 152
ATOM    152  C   UNL     1     146.201 174.423 185.689  0.00  0.00    +0.037 C 
ATOM    153  H   UNL     1     146.861 174.915 186.410  0.00  0.00    +0.052 HD
ATOM    154  H   UNL     1     146.602 174.589 184.690  0.00  0.00    +0.052 HD
ATOM    155  H   UNL     1     145.199 174.853 185.745  0.00  0.00    +0.052 HD
ENDBRANCH 151 152
ENDBRANCH   4 151
TORSDOF 33
ENDMDL
MODEL 10
REMARK VINA RESULT:      -4.1      1.894      2.737
REMARK  Name = Reidispongiolide A_conf3
REMARK  33 active torsions:
REMARK  status: ('A' for Active; 'I' for Inactive)
REMARK    1  A    between atoms: C_1  and  C_2
REMARK    2  A    between atoms: C_5  and  O_67
REMARK    3  A    between atoms: C_7  and  O_65
REMARK    4  A    between atoms: C_8  and  C_64
REMARK    5  A    between atoms: C_17  and  O_62
REMARK    6  A    between atoms: C_19  and  C_61
REMARK    7  A    between atoms: C_26  and  C_38
REMARK    8  A    between atoms: C_27  and  C_37
REMARK    9  A    between atoms: C_30  and  O_35
REMARK   10  A    between atoms: C_32  and  O_33
REMARK   11  A    between atoms: O_33  and  C_34
REMARK   12  A    between atoms: O_35  and  C_36
REMARK   13  A    between atoms: C_38  and  C_39
REMARK   14  A    between atoms: C_38  and  C_40
REMARK   15  A    between atoms: C_40  and  C_41
REMARK   16  A    between atoms: C_40  and  O_59
REMARK   17  A    between atoms: C_41  and  C_42
REMARK   18  A    between atoms: C_41  and  C_43
REMARK   19  A    between atoms: C_43  and  C_44
REMARK   20  A    between atoms: C_44  and  C_45
REMARK   21  A    between atoms: C_45  and  C_47
REMARK   22  A    between atoms: C_47  and  C_48
REMARK   23  A    between atoms: C_47  and  C_49
REMARK   24  A    between atoms: C_49  and  C_50
REMARK   25  A    between atoms: C_49  and  O_57
REMARK   26  A    between atoms: C_50  and  C_51
REMARK   27  A    between atoms: C_52  and  N_53
REMARK   28  A    between atoms: N_53  and  C_54
REMARK   29  A    between atoms: O_57  and  C_58
REMARK   30  A    between atoms: O_59  and  C_60
REMARK   31  A    between atoms: O_62  and  C_63
REMARK   32  A    between atoms: O_65  and  C_66
REMARK   33  A    between atoms: O_67  and  C_68
REMARK                            x       y       z     vdW  Elec       q    Type
REMARK                         _______ _______ _______ _____ _____    ______ ____
ROOT
ATOM      1  C   UNL     1     143.741 171.487 189.742  0.00  0.00    +0.001 C 
ATOM      2  C   UNL     1     144.189 171.101 188.337  0.00  0.00    -0.080 C 
ATOM      3  C   UNL     1     144.466 171.955 187.335  0.00  0.00    -0.059 C 
ATOM      4  C   UNL     1     144.850 171.687 185.902  0.00  0.00    +0.079 C 
ATOM      5  C   UNL     1     144.835 170.235 185.386  0.00  0.00    +0.004 C 
ATOM      6  C   UNL     1     145.981 169.312 185.858  0.00  0.00    +0.067 C 
ATOM      7  C   UNL     1     145.651 167.797 185.694  0.00  0.00    +0.020 C 
ATOM      8  C   UNL     1     145.317 167.375 184.226  0.00  0.00    +0.112 C 
ATOM      9  C   UNL     1     146.527 167.007 183.340  0.00  0.00    +0.006 C 
ATOM     10  C   UNL     1     146.902 165.551 183.413  0.00  0.00    -0.057 C 
ATOM     11  C   UNL     1     146.030 164.662 183.919  0.00  0.00    +0.022 C 
ATOM     12  C   UNL     1     144.671 165.029 184.353  0.00  0.00    +0.332 C 
ATOM     13  O   UNL     1     143.886 164.179 184.756  0.00  0.00    -0.246 OA
ATOM     14  O   UNL     1     144.315 166.325 184.205  0.00  0.00    -0.458 OA
ATOM     15  C   UNL     1     148.174 165.099 182.707  0.00  0.00    -0.004 C 
ATOM     16  C   UNL     1     149.277 164.268 183.429  0.00  0.00    +0.066 C 
ATOM     17  C   UNL     1     150.369 165.115 184.135  0.00  0.00    -0.005 C 
ATOM     18  C   UNL     1     150.222 165.449 185.610  0.00  0.00    -0.070 C 
ATOM     19  C   UNL     1     151.249 165.240 186.463  0.00  0.00    -0.062 C 
ATOM     20  C   UNL     1     151.242 165.550 187.878  0.00  0.00    -0.055 C 
ATOM     21  C   UNL     1     151.074 166.790 188.361  0.00  0.00    +0.023 C 
ATOM     22  C   UNL     1     150.918 166.984 189.811  0.00  0.00    +0.332 C 
ATOM     23  O   UNL     1     151.331 166.221 190.672  0.00  0.00    -0.246 OA
ATOM     24  O   UNL     1     150.167 168.093 190.004  0.00  0.00    -0.457 OA
ATOM     25  C   UNL     1     149.487 168.188 191.276  0.00  0.00    +0.114 C 
ATOM     26  C   UNL     1     149.673 169.605 191.906  0.00  0.00    +0.012 C 
ATOM     27  C   UNL     1     148.850 170.721 191.304  0.00  0.00    -0.079 C 
ATOM     28  C   UNL     1     147.945 171.430 192.010  0.00  0.00    -0.059 C 
ATOM     29  C   UNL     1     147.145 172.584 191.474  0.00  0.00    +0.079 C 
ATOM     30  C   UNL     1     146.143 172.247 190.353  0.00  0.00    +0.004 C 
ATOM     31  C   UNL     1     144.885 171.479 190.804  0.00  0.00    +0.067 C 
ATOM     32  H   UNL     1     143.019 170.707 190.034  0.00  0.00    +0.037 HD
ATOM     33  H   UNL     1     144.263 170.030 188.177  0.00  0.00    +0.057 HD
ATOM     34  H   UNL     1     144.404 173.022 187.541  0.00  0.00    +0.059 HD
ATOM     35  H   UNL     1     144.090 172.228 185.315  0.00  0.00    +0.064 HD
ATOM     36  H   UNL     1     144.882 170.293 184.294  0.00  0.00    +0.032 HD
ATOM     37  H   UNL     1     143.861 169.805 185.636  0.00  0.00    +0.032 HD
ATOM     38  H   UNL     1     146.182 169.503 186.919  0.00  0.00    +0.060 HD
ATOM     39  H   UNL     1     146.544 167.242 185.991  0.00  0.00    +0.036 HD
ATOM     40  H   UNL     1     144.821 168.216 183.730  0.00  0.00    +0.074 HD
ATOM     41  H   UNL     1     147.389 167.636 183.579  0.00  0.00    +0.035 HD
ATOM     42  H   UNL     1     146.265 167.217 182.294  0.00  0.00    +0.035 HD
ATOM     43  H   UNL     1     146.231 163.595 183.935  0.00  0.00    +0.069 HD
ATOM     44  H   UNL     1     148.646 165.962 182.213  0.00  0.00    +0.034 HD
ATOM     45  H   UNL     1     147.822 164.470 181.870  0.00  0.00    +0.034 HD
ATOM     46  H   UNL     1     149.793 163.755 182.604  0.00  0.00    +0.060 HD
ATOM     47  H   UNL     1     150.515 166.055 183.582  0.00  0.00    +0.034 HD
ATOM     48  H   UNL     1     151.311 164.564 184.009  0.00  0.00    +0.034 HD
ATOM     49  H   UNL     1     152.169 164.774 186.108  0.00  0.00    +0.062 HD
ATOM     50  H   UNL     1     151.370 164.704 188.552  0.00  0.00    +0.062 HD
ATOM     51  H   UNL     1     150.943 167.656 187.727  0.00  0.00    +0.069 HD
ATOM     52  H   UNL     1     149.979 167.521 191.993  0.00  0.00    +0.074 HD
ATOM     53  H   UNL     1     149.374 169.495 192.958  0.00  0.00    +0.038 HD
ATOM     54  H   UNL     1     149.031 170.964 190.256  0.00  0.00    +0.057 HD
ATOM     55  H   UNL     1     147.795 171.189 193.064  0.00  0.00    +0.059 HD
ATOM     56  H   UNL     1     147.855 173.327 191.081  0.00  0.00    +0.064 HD
ATOM     57  H   UNL     1     146.668 171.698 189.561  0.00  0.00    +0.032 HD
ATOM     58  H   UNL     1     145.822 173.208 189.930  0.00  0.00    +0.032 HD
ATOM     59  H   UNL     1     144.489 171.948 191.715  0.00  0.00    +0.060 HD
ENDROOT
BRANCH   1  60
ATOM     60  C   UNL     1     142.962 172.810 189.798  0.00  0.00    -0.057 C 
ATOM     61  H   UNL     1     143.653 173.660 189.803  0.00  0.00    +0.024 HD
ATOM     62  H   UNL     1     142.362 172.874 190.711  0.00  0.00    +0.024 HD
ATOM     63  H   UNL     1     142.292 172.938 188.945  0.00  0.00    +0.024 HD
ENDBRANCH   1  60
BRANCH  26  64
ATOM     64  C   UNL     1     151.155 170.006 191.891  0.00  0.00    -0.056 C 
ATOM     65  H   UNL     1     151.648 169.672 190.969  0.00  0.00    +0.024 HD
ATOM     66  H   UNL     1     151.689 169.569 192.738  0.00  0.00    +0.024 HD
ATOM     67  H   UNL     1     151.261 171.091 191.965  0.00  0.00    +0.024 HD
ENDBRANCH  26  64
BRANCH  18  68
ATOM     68  C   UNL     1     148.900 166.028 186.017  0.00  0.00    -0.043 C 
ATOM     69  H   UNL     1     148.959 167.118 186.062  0.00  0.00    +0.027 HD
ATOM     70  H   UNL     1     148.081 165.803 185.332  0.00  0.00    +0.027 HD
ATOM     71  H   UNL     1     148.631 165.626 186.994  0.00  0.00    +0.027 HD
ENDBRANCH  18  68
BRANCH   7  72
ATOM     72  C   UNL     1     144.564 167.391 186.699  0.00  0.00    -0.057 C 
ATOM     73  H   UNL     1     144.397 166.313 186.674  0.00  0.00    +0.023 HD
ATOM     74  H   UNL     1     144.821 167.672 187.724  0.00  0.00    +0.023 HD
ATOM     75  H   UNL     1     143.610 167.861 186.445  0.00  0.00    +0.023 HD
ENDBRANCH   7  72
BRANCH  25  76
ATOM     76  C   UNL     1     148.000 167.718 191.099  0.00  0.00    +0.020 C 
ATOM     77  H   UNL     1     147.375 168.457 191.613  0.00  0.00    +0.036 HD
BRANCH  76  78
ATOM     78  C   UNL     1     147.585 167.714 189.623  0.00  0.00    -0.057 C 
ATOM     79  H   UNL     1     148.202 167.049 189.014  0.00  0.00    +0.023 HD
ATOM     80  H   UNL     1     146.538 167.425 189.519  0.00  0.00    +0.023 HD
ATOM     81  H   UNL     1     147.658 168.706 189.173  0.00  0.00    +0.023 HD
ENDBRANCH  76  78
BRANCH  76  82
ATOM     82  C   UNL     1     147.783 166.349 191.838  0.00  0.00    +0.067 C 
ATOM     83  H   UNL     1     148.146 166.451 192.866  0.00  0.00    +0.060 HD
BRANCH  82  84
ATOM     84  C   UNL     1     148.478 165.056 191.313  0.00  0.00    -0.017 C 
ATOM     85  H   UNL     1     149.388 165.361 190.783  0.00  0.00    +0.032 HD
BRANCH  84  86
ATOM     86  C   UNL     1     148.965 164.223 192.513  0.00  0.00    -0.060 C 
ATOM     87  H   UNL     1     148.144 164.058 193.218  0.00  0.00    +0.023 HD
ATOM     88  H   UNL     1     149.762 164.743 193.060  0.00  0.00    +0.023 HD
ATOM     89  H   UNL     1     149.352 163.243 192.205  0.00  0.00    +0.023 HD
ENDBRANCH  84  86
BRANCH  84  90
ATOM     90  C   UNL     1     147.697 164.129 190.352  0.00  0.00    -0.041 C 
ATOM     91  H   UNL     1     146.911 164.724 189.867  0.00  0.00    +0.027 HD
ATOM     92  H   UNL     1     147.143 163.387 190.932  0.00  0.00    +0.027 HD
BRANCH  90  93
ATOM     93  C   UNL     1     148.497 163.404 189.271  0.00  0.00    +0.007 C 
ATOM     94  H   UNL     1     149.490 163.841 189.139  0.00  0.00    +0.034 HD
ATOM     95  H   UNL     1     147.977 163.466 188.307  0.00  0.00    +0.034 HD
BRANCH  93  96
ATOM     96  C   UNL     1     148.671 161.923 189.585  0.00  0.00    +0.139 C 
ATOM     97  O   UNL     1     147.911 161.376 190.391  0.00  0.00    -0.297 OA
BRANCH  96  98
ATOM     98  C   UNL     1     149.818 161.163 188.906  0.00  0.00    +0.041 C 
ATOM     99  H   UNL     1     150.190 161.838 188.132  0.00  0.00    +0.040 HD
BRANCH  98 100
ATOM    100  C   UNL     1     149.329 159.903 188.187  0.00  0.00    -0.053 C 
ATOM    101  H   UNL     1     150.157 159.295 187.808  0.00  0.00    +0.024 HD
ATOM    102  H   UNL     1     148.755 159.269 188.872  0.00  0.00    +0.024 HD
ATOM    103  H   UNL     1     148.664 160.158 187.353  0.00  0.00    +0.024 HD
ENDBRANCH  98 100
BRANCH  98 104
ATOM    104  C   UNL     1     151.000 160.896 189.871  0.00  0.00    +0.071 C 
ATOM    105  H   UNL     1     151.895 160.600 189.309  0.00  0.00    +0.061 HD
BRANCH 104 106
ATOM    106  C   UNL     1     151.391 162.065 190.809  0.00  0.00    -0.006 C 
ATOM    107  H   UNL     1     150.526 162.724 190.957  0.00  0.00    +0.033 HD
ATOM    108  H   UNL     1     151.587 161.645 191.804  0.00  0.00    +0.033 HD
BRANCH 106 109
ATOM    109  C   UNL     1     152.612 162.843 190.397  0.00  0.00    -0.067 C 
ATOM    110  C   UNL     1     153.598 162.316 189.658  0.00  0.00    -0.005 C 
ATOM    111  H   UNL     1     152.628 163.877 190.736  0.00  0.00    +0.059 HD
ATOM    112  H   UNL     1     153.498 161.289 189.311  0.00  0.00    +0.078 HD
BRANCH 110 113
ATOM    113  N   UNL     1     154.771 162.938 189.264  0.00  0.00    -0.284 N 
ATOM    114  C   UNL     1     156.016 162.763 189.865  0.00  0.00    +0.206 C 
ATOM    115  O   UNL     1     157.059 163.313 189.521  0.00  0.00    -0.279 OA
ATOM    116  H   UNL     1     156.015 162.057 190.704  0.00  0.00    +0.126 HD
BRANCH 113 117
ATOM    117  C   UNL     1     154.703 163.816 188.099  0.00  0.00    +0.007 C 
ATOM    118  H   UNL     1     154.211 163.269 187.285  0.00  0.00    +0.043 HD
ATOM    119  H   UNL     1     155.693 164.131 187.759  0.00  0.00    +0.043 HD
ATOM    120  H   UNL     1     154.118 164.709 188.348  0.00  0.00    +0.043 HD
ENDBRANCH 113 117
ENDBRANCH 110 113
ENDBRANCH 106 109
ENDBRANCH 104 106
BRANCH 104 121
ATOM    121  O   UNL     1     150.635 159.811 190.755  0.00  0.00    -0.379 OA
BRANCH 121 122
ATOM    122  C   UNL     1     151.736 158.980 191.115  0.00  0.00    +0.037 C 
ATOM    123  H   UNL     1     151.710 158.081 190.491  0.00  0.00    +0.052 HD
ATOM    124  H   UNL     1     152.683 159.493 190.942  0.00  0.00    +0.052 HD
ATOM    125  H   UNL     1     151.660 158.681 192.165  0.00  0.00    +0.052 HD
ENDBRANCH 121 122
ENDBRANCH 104 121
ENDBRANCH  98 104
ENDBRANCH  96  98
ENDBRANCH  93  96
ENDBRANCH  90  93
ENDBRANCH  84  90
ENDBRANCH  82  84
BRANCH  82 126
ATOM    126  O   UNL     1     146.365 166.100 191.913  0.00  0.00    -0.379 OA
BRANCH 126 127
ATOM    127  C   UNL     1     145.839 166.228 193.231  0.00  0.00    +0.037 C 
ATOM    128  H   UNL     1     146.554 165.843 193.965  0.00  0.00    +0.052 HD
ATOM    129  H   UNL     1     145.592 167.271 193.450  0.00  0.00    +0.052 HD
ATOM    130  H   UNL     1     144.922 165.631 193.296  0.00  0.00    +0.052 HD
ENDBRANCH 126 127
ENDBRANCH  82 126
ENDBRANCH  76  82
ENDBRANCH  25  76
BRANCH  31 131
ATOM    131  O   UNL     1     145.243 170.114 191.083  0.00  0.00    -0.379 OA
BRANCH 131 132
ATOM    132  C   UNL     1     144.119 169.240 191.018  0.00  0.00    +0.037 C 
ATOM    133  H   UNL     1     143.437 169.432 191.852  0.00  0.00    +0.052 HD
ATOM    134  H   UNL     1     143.591 169.426 190.078  0.00  0.00    +0.052 HD
ATOM    135  H   UNL     1     144.449 168.195 191.033  0.00  0.00    +0.052 HD
ENDBRANCH 131 132
ENDBRANCH  31 131
BRANCH  29 136
ATOM    136  O   UNL     1     146.421 173.142 192.585  0.00  0.00    -0.376 OA
BRANCH 136 137
ATOM    137  C   UNL     1     147.265 173.552 193.653  0.00  0.00    +0.037 C 
ATOM    138  H   UNL     1     146.899 174.485 194.096  0.00  0.00    +0.052 HD
ATOM    139  H   UNL     1     147.246 172.770 194.421  0.00  0.00    +0.052 HD
ATOM    140  H   UNL     1     148.294 173.672 193.305  0.00  0.00    +0.052 HD
ENDBRANCH 136 137
ENDBRANCH  29 136
BRANCH  16 141
ATOM    141  O   UNL     1     148.693 163.259 184.257  0.00  0.00    -0.379 OA
BRANCH 141 142
ATOM    142  C   UNL     1     148.782 161.948 183.717  0.00  0.00    +0.037 C 
ATOM    143  H   UNL     1     149.634 161.445 184.188  0.00  0.00    +0.052 HD
ATOM    144  H   UNL     1     148.946 161.968 182.635  0.00  0.00    +0.052 HD
ATOM    145  H   UNL     1     147.872 161.382 183.952  0.00  0.00    +0.052 HD
ENDBRANCH 141 142
ENDBRANCH  16 141
BRANCH   6 146
ATOM    146  O   UNL     1     147.154 169.597 185.086  0.00  0.00    -0.379 OA
BRANCH 146 147
ATOM    147  C   UNL     1     148.355 169.429 185.835  0.00  0.00    +0.037 C 
ATOM    148  H   UNL     1     149.177 169.151 185.170  0.00  0.00    +0.052 HD
ATOM    149  H   UNL     1     148.233 168.663 186.610  0.00  0.00    +0.052 HD
ATOM    150  H   UNL     1     148.599 170.379 186.321  0.00  0.00    +0.052 HD
ENDBRANCH 146 147
ENDBRANCH   6 146
BRANCH   4 151
ATOM    151  O   UNL     1     146.112 172.334 185.715  0.00  0.00    -0.376 OA
BRANCH 151 152
ATOM    152  C   UNL     1     146.147 173.662 186.227  0.00  0.00    +0.037 C 
ATOM    153  H   UNL     1     146.889 173.748 187.027  0.00  0.00    +0.052 HD
ATOM    154  H   UNL     1     146.441 174.328 185.416  0.00  0.00    +0.052 HD
ATOM    155  H   UNL     1     145.163 173.966 186.594  0.00  0.00    +0.052 HD
ENDBRANCH 151 152
ENDBRANCH   4 151
TORSDOF 33
ENDMDL
