MODEL 1
REMARK VINA RESULT:      -4.9      0.000      0.000
REMARK  Name = Reidispongiolide A_conf1
REMARK  33 active torsions:
REMARK  status: ('A' for Active; 'I' for Inactive)
REMARK    1  A    between atoms: C_1  and  C_2
REMARK    2  A    between atoms: C_5  and  O_67
REMARK    3  A    between atoms: C_7  and  O_65
REMARK    4  A    between atoms: C_8  and  C_64
REMARK    5  A    between atoms: C_17  and  O_62
REMARK    6  A    between atoms: C_19  and  C_61
REMARK    7  A    between atoms: C_26  and  C_38
REMARK    8  A    between atoms: C_27  and  C_37
REMARK    9  A    between atoms: C_30  and  O_35
REMARK   10  A    between atoms: C_32  and  O_33
REMARK   11  A    between atoms: O_33  and  C_34
REMARK   12  A    between atoms: O_35  and  C_36
REMARK   13  A    between atoms: C_38  and  C_39
REMARK   14  A    between atoms: C_38  and  C_40
REMARK   15  A    between atoms: C_40  and  C_41
REMARK   16  A    between atoms: C_40  and  O_59
REMARK   17  A    between atoms: C_41  and  C_42
REMARK   18  A    between atoms: C_41  and  C_43
REMARK   19  A    between atoms: C_43  and  C_44
REMARK   20  A    between atoms: C_44  and  C_45
REMARK   21  A    between atoms: C_45  and  C_47
REMARK   22  A    between atoms: C_47  and  C_48
REMARK   23  A    between atoms: C_47  and  C_49
REMARK   24  A    between atoms: C_49  and  C_50
REMARK   25  A    between atoms: C_49  and  O_57
REMARK   26  A    between atoms: C_50  and  C_51
REMARK   27  A    between atoms: C_52  and  N_53
REMARK   28  A    between atoms: N_53  and  C_54
REMARK   29  A    between atoms: O_57  and  C_58
REMARK   30  A    between atoms: O_59  and  C_60
REMARK   31  A    between atoms: O_62  and  C_63
REMARK   32  A    between atoms: O_65  and  C_66
REMARK   33  A    between atoms: O_67  and  C_68
REMARK                            x       y       z     vdW  Elec       q    Type
REMARK                         _______ _______ _______ _____ _____    ______ ____
ROOT
ATOM      1  C   UNL     1     142.642 169.711 189.754  0.00  0.00    +0.001 C 
ATOM      2  C   UNL     1     143.059 168.886 190.958  0.00  0.00    -0.080 C 
ATOM      3  C   UNL     1     143.887 167.830 190.900  0.00  0.00    -0.059 C 
ATOM      4  C   UNL     1     144.254 166.983 192.088  0.00  0.00    +0.079 C 
ATOM      5  C   UNL     1     145.562 166.191 191.911  0.00  0.00    +0.004 C 
ATOM      6  C   UNL     1     146.833 167.060 191.806  0.00  0.00    +0.067 C 
ATOM      7  C   UNL     1     147.982 166.591 192.758  0.00  0.00    +0.020 C 
ATOM      8  C   UNL     1     148.361 165.079 192.654  0.00  0.00    +0.112 C 
ATOM      9  C   UNL     1     149.084 164.635 191.374  0.00  0.00    +0.006 C 
ATOM     10  C   UNL     1     150.560 164.930 191.424  0.00  0.00    -0.057 C 
ATOM     11  C   UNL     1     151.164 165.112 192.608  0.00  0.00    +0.022 C 
ATOM     12  C   UNL     1     150.458 164.940 193.887  0.00  0.00    +0.332 C 
ATOM     13  O   UNL     1     151.064 164.983 194.949  0.00  0.00    -0.246 OA
ATOM     14  O   UNL     1     149.130 164.685 193.818  0.00  0.00    -0.458 OA
ATOM     15  C   UNL     1     151.329 164.986 190.119  0.00  0.00    -0.004 C 
ATOM     16  C   UNL     1     151.355 163.634 189.359  0.00  0.00    +0.066 C 
ATOM     17  C   UNL     1     151.940 163.787 187.929  0.00  0.00    -0.005 C 
ATOM     18  C   UNL     1     151.169 164.609 186.899  0.00  0.00    -0.070 C 
ATOM     19  C   UNL     1     149.892 164.984 187.088  0.00  0.00    -0.062 C 
ATOM     20  C   UNL     1     149.076 165.867 186.300  0.00  0.00    -0.055 C 
ATOM     21  C   UNL     1     148.647 165.677 185.042  0.00  0.00    +0.023 C 
ATOM     22  C   UNL     1     147.600 166.546 184.450  0.00  0.00    +0.332 C 
ATOM     23  O   UNL     1     146.970 166.249 183.449  0.00  0.00    -0.246 OA
ATOM     24  O   UNL     1     147.388 167.625 185.236  0.00  0.00    -0.457 OA
ATOM     25  C   UNL     1     146.131 168.353 185.131  0.00  0.00    +0.114 C 
ATOM     26  C   UNL     1     145.047 167.480 185.861  0.00  0.00    +0.012 C 
ATOM     27  C   UNL     1     143.625 167.998 185.762  0.00  0.00    -0.079 C 
ATOM     28  C   UNL     1     142.719 168.021 186.758  0.00  0.00    -0.059 C 
ATOM     29  C   UNL     1     141.298 168.531 186.718  0.00  0.00    +0.079 C 
ATOM     30  C   UNL     1     141.036 169.658 187.743  0.00  0.00    +0.004 C 
ATOM     31  C   UNL     1     141.259 169.226 189.212  0.00  0.00    +0.067 C 
ATOM     32  H   UNL     1     143.397 169.572 188.973  0.00  0.00    +0.037 HD
ATOM     33  H   UNL     1     142.605 169.160 191.910  0.00  0.00    +0.057 HD
ATOM     34  H   UNL     1     144.299 167.517 189.947  0.00  0.00    +0.059 HD
ATOM     35  H   UNL     1     144.342 167.609 192.989  0.00  0.00    +0.064 HD
ATOM     36  H   UNL     1     145.475 165.532 191.038  0.00  0.00    +0.032 HD
ATOM     37  H   UNL     1     145.615 165.519 192.775  0.00  0.00    +0.032 HD
ATOM     38  H   UNL     1     146.577 168.097 192.062  0.00  0.00    +0.060 HD
ATOM     39  H   UNL     1     148.886 167.167 192.524  0.00  0.00    +0.036 HD
ATOM     40  H   UNL     1     147.446 164.481 192.720  0.00  0.00    +0.074 HD
ATOM     41  H   UNL     1     148.630 165.079 190.487  0.00  0.00    +0.035 HD
ATOM     42  H   UNL     1     148.974 163.546 191.270  0.00  0.00    +0.035 HD
ATOM     43  H   UNL     1     152.227 165.312 192.693  0.00  0.00    +0.069 HD
ATOM     44  H   UNL     1     150.880 165.778 189.510  0.00  0.00    +0.034 HD
ATOM     45  H   UNL     1     152.363 165.298 190.317  0.00  0.00    +0.034 HD
ATOM     46  H   UNL     1     150.346 163.209 189.308  0.00  0.00    +0.060 HD
ATOM     47  H   UNL     1     152.948 164.215 188.037  0.00  0.00    +0.034 HD
ATOM     48  H   UNL     1     152.099 162.788 187.501  0.00  0.00    +0.034 HD
ATOM     49  H   UNL     1     149.372 164.692 188.002  0.00  0.00    +0.062 HD
ATOM     50  H   UNL     1     148.708 166.709 186.883  0.00  0.00    +0.062 HD
ATOM     51  H   UNL     1     148.932 164.815 184.452  0.00  0.00    +0.069 HD
ATOM     52  H   UNL     1     145.876 168.457 184.070  0.00  0.00    +0.074 HD
ATOM     53  H   UNL     1     145.029 166.517 185.327  0.00  0.00    +0.038 HD
ATOM     54  H   UNL     1     143.318 168.350 184.779  0.00  0.00    +0.057 HD
ATOM     55  H   UNL     1     142.992 167.599 187.721  0.00  0.00    +0.059 HD
ATOM     56  H   UNL     1     140.645 167.676 186.946  0.00  0.00    +0.064 HD
ATOM     57  H   UNL     1     141.663 170.523 187.492  0.00  0.00    +0.032 HD
ATOM     58  H   UNL     1     140.012 170.024 187.603  0.00  0.00    +0.032 HD
ATOM     59  H   UNL     1     141.205 168.131 189.289  0.00  0.00    +0.060 HD
ENDROOT
BRANCH   1  60
ATOM     60  C   UNL     1     142.648 171.196 190.141  0.00  0.00    -0.057 C 
ATOM     61  H   UNL     1     143.167 171.370 191.090  0.00  0.00    +0.024 HD
ATOM     62  H   UNL     1     143.158 171.791 189.377  0.00  0.00    +0.024 HD
ATOM     63  H   UNL     1     141.631 171.586 190.241  0.00  0.00    +0.024 HD
ENDBRANCH   1  60
BRANCH  26  64
ATOM     64  C   UNL     1     145.478 167.128 187.297  0.00  0.00    -0.056 C 
ATOM     65  H   UNL     1     145.349 166.067 187.519  0.00  0.00    +0.024 HD
ATOM     66  H   UNL     1     146.530 167.380 187.475  0.00  0.00    +0.024 HD
ATOM     67  H   UNL     1     144.865 167.657 188.036  0.00  0.00    +0.024 HD
ENDBRANCH  26  64
BRANCH  18  68
ATOM     68  C   UNL     1     151.994 164.982 185.694  0.00  0.00    -0.043 C 
ATOM     69  H   UNL     1     151.966 166.067 185.545  0.00  0.00    +0.027 HD
ATOM     70  H   UNL     1     151.587 164.505 184.794  0.00  0.00    +0.027 HD
ATOM     71  H   UNL     1     153.042 164.688 185.774  0.00  0.00    +0.027 HD
ENDBRANCH  18  68
BRANCH   7  72
ATOM     72  C   UNL     1     147.602 166.976 194.201  0.00  0.00    -0.057 C 
ATOM     73  H   UNL     1     146.576 166.664 194.426  0.00  0.00    +0.023 HD
ATOM     74  H   UNL     1     148.268 166.511 194.933  0.00  0.00    +0.023 HD
ATOM     75  H   UNL     1     147.641 168.060 194.351  0.00  0.00    +0.023 HD
ENDBRANCH   7  72
BRANCH  25  76
ATOM     76  C   UNL     1     146.438 169.762 185.728  0.00  0.00    +0.020 C 
ATOM     77  H   UNL     1     146.041 169.770 186.753  0.00  0.00    +0.036 HD
BRANCH  76  78
ATOM     78  C   UNL     1     147.957 169.938 185.931  0.00  0.00    -0.057 C 
ATOM     79  H   UNL     1     148.353 170.680 185.230  0.00  0.00    +0.023 HD
ATOM     80  H   UNL     1     148.513 169.015 185.749  0.00  0.00    +0.023 HD
ATOM     81  H   UNL     1     148.191 170.296 186.936  0.00  0.00    +0.023 HD
ENDBRANCH  76  78
BRANCH  76  82
ATOM     82  C   UNL     1     145.779 170.969 185.006  0.00  0.00    +0.067 C 
ATOM     83  H   UNL     1     146.591 171.641 184.709  0.00  0.00    +0.060 HD
BRANCH  82  84
ATOM     84  C   UNL     1     144.734 171.819 185.798  0.00  0.00    -0.017 C 
ATOM     85  H   UNL     1     145.005 172.875 185.701  0.00  0.00    +0.032 HD
BRANCH  84  86
ATOM     86  C   UNL     1     143.369 171.637 185.107  0.00  0.00    -0.060 C 
ATOM     87  H   UNL     1     143.274 172.291 184.236  0.00  0.00    +0.023 HD
ATOM     88  H   UNL     1     143.222 170.607 184.770  0.00  0.00    +0.023 HD
ATOM     89  H   UNL     1     142.549 171.906 185.776  0.00  0.00    +0.023 HD
ENDBRANCH  84  86
BRANCH  84  90
ATOM     90  C   UNL     1     144.646 171.466 187.306  0.00  0.00    -0.041 C 
ATOM     91  H   UNL     1     144.668 170.379 187.423  0.00  0.00    +0.027 HD
ATOM     92  H   UNL     1     143.673 171.800 187.688  0.00  0.00    +0.027 HD
BRANCH  90  93
ATOM     93  C   UNL     1     145.707 172.060 188.235  0.00  0.00    +0.007 C 
ATOM     94  H   UNL     1     145.211 172.832 188.844  0.00  0.00    +0.034 HD
ATOM     95  H   UNL     1     146.513 172.591 187.720  0.00  0.00    +0.034 HD
BRANCH  93  96
ATOM     96  C   UNL     1     146.300 171.078 189.230  0.00  0.00    +0.139 C 
ATOM     97  O   UNL     1     146.003 169.883 189.154  0.00  0.00    -0.297 OA
BRANCH  96  98
ATOM     98  C   UNL     1     147.223 171.621 190.318  0.00  0.00    +0.041 C 
ATOM     99  H   UNL     1     148.248 171.583 189.936  0.00  0.00    +0.040 HD
BRANCH  98 100
ATOM    100  C   UNL     1     147.143 170.696 191.531  0.00  0.00    -0.053 C 
ATOM    101  H   UNL     1     148.104 170.616 192.046  0.00  0.00    +0.024 HD
ATOM    102  H   UNL     1     146.828 169.692 191.227  0.00  0.00    +0.024 HD
ATOM    103  H   UNL     1     146.417 171.070 192.258  0.00  0.00    +0.024 HD
ENDBRANCH  98 100
BRANCH  98 104
ATOM    104  C   UNL     1     146.912 173.096 190.684  0.00  0.00    +0.071 C 
ATOM    105  H   UNL     1     146.497 173.566 189.780  0.00  0.00    +0.061 HD
BRANCH 104 106
ATOM    106  C   UNL     1     145.884 173.239 191.833  0.00  0.00    -0.006 C 
ATOM    107  H   UNL     1     145.603 172.252 192.220  0.00  0.00    +0.033 HD
ATOM    108  H   UNL     1     146.356 173.743 192.686  0.00  0.00    +0.033 HD
BRANCH 106 109
ATOM    109  C   UNL     1     144.634 173.981 191.428  0.00  0.00    -0.067 C 
ATOM    110  C   UNL     1     143.737 174.441 192.312  0.00  0.00    -0.005 C 
ATOM    111  H   UNL     1     144.497 174.120 190.362  0.00  0.00    +0.059 HD
ATOM    112  H   UNL     1     143.911 174.257 193.373  0.00  0.00    +0.078 HD
BRANCH 110 113
ATOM    113  N   UNL     1     142.581 175.158 192.044  0.00  0.00    -0.284 N 
ATOM    114  C   UNL     1     141.318 174.608 191.843  0.00  0.00    +0.206 C 
ATOM    115  O   UNL     1     140.296 175.225 191.563  0.00  0.00    -0.279 OA
ATOM    116  H   UNL     1     141.284 173.515 191.954  0.00  0.00    +0.126 HD
BRANCH 113 117
ATOM    117  C   UNL     1     142.705 176.608 191.943  0.00  0.00    +0.007 C 
ATOM    118  H   UNL     1     143.528 176.937 192.589  0.00  0.00    +0.043 HD
ATOM    119  H   UNL     1     142.921 176.885 190.904  0.00  0.00    +0.043 HD
ATOM    120  H   UNL     1     141.793 177.126 192.255  0.00  0.00    +0.043 HD
ENDBRANCH 113 117
ENDBRANCH 110 113
ENDBRANCH 106 109
ENDBRANCH 104 106
BRANCH 104 121
ATOM    121  O   UNL     1     148.129 173.771 191.023  0.00  0.00    -0.379 OA
BRANCH 121 122
ATOM    122  C   UNL     1     148.332 173.935 192.419  0.00  0.00    +0.037 C 
ATOM    123  H   UNL     1     147.390 173.873 192.969  0.00  0.00    +0.052 HD
ATOM    124  H   UNL     1     148.824 174.889 192.623  0.00  0.00    +0.052 HD
ATOM    125  H   UNL     1     148.986 173.130 192.765  0.00  0.00    +0.052 HD
ENDBRANCH 121 122
ENDBRANCH 104 121
ENDBRANCH  98 104
ENDBRANCH  96  98
ENDBRANCH  93  96
ENDBRANCH  90  93
ENDBRANCH  84  90
ENDBRANCH  82  84
BRANCH  82 126
ATOM    126  O   UNL     1     145.142 170.504 183.800  0.00  0.00    -0.379 OA
BRANCH 126 127
ATOM    127  C   UNL     1     145.836 170.871 182.618  0.00  0.00    +0.037 C 
ATOM    128  H   UNL     1     145.162 171.414 181.949  0.00  0.00    +0.052 HD
ATOM    129  H   UNL     1     146.717 171.480 182.848  0.00  0.00    +0.052 HD
ATOM    130  H   UNL     1     146.163 169.957 182.112  0.00  0.00    +0.052 HD
ENDBRANCH 126 127
ENDBRANCH  82 126
ENDBRANCH  76  82
ENDBRANCH  25  76
BRANCH  31 131
ATOM    131  O   UNL     1     140.222 169.784 190.043  0.00  0.00    -0.379 OA
BRANCH 131 132
ATOM    132  C   UNL     1     139.094 170.234 189.302  0.00  0.00    +0.037 C 
ATOM    133  H   UNL     1     139.354 171.122 188.716  0.00  0.00    +0.052 HD
ATOM    134  H   UNL     1     138.251 170.455 189.962  0.00  0.00    +0.052 HD
ATOM    135  H   UNL     1     138.798 169.438 188.616  0.00  0.00    +0.052 HD
ENDBRANCH 131 132
ENDBRANCH  31 131
BRANCH  29 136
ATOM    136  O   UNL     1     141.015 169.016 185.401  0.00  0.00    -0.376 OA
BRANCH 136 137
ATOM    137  C   UNL     1     139.836 169.813 185.356  0.00  0.00    +0.037 C 
ATOM    138  H   UNL     1     139.782 170.377 184.420  0.00  0.00    +0.052 HD
ATOM    139  H   UNL     1     138.971 169.147 185.417  0.00  0.00    +0.052 HD
ATOM    140  H   UNL     1     139.802 170.495 186.213  0.00  0.00    +0.052 HD
ENDBRANCH 136 137
ENDBRANCH  29 136
BRANCH  16 141
ATOM    141  O   UNL     1     152.205 162.743 190.111  0.00  0.00    -0.379 OA
BRANCH 141 142
ATOM    142  C   UNL     1     151.571 161.513 190.435  0.00  0.00    +0.037 C 
ATOM    143  H   UNL     1     150.713 161.384 189.769  0.00  0.00    +0.052 HD
ATOM    144  H   UNL     1     152.266 160.684 190.275  0.00  0.00    +0.052 HD
ATOM    145  H   UNL     1     151.213 161.507 191.470  0.00  0.00    +0.052 HD
ENDBRANCH 141 142
ENDBRANCH  16 141
BRANCH   6 146
ATOM    146  O   UNL     1     147.267 167.025 190.437  0.00  0.00    -0.379 OA
BRANCH 146 147
ATOM    147  C   UNL     1     148.445 167.788 190.199  0.00  0.00    +0.037 C 
ATOM    148  H   UNL     1     149.305 167.177 190.478  0.00  0.00    +0.052 HD
ATOM    149  H   UNL     1     148.527 168.037 189.136  0.00  0.00    +0.052 HD
ATOM    150  H   UNL     1     148.458 168.698 190.803  0.00  0.00    +0.052 HD
ENDBRANCH 146 147
ENDBRANCH   6 146
BRANCH   4 151
ATOM    151  O   UNL     1     143.215 166.004 192.238  0.00  0.00    -0.376 OA
BRANCH 151 152
ATOM    152  C   UNL     1     142.152 166.455 193.068  0.00  0.00    +0.037 C 
ATOM    153  H   UNL     1     142.553 166.636 194.070  0.00  0.00    +0.052 HD
ATOM    154  H   UNL     1     141.364 165.698 193.141  0.00  0.00    +0.052 HD
ATOM    155  H   UNL     1     141.741 167.394 192.685  0.00  0.00    +0.052 HD
ENDBRANCH 151 152
ENDBRANCH   4 151
TORSDOF 33
ENDMDL
MODEL 2
REMARK VINA RESULT:      -4.8      4.459      8.212
REMARK  Name = Reidispongiolide A_conf1
REMARK  33 active torsions:
REMARK  status: ('A' for Active; 'I' for Inactive)
REMARK    1  A    between atoms: C_1  and  C_2
REMARK    2  A    between atoms: C_5  and  O_67
REMARK    3  A    between atoms: C_7  and  O_65
REMARK    4  A    between atoms: C_8  and  C_64
REMARK    5  A    between atoms: C_17  and  O_62
REMARK    6  A    between atoms: C_19  and  C_61
REMARK    7  A    between atoms: C_26  and  C_38
REMARK    8  A    between atoms: C_27  and  C_37
REMARK    9  A    between atoms: C_30  and  O_35
REMARK   10  A    between atoms: C_32  and  O_33
REMARK   11  A    between atoms: O_33  and  C_34
REMARK   12  A    between atoms: O_35  and  C_36
REMARK   13  A    between atoms: C_38  and  C_39
REMARK   14  A    between atoms: C_38  and  C_40
REMARK   15  A    between atoms: C_40  and  C_41
REMARK   16  A    between atoms: C_40  and  O_59
REMARK   17  A    between atoms: C_41  and  C_42
REMARK   18  A    between atoms: C_41  and  C_43
REMARK   19  A    between atoms: C_43  and  C_44
REMARK   20  A    between atoms: C_44  and  C_45
REMARK   21  A    between atoms: C_45  and  C_47
REMARK   22  A    between atoms: C_47  and  C_48
REMARK   23  A    between atoms: C_47  and  C_49
REMARK   24  A    between atoms: C_49  and  C_50
REMARK   25  A    between atoms: C_49  and  O_57
REMARK   26  A    between atoms: C_50  and  C_51
REMARK   27  A    between atoms: C_52  and  N_53
REMARK   28  A    between atoms: N_53  and  C_54
REMARK   29  A    between atoms: O_57  and  C_58
REMARK   30  A    between atoms: O_59  and  C_60
REMARK   31  A    between atoms: O_62  and  C_63
REMARK   32  A    between atoms: O_65  and  C_66
REMARK   33  A    between atoms: O_67  and  C_68
REMARK                            x       y       z     vdW  Elec       q    Type
REMARK                         _______ _______ _______ _____ _____    ______ ____
ROOT
ATOM      1  C   UNL     1     146.178 165.132 189.130  0.00  0.00    +0.001 C 
ATOM      2  C   UNL     1     145.356 163.868 188.961  0.00  0.00    -0.080 C 
ATOM      3  C   UNL     1     145.795 162.758 188.345  0.00  0.00    -0.059 C 
ATOM      4  C   UNL     1     144.958 161.526 188.133  0.00  0.00    +0.079 C 
ATOM      5  C   UNL     1     145.778 160.246 187.891  0.00  0.00    +0.004 C 
ATOM      6  C   UNL     1     146.623 159.784 189.097  0.00  0.00    +0.067 C 
ATOM      7  C   UNL     1     146.437 158.269 189.436  0.00  0.00    +0.020 C 
ATOM      8  C   UNL     1     146.638 157.286 188.238  0.00  0.00    +0.112 C 
ATOM      9  C   UNL     1     148.074 157.113 187.721  0.00  0.00    +0.006 C 
ATOM     10  C   UNL     1     148.866 156.144 188.557  0.00  0.00    -0.057 C 
ATOM     11  C   UNL     1     148.228 155.249 189.326  0.00  0.00    +0.022 C 
ATOM     12  C   UNL     1     146.764 155.105 189.316  0.00  0.00    +0.332 C 
ATOM     13  O   UNL     1     146.219 154.194 189.926  0.00  0.00    -0.246 OA
ATOM     14  O   UNL     1     146.072 155.992 188.564  0.00  0.00    -0.458 OA
ATOM     15  C   UNL     1     150.380 156.196 188.482  0.00  0.00    -0.004 C 
ATOM     16  C   UNL     1     150.940 155.852 187.078  0.00  0.00    +0.066 C 
ATOM     17  C   UNL     1     152.461 156.146 186.976  0.00  0.00    -0.005 C 
ATOM     18  C   UNL     1     152.944 157.592 187.062  0.00  0.00    -0.070 C 
ATOM     19  C   UNL     1     152.104 158.637 186.958  0.00  0.00    -0.062 C 
ATOM     20  C   UNL     1     152.363 160.037 187.158  0.00  0.00    -0.055 C 
ATOM     21  C   UNL     1     153.160 160.832 186.426  0.00  0.00    +0.023 C 
ATOM     22  C   UNL     1     153.127 162.307 186.588  0.00  0.00    +0.332 C 
ATOM     23  O   UNL     1     153.592 163.081 185.769  0.00  0.00    -0.246 OA
ATOM     24  O   UNL     1     152.425 162.640 187.694  0.00  0.00    -0.457 OA
ATOM     25  C   UNL     1     151.863 163.980 187.809  0.00  0.00    +0.114 C 
ATOM     26  C   UNL     1     150.602 164.017 186.871  0.00  0.00    +0.012 C 
ATOM     27  C   UNL     1     149.931 165.371 186.744  0.00  0.00    -0.079 C 
ATOM     28  C   UNL     1     148.604 165.600 186.735  0.00  0.00    -0.059 C 
ATOM     29  C   UNL     1     147.884 166.922 186.620  0.00  0.00    +0.079 C 
ATOM     30  C   UNL     1     146.958 167.209 187.825  0.00  0.00    +0.004 C 
ATOM     31  C   UNL     1     145.834 166.162 188.007  0.00  0.00    +0.067 C 
ATOM     32  H   UNL     1     147.236 164.859 189.049  0.00  0.00    +0.037 HD
ATOM     33  H   UNL     1     144.332 163.907 189.330  0.00  0.00    +0.057 HD
ATOM     34  H   UNL     1     146.796 162.731 187.926  0.00  0.00    +0.059 HD
ATOM     35  H   UNL     1     144.297 161.361 188.997  0.00  0.00    +0.064 HD
ATOM     36  H   UNL     1     146.415 160.381 187.007  0.00  0.00    +0.032 HD
ATOM     37  H   UNL     1     145.048 159.481 187.606  0.00  0.00    +0.032 HD
ATOM     38  H   UNL     1     146.334 160.371 189.980  0.00  0.00    +0.060 HD
ATOM     39  H   UNL     1     147.168 157.991 190.206  0.00  0.00    +0.036 HD
ATOM     40  H   UNL     1     146.040 157.636 187.391  0.00  0.00    +0.074 HD
ATOM     41  H   UNL     1     148.588 158.072 187.647  0.00  0.00    +0.035 HD
ATOM     42  H   UNL     1     148.031 156.702 186.701  0.00  0.00    +0.035 HD
ATOM     43  H   UNL     1     148.757 154.523 189.933  0.00  0.00    +0.069 HD
ATOM     44  H   UNL     1     150.688 157.198 188.801  0.00  0.00    +0.034 HD
ATOM     45  H   UNL     1     150.806 155.496 189.212  0.00  0.00    +0.034 HD
ATOM     46  H   UNL     1     150.398 156.411 186.306  0.00  0.00    +0.060 HD
ATOM     47  H   UNL     1     152.956 155.562 187.767  0.00  0.00    +0.034 HD
ATOM     48  H   UNL     1     152.842 155.727 186.034  0.00  0.00    +0.034 HD
ATOM     49  H   UNL     1     151.039 158.462 186.799  0.00  0.00    +0.062 HD
ATOM     50  H   UNL     1     151.728 160.461 187.934  0.00  0.00    +0.062 HD
ATOM     51  H   UNL     1     153.753 160.462 185.599  0.00  0.00    +0.069 HD
ATOM     52  H   UNL     1     152.611 164.702 187.462  0.00  0.00    +0.074 HD
ATOM     53  H   UNL     1     150.975 163.796 185.859  0.00  0.00    +0.038 HD
ATOM     54  H   UNL     1     150.601 166.220 186.616  0.00  0.00    +0.057 HD
ATOM     55  H   UNL     1     147.928 164.751 186.784  0.00  0.00    +0.059 HD
ATOM     56  H   UNL     1     147.280 166.878 185.702  0.00  0.00    +0.064 HD
ATOM     57  H   UNL     1     147.567 167.288 188.734  0.00  0.00    +0.032 HD
ATOM     58  H   UNL     1     146.531 168.212 187.705  0.00  0.00    +0.032 HD
ATOM     59  H   UNL     1     145.671 165.623 187.062  0.00  0.00    +0.060 HD
ENDROOT
BRANCH   1  60
ATOM     60  C   UNL     1     145.954 165.687 190.543  0.00  0.00    -0.057 C 
ATOM     61  H   UNL     1     146.137 164.931 191.315  0.00  0.00    +0.024 HD
ATOM     62  H   UNL     1     146.630 166.524 190.740  0.00  0.00    +0.024 HD
ATOM     63  H   UNL     1     144.930 166.051 190.670  0.00  0.00    +0.024 HD
ENDBRANCH   1  60
BRANCH  26  64
ATOM     64  C   UNL     1     149.625 162.871 187.192  0.00  0.00    -0.056 C 
ATOM     65  H   UNL     1     149.966 162.259 188.029  0.00  0.00    +0.024 HD
ATOM     66  H   UNL     1     148.627 163.249 187.439  0.00  0.00    +0.024 HD
ATOM     67  H   UNL     1     149.534 162.180 186.346  0.00  0.00    +0.024 HD
ENDBRANCH  26  64
BRANCH  18  68
ATOM     68  C   UNL     1     154.424 157.715 187.315  0.00  0.00    -0.043 C 
ATOM     69  H   UNL     1     154.789 156.821 187.833  0.00  0.00    +0.027 HD
ATOM     70  H   UNL     1     154.628 158.584 187.953  0.00  0.00    +0.027 HD
ATOM     71  H   UNL     1     155.014 157.832 186.404  0.00  0.00    +0.027 HD
ENDBRANCH  18  68
BRANCH   7  72
ATOM     72  C   UNL     1     145.053 158.084 190.086  0.00  0.00    -0.057 C 
ATOM     73  H   UNL     1     145.118 158.207 191.173  0.00  0.00    +0.023 HD
ATOM     74  H   UNL     1     144.326 158.808 189.705  0.00  0.00    +0.023 HD
ATOM     75  H   UNL     1     144.654 157.081 189.906  0.00  0.00    +0.023 HD
ENDBRANCH   7  72
BRANCH  25  76
ATOM     76  C   UNL     1     151.625 164.179 189.339  0.00  0.00    +0.020 C 
ATOM     77  H   UNL     1     150.538 164.176 189.498  0.00  0.00    +0.036 HD
BRANCH  76  78
ATOM     78  C   UNL     1     152.105 162.939 190.121  0.00  0.00    -0.057 C 
ATOM     79  H   UNL     1     151.252 162.316 190.410  0.00  0.00    +0.023 HD
ATOM     80  H   UNL     1     152.622 163.203 191.046  0.00  0.00    +0.023 HD
ATOM     81  H   UNL     1     152.765 162.312 189.517  0.00  0.00    +0.023 HD
ENDBRANCH  76  78
BRANCH  76  82
ATOM     82  C   UNL     1     152.141 165.514 189.943  0.00  0.00    +0.067 C 
ATOM     83  H   UNL     1     152.827 165.249 190.754  0.00  0.00    +0.060 HD
BRANCH  82  84
ATOM     84  C   UNL     1     151.090 166.513 190.524  0.00  0.00    -0.017 C 
ATOM     85  H   UNL     1     151.151 167.446 189.955  0.00  0.00    +0.032 HD
BRANCH  84  86
ATOM     86  C   UNL     1     149.692 165.918 190.267  0.00  0.00    -0.060 C 
ATOM     87  H   UNL     1     149.226 165.579 191.197  0.00  0.00    +0.023 HD
ATOM     88  H   UNL     1     149.022 166.648 189.804  0.00  0.00    +0.023 HD
ATOM     89  H   UNL     1     149.750 165.039 189.621  0.00  0.00    +0.023 HD
ENDBRANCH  84  86
BRANCH  84  90
ATOM     90  C   UNL     1     151.290 166.836 192.028  0.00  0.00    -0.041 C 
ATOM     91  H   UNL     1     150.437 167.420 192.387  0.00  0.00    +0.027 HD
ATOM     92  H   UNL     1     152.173 167.478 192.134  0.00  0.00    +0.027 HD
BRANCH  90  93
ATOM     93  C   UNL     1     151.489 165.659 192.985  0.00  0.00    +0.007 C 
ATOM     94  H   UNL     1     152.239 165.967 193.729  0.00  0.00    +0.034 HD
ATOM     95  H   UNL     1     151.913 164.764 192.519  0.00  0.00    +0.034 HD
BRANCH  93  96
ATOM     96  C   UNL     1     150.257 165.278 193.786  0.00  0.00    +0.139 C 
ATOM     97  O   UNL     1     149.658 164.233 193.520  0.00  0.00    -0.297 OA
BRANCH  96  98
ATOM     98  C   UNL     1     149.783 166.233 194.879  0.00  0.00    +0.041 C 
ATOM     99  H   UNL     1     150.385 167.145 194.810  0.00  0.00    +0.040 HD
BRANCH  98 100
ATOM    100  C   UNL     1     150.059 165.593 196.239  0.00  0.00    -0.053 C 
ATOM    101  H   UNL     1     151.128 165.447 196.411  0.00  0.00    +0.024 HD
ATOM    102  H   UNL     1     149.560 164.621 196.312  0.00  0.00    +0.024 HD
ATOM    103  H   UNL     1     149.685 166.225 197.049  0.00  0.00    +0.024 HD
ENDBRANCH  98 100
BRANCH  98 104
ATOM    104  C   UNL     1     148.295 166.639 194.715  0.00  0.00    +0.071 C 
ATOM    105  H   UNL     1     148.149 167.553 195.308  0.00  0.00    +0.061 HD
BRANCH 104 106
ATOM    106  C   UNL     1     147.897 166.931 193.247  0.00  0.00    -0.006 C 
ATOM    107  H   UNL     1     148.395 166.227 192.568  0.00  0.00    +0.033 HD
ATOM    108  H   UNL     1     146.826 166.730 193.112  0.00  0.00    +0.033 HD
BRANCH 106 109
ATOM    109  C   UNL     1     148.212 168.341 192.812  0.00  0.00    -0.067 C 
ATOM    110  C   UNL     1     147.902 168.818 191.597  0.00  0.00    -0.005 C 
ATOM    111  H   UNL     1     148.717 168.956 193.546  0.00  0.00    +0.059 HD
ATOM    112  H   UNL     1     147.412 168.150 190.886  0.00  0.00    +0.078 HD
BRANCH 110 113
ATOM    113  N   UNL     1     148.118 170.100 191.115  0.00  0.00    -0.284 N 
ATOM    114  C   UNL     1     149.080 170.988 191.587  0.00  0.00    +0.206 C 
ATOM    115  O   UNL     1     149.255 172.138 191.200  0.00  0.00    -0.279 OA
ATOM    116  H   UNL     1     149.718 170.575 192.382  0.00  0.00    +0.126 HD
BRANCH 113 117
ATOM    117  C   UNL     1     147.249 170.562 190.039  0.00  0.00    +0.007 C 
ATOM    118  H   UNL     1     146.597 171.353 190.428  0.00  0.00    +0.043 HD
ATOM    119  H   UNL     1     147.860 170.960 189.220  0.00  0.00    +0.043 HD
ATOM    120  H   UNL     1     146.619 169.761 189.639  0.00  0.00    +0.043 HD
ENDBRANCH 113 117
ENDBRANCH 110 113
ENDBRANCH 106 109
ENDBRANCH 104 106
BRANCH 104 121
ATOM    121  O   UNL     1     147.457 165.613 195.260  0.00  0.00    -0.379 OA
BRANCH 121 122
ATOM    122  C   UNL     1     146.219 165.454 194.581  0.00  0.00    +0.037 C 
ATOM    123  H   UNL     1     145.616 166.364 194.633  0.00  0.00    +0.052 HD
ATOM    124  H   UNL     1     145.663 164.610 194.996  0.00  0.00    +0.052 HD
ATOM    125  H   UNL     1     146.432 165.241 193.530  0.00  0.00    +0.052 HD
ENDBRANCH 121 122
ENDBRANCH 104 121
ENDBRANCH  98 104
ENDBRANCH  96  98
ENDBRANCH  93  96
ENDBRANCH  90  93
ENDBRANCH  84  90
ENDBRANCH  82  84
BRANCH  82 126
ATOM    126  O   UNL     1     152.907 166.216 188.944  0.00  0.00    -0.379 OA
BRANCH 126 127
ATOM    127  C   UNL     1     154.276 166.369 189.287  0.00  0.00    +0.037 C 
ATOM    128  H   UNL     1     154.471 165.880 190.246  0.00  0.00    +0.052 HD
ATOM    129  H   UNL     1     154.927 165.957 188.510  0.00  0.00    +0.052 HD
ATOM    130  H   UNL     1     154.486 167.437 189.394  0.00  0.00    +0.052 HD
ENDBRANCH 126 127
ENDBRANCH  82 126
ENDBRANCH  76  82
ENDBRANCH  25  76
BRANCH  31 131
ATOM    131  O   UNL     1     144.605 166.828 188.359  0.00  0.00    -0.379 OA
BRANCH 131 132
ATOM    132  C   UNL     1     144.630 168.225 188.092  0.00  0.00    +0.037 C 
ATOM    133  H   UNL     1     145.659 168.599 188.124  0.00  0.00    +0.052 HD
ATOM    134  H   UNL     1     144.010 168.774 188.805  0.00  0.00    +0.052 HD
ATOM    135  H   UNL     1     144.231 168.387 187.089  0.00  0.00    +0.052 HD
ENDBRANCH 131 132
ENDBRANCH  31 131
BRANCH  29 136
ATOM    136  O   UNL     1     148.852 167.972 186.510  0.00  0.00    -0.376 OA
BRANCH 136 137
ATOM    137  C   UNL     1     148.347 169.109 185.820  0.00  0.00    +0.037 C 
ATOM    138  H   UNL     1     147.291 168.975 185.566  0.00  0.00    +0.052 HD
ATOM    139  H   UNL     1     148.444 169.978 186.476  0.00  0.00    +0.052 HD
ATOM    140  H   UNL     1     148.933 169.300 184.913  0.00  0.00    +0.052 HD
ENDBRANCH 136 137
ENDBRANCH  29 136
BRANCH  16 141
ATOM    141  O   UNL     1     150.730 154.440 186.872  0.00  0.00    -0.379 OA
BRANCH 141 142
ATOM    142  C   UNL     1     151.527 153.630 187.727  0.00  0.00    +0.037 C 
ATOM    143  H   UNL     1     151.718 152.682 187.219  0.00  0.00    +0.052 HD
ATOM    144  H   UNL     1     152.484 154.124 187.919  0.00  0.00    +0.052 HD
ATOM    145  H   UNL     1     151.016 153.423 188.673  0.00  0.00    +0.052 HD
ENDBRANCH 141 142
ENDBRANCH  16 141
BRANCH   6 146
ATOM    146  O   UNL     1     147.998 160.068 188.795  0.00  0.00    -0.379 OA
BRANCH 146 147
ATOM    147  C   UNL     1     148.843 160.054 189.940  0.00  0.00    +0.037 C 
ATOM    148  H   UNL     1     148.535 160.870 190.597  0.00  0.00    +0.052 HD
ATOM    149  H   UNL     1     148.730 159.110 190.484  0.00  0.00    +0.052 HD
ATOM    150  H   UNL     1     149.889 160.209 189.665  0.00  0.00    +0.052 HD
ENDBRANCH 146 147
ENDBRANCH   6 146
BRANCH   4 151
ATOM    151  O   UNL     1     144.197 161.742 186.934  0.00  0.00    -0.376 OA
BRANCH 151 152
ATOM    152  C   UNL     1     145.018 161.898 185.784  0.00  0.00    +0.037 C 
ATOM    153  H   UNL     1     145.399 160.912 185.499  0.00  0.00    +0.052 HD
ATOM    154  H   UNL     1     145.870 162.551 185.997  0.00  0.00    +0.052 HD
ATOM    155  H   UNL     1     144.434 162.298 184.950  0.00  0.00    +0.052 HD
ENDBRANCH 151 152
ENDBRANCH   4 151
TORSDOF 33
ENDMDL
MODEL 3
REMARK VINA RESULT:      -4.8      2.850      6.124
REMARK  Name = Reidispongiolide A_conf1
REMARK  33 active torsions:
REMARK  status: ('A' for Active; 'I' for Inactive)
REMARK    1  A    between atoms: C_1  and  C_2
REMARK    2  A    between atoms: C_5  and  O_67
REMARK    3  A    between atoms: C_7  and  O_65
REMARK    4  A    between atoms: C_8  and  C_64
REMARK    5  A    between atoms: C_17  and  O_62
REMARK    6  A    between atoms: C_19  and  C_61
REMARK    7  A    between atoms: C_26  and  C_38
REMARK    8  A    between atoms: C_27  and  C_37
REMARK    9  A    between atoms: C_30  and  O_35
REMARK   10  A    between atoms: C_32  and  O_33
REMARK   11  A    between atoms: O_33  and  C_34
REMARK   12  A    between atoms: O_35  and  C_36
REMARK   13  A    between atoms: C_38  and  C_39
REMARK   14  A    between atoms: C_38  and  C_40
REMARK   15  A    between atoms: C_40  and  C_41
REMARK   16  A    between atoms: C_40  and  O_59
REMARK   17  A    between atoms: C_41  and  C_42
REMARK   18  A    between atoms: C_41  and  C_43
REMARK   19  A    between atoms: C_43  and  C_44
REMARK   20  A    between atoms: C_44  and  C_45
REMARK   21  A    between atoms: C_45  and  C_47
REMARK   22  A    between atoms: C_47  and  C_48
REMARK   23  A    between atoms: C_47  and  C_49
REMARK   24  A    between atoms: C_49  and  C_50
REMARK   25  A    between atoms: C_49  and  O_57
REMARK   26  A    between atoms: C_50  and  C_51
REMARK   27  A    between atoms: C_52  and  N_53
REMARK   28  A    between atoms: N_53  and  C_54
REMARK   29  A    between atoms: O_57  and  C_58
REMARK   30  A    between atoms: O_59  and  C_60
REMARK   31  A    between atoms: O_62  and  C_63
REMARK   32  A    between atoms: O_65  and  C_66
REMARK   33  A    between atoms: O_67  and  C_68
REMARK                            x       y       z     vdW  Elec       q    Type
REMARK                         _______ _______ _______ _____ _____    ______ ____
ROOT
ATOM      1  C   UNL     1     147.151 166.713 191.235  0.00  0.00    +0.001 C 
ATOM      2  C   UNL     1     148.308 165.742 191.390  0.00  0.00    -0.080 C 
ATOM      3  C   UNL     1     148.817 165.006 190.388  0.00  0.00    -0.059 C 
ATOM      4  C   UNL     1     149.928 164.006 190.559  0.00  0.00    +0.079 C 
ATOM      5  C   UNL     1     150.678 163.676 189.256  0.00  0.00    +0.004 C 
ATOM      6  C   UNL     1     151.474 164.852 188.653  0.00  0.00    +0.067 C 
ATOM      7  C   UNL     1     152.947 164.477 188.288  0.00  0.00    +0.020 C 
ATOM      8  C   UNL     1     153.110 163.209 187.390  0.00  0.00    +0.112 C 
ATOM      9  C   UNL     1     152.658 163.336 185.927  0.00  0.00    +0.006 C 
ATOM     10  C   UNL     1     153.701 163.995 185.065  0.00  0.00    -0.057 C 
ATOM     11  C   UNL     1     154.982 164.013 185.462  0.00  0.00    +0.022 C 
ATOM     12  C   UNL     1     155.438 163.322 186.678  0.00  0.00    +0.332 C 
ATOM     13  O   UNL     1     156.630 163.244 186.946  0.00  0.00    -0.246 OA
ATOM     14  O   UNL     1     154.483 162.744 187.443  0.00  0.00    -0.458 OA
ATOM     15  C   UNL     1     153.266 164.603 183.746  0.00  0.00    -0.004 C 
ATOM     16  C   UNL     1     152.711 163.562 182.739  0.00  0.00    +0.066 C 
ATOM     17  C   UNL     1     152.060 164.242 181.505  0.00  0.00    -0.005 C 
ATOM     18  C   UNL     1     150.790 165.068 181.698  0.00  0.00    -0.070 C 
ATOM     19  C   UNL     1     150.066 165.017 182.830  0.00  0.00    -0.062 C 
ATOM     20  C   UNL     1     148.944 165.822 183.229  0.00  0.00    -0.055 C 
ATOM     21  C   UNL     1     147.727 165.865 182.662  0.00  0.00    +0.023 C 
ATOM     22  C   UNL     1     146.591 166.542 183.336  0.00  0.00    +0.332 C 
ATOM     23  O   UNL     1     145.426 166.363 183.027  0.00  0.00    -0.246 OA
ATOM     24  O   UNL     1     147.037 167.273 184.382  0.00  0.00    -0.457 OA
ATOM     25  C   UNL     1     146.114 167.634 185.449  0.00  0.00    +0.114 C 
ATOM     26  C   UNL     1     145.903 166.338 186.314  0.00  0.00    +0.012 C 
ATOM     27  C   UNL     1     144.870 166.457 187.418  0.00  0.00    -0.079 C 
ATOM     28  C   UNL     1     144.986 165.968 188.667  0.00  0.00    -0.059 C 
ATOM     29  C   UNL     1     143.998 166.064 189.804  0.00  0.00    +0.079 C 
ATOM     30  C   UNL     1     144.585 166.763 191.052  0.00  0.00    +0.004 C 
ATOM     31  C   UNL     1     145.809 166.034 191.655  0.00  0.00    +0.067 C 
ATOM     32  H   UNL     1     147.091 166.997 190.179  0.00  0.00    +0.037 HD
ATOM     33  H   UNL     1     148.702 165.620 192.399  0.00  0.00    +0.057 HD
ATOM     34  H   UNL     1     148.393 165.082 189.392  0.00  0.00    +0.059 HD
ATOM     35  H   UNL     1     150.656 164.369 191.300  0.00  0.00    +0.064 HD
ATOM     36  H   UNL     1     149.970 163.275 188.518  0.00  0.00    +0.032 HD
ATOM     37  H   UNL     1     151.339 162.839 189.504  0.00  0.00    +0.032 HD
ATOM     38  H   UNL     1     151.499 165.675 189.382  0.00  0.00    +0.060 HD
ATOM     39  H   UNL     1     153.396 165.317 187.743  0.00  0.00    +0.036 HD
ATOM     40  H   UNL     1     152.531 162.390 187.827  0.00  0.00    +0.074 HD
ATOM     41  H   UNL     1     151.704 163.859 185.851  0.00  0.00    +0.035 HD
ATOM     42  H   UNL     1     152.493 162.326 185.524  0.00  0.00    +0.035 HD
ATOM     43  H   UNL     1     155.768 164.464 184.867  0.00  0.00    +0.069 HD
ATOM     44  H   UNL     1     152.523 165.376 183.971  0.00  0.00    +0.034 HD
ATOM     45  H   UNL     1     154.117 165.120 183.283  0.00  0.00    +0.034 HD
ATOM     46  H   UNL     1     151.983 162.908 183.234  0.00  0.00    +0.060 HD
ATOM     47  H   UNL     1     152.830 164.883 181.047  0.00  0.00    +0.034 HD
ATOM     48  H   UNL     1     151.843 163.476 180.749  0.00  0.00    +0.034 HD
ATOM     49  H   UNL     1     150.379 164.363 183.645  0.00  0.00    +0.062 HD
ATOM     50  H   UNL     1     149.131 166.347 184.164  0.00  0.00    +0.062 HD
ATOM     51  H   UNL     1     147.477 165.302 181.771  0.00  0.00    +0.069 HD
ATOM     52  H   UNL     1     145.164 167.943 185.000  0.00  0.00    +0.074 HD
ATOM     53  H   UNL     1     145.488 165.584 185.626  0.00  0.00    +0.038 HD
ATOM     54  H   UNL     1     143.945 166.961 187.146  0.00  0.00    +0.057 HD
ATOM     55  H   UNL     1     145.874 165.396 188.923  0.00  0.00    +0.059 HD
ATOM     56  H   UNL     1     143.711 165.035 190.067  0.00  0.00    +0.064 HD
ATOM     57  H   UNL     1     144.837 167.800 190.797  0.00  0.00    +0.032 HD
ATOM     58  H   UNL     1     143.791 166.861 191.802  0.00  0.00    +0.032 HD
ATOM     59  H   UNL     1     145.816 164.985 191.323  0.00  0.00    +0.060 HD
ENDROOT
BRANCH   1  60
ATOM     60  C   UNL     1     147.457 167.985 192.036  0.00  0.00    -0.057 C 
ATOM     61  H   UNL     1     147.549 168.865 191.390  0.00  0.00    +0.024 HD
ATOM     62  H   UNL     1     146.657 168.190 192.754  0.00  0.00    +0.024 HD
ATOM     63  H   UNL     1     148.391 167.887 192.599  0.00  0.00    +0.024 HD
ENDBRANCH   1  60
BRANCH  26  64
ATOM     64  C   UNL     1     147.246 165.747 186.784  0.00  0.00    -0.056 C 
ATOM     65  H   UNL     1     148.008 165.782 186.004  0.00  0.00    +0.024 HD
ATOM     66  H   UNL     1     147.637 166.280 187.657  0.00  0.00    +0.024 HD
ATOM     67  H   UNL     1     147.143 164.687 187.043  0.00  0.00    +0.024 HD
ENDBRANCH  26  64
BRANCH  18  68
ATOM     68  C   UNL     1     150.471 165.957 180.524  0.00  0.00    -0.043 C 
ATOM     69  H   UNL     1     151.371 166.117 179.922  0.00  0.00    +0.027 HD
ATOM     70  H   UNL     1     150.118 166.934 180.875  0.00  0.00    +0.027 HD
ATOM     71  H   UNL     1     149.702 165.550 179.865  0.00  0.00    +0.027 HD
ENDBRANCH  18  68
BRANCH   7  72
ATOM     72  C   UNL     1     153.752 164.347 189.595  0.00  0.00    -0.057 C 
ATOM     73  H   UNL     1     153.110 163.993 190.409  0.00  0.00    +0.023 HD
ATOM     74  H   UNL     1     154.585 163.645 189.489  0.00  0.00    +0.023 HD
ATOM     75  H   UNL     1     154.162 165.311 189.913  0.00  0.00    +0.023 HD
ENDBRANCH   7  72
BRANCH  25  76
ATOM     76  C   UNL     1     146.777 168.861 186.149  0.00  0.00    +0.020 C 
ATOM     77  H   UNL     1     146.967 168.573 187.193  0.00  0.00    +0.036 HD
BRANCH  76  78
ATOM     78  C   UNL     1     148.191 169.101 185.581  0.00  0.00    -0.057 C 
ATOM     79  H   UNL     1     148.378 168.439 184.729  0.00  0.00    +0.023 HD
ATOM     80  H   UNL     1     148.976 168.894 186.311  0.00  0.00    +0.023 HD
ATOM     81  H   UNL     1     148.311 170.125 185.218  0.00  0.00    +0.023 HD
ENDBRANCH  76  78
BRANCH  76  82
ATOM     82  C   UNL     1     145.922 170.156 186.214  0.00  0.00    +0.067 C 
ATOM     83  H   UNL     1     146.612 170.997 186.084  0.00  0.00    +0.060 HD
BRANCH  82  84
ATOM     84  C   UNL     1     145.091 170.426 187.509  0.00  0.00    -0.017 C 
ATOM     85  H   UNL     1     145.015 171.509 187.649  0.00  0.00    +0.032 HD
BRANCH  84  86
ATOM     86  C   UNL     1     143.665 169.899 187.263  0.00  0.00    -0.060 C 
ATOM     87  H   UNL     1     143.126 169.755 188.204  0.00  0.00    +0.023 HD
ATOM     88  H   UNL     1     143.081 170.588 186.646  0.00  0.00    +0.023 HD
ATOM     89  H   UNL     1     143.683 168.923 186.774  0.00  0.00    +0.023 HD
ENDBRANCH  84  86
BRANCH  84  90
ATOM     90  C   UNL     1     145.702 169.803 188.792  0.00  0.00    -0.041 C 
ATOM     91  H   UNL     1     146.218 168.874 188.530  0.00  0.00    +0.027 HD
ATOM     92  H   UNL     1     144.885 169.524 189.469  0.00  0.00    +0.027 HD
BRANCH  90  93
ATOM     93  C   UNL     1     146.669 170.665 189.607  0.00  0.00    +0.007 C 
ATOM     94  H   UNL     1     146.941 171.529 188.981  0.00  0.00    +0.034 HD
ATOM     95  H   UNL     1     147.622 170.179 189.838  0.00  0.00    +0.034 HD
BRANCH  93  96
ATOM     96  C   UNL     1     146.078 171.253 190.875  0.00  0.00    +0.139 C 
ATOM     97  O   UNL     1     144.960 170.889 191.251  0.00  0.00    -0.297 OA
BRANCH  96  98
ATOM     98  C   UNL     1     146.886 172.309 191.626  0.00  0.00    +0.041 C 
ATOM     99  H   UNL     1     146.209 172.815 192.322  0.00  0.00    +0.040 HD
BRANCH  98 100
ATOM    100  C   UNL     1     147.383 173.347 190.621  0.00  0.00    -0.053 C 
ATOM    101  H   UNL     1     146.675 173.493 189.802  0.00  0.00    +0.024 HD
ATOM    102  H   UNL     1     148.345 173.038 190.197  0.00  0.00    +0.024 HD
ATOM    103  H   UNL     1     147.526 174.318 191.103  0.00  0.00    +0.024 HD
ENDBRANCH  98 100
BRANCH  98 104
ATOM    104  C   UNL     1     148.044 171.696 192.457  0.00  0.00    +0.071 C 
ATOM    105  H   UNL     1     147.754 170.661 192.689  0.00  0.00    +0.061 HD
BRANCH 104 106
ATOM    106  C   UNL     1     149.395 171.675 191.703  0.00  0.00    -0.006 C 
ATOM    107  H   UNL     1     149.327 172.260 190.777  0.00  0.00    +0.033 HD
ATOM    108  H   UNL     1     150.156 172.195 192.299  0.00  0.00    +0.033 HD
BRANCH 106 109
ATOM    109  C   UNL     1     149.872 170.283 191.369  0.00  0.00    -0.067 C 
ATOM    110  C   UNL     1     150.797 169.634 192.091  0.00  0.00    -0.005 C 
ATOM    111  H   UNL     1     149.420 169.830 190.495  0.00  0.00    +0.059 HD
ATOM    112  H   UNL     1     151.237 170.142 192.951  0.00  0.00    +0.078 HD
BRANCH 110 113
ATOM    113  N   UNL     1     151.276 168.348 191.888  0.00  0.00    -0.284 N 
ATOM    114  C   UNL     1     151.325 167.344 192.850  0.00  0.00    +0.206 C 
ATOM    115  O   UNL     1     151.785 166.217 192.697  0.00  0.00    -0.279 OA
ATOM    116  H   UNL     1     150.902 167.635 193.822  0.00  0.00    +0.126 HD
BRANCH 113 117
ATOM    117  C   UNL     1     151.793 168.032 190.561  0.00  0.00    +0.007 C 
ATOM    118  H   UNL     1     150.999 167.546 189.981  0.00  0.00    +0.043 HD
ATOM    119  H   UNL     1     152.100 168.957 190.058  0.00  0.00    +0.043 HD
ATOM    120  H   UNL     1     152.655 167.359 190.599  0.00  0.00    +0.043 HD
ENDBRANCH 113 117
ENDBRANCH 110 113
ENDBRANCH 106 109
ENDBRANCH 104 106
BRANCH 104 121
ATOM    121  O   UNL     1     148.177 172.411 193.691  0.00  0.00    -0.379 OA
BRANCH 121 122
ATOM    122  C   UNL     1     149.423 173.075 193.844  0.00  0.00    +0.037 C 
ATOM    123  H   UNL     1     149.876 172.854 194.814  0.00  0.00    +0.052 HD
ATOM    124  H   UNL     1     149.296 174.154 193.726  0.00  0.00    +0.052 HD
ATOM    125  H   UNL     1     150.098 172.720 193.060  0.00  0.00    +0.052 HD
ENDBRANCH 121 122
ENDBRANCH 104 121
ENDBRANCH  98 104
ENDBRANCH  96  98
ENDBRANCH  93  96
ENDBRANCH  90  93
ENDBRANCH  84  90
ENDBRANCH  82  84
BRANCH  82 126
ATOM    126  O   UNL     1     145.010 170.173 185.097  0.00  0.00    -0.379 OA
BRANCH 126 127
ATOM    127  C   UNL     1     145.373 171.101 184.086  0.00  0.00    +0.037 C 
ATOM    128  H   UNL     1     144.471 171.509 183.622  0.00  0.00    +0.052 HD
ATOM    129  H   UNL     1     145.992 171.907 184.492  0.00  0.00    +0.052 HD
ATOM    130  H   UNL     1     145.946 170.568 183.321  0.00  0.00    +0.052 HD
ENDBRANCH 126 127
ENDBRANCH  82 126
ENDBRANCH  76  82
ENDBRANCH  25  76
BRANCH  31 131
ATOM    131  O   UNL     1     145.721 166.047 193.094  0.00  0.00    -0.379 OA
BRANCH 131 132
ATOM    132  C   UNL     1     144.402 166.287 193.570  0.00  0.00    +0.037 C 
ATOM    133  H   UNL     1     143.710 166.404 192.729  0.00  0.00    +0.052 HD
ATOM    134  H   UNL     1     144.368 167.173 194.209  0.00  0.00    +0.052 HD
ATOM    135  H   UNL     1     144.090 165.422 194.159  0.00  0.00    +0.052 HD
ENDBRANCH 131 132
ENDBRANCH  31 131
BRANCH  29 136
ATOM    136  O   UNL     1     142.844 166.786 189.359  0.00  0.00    -0.376 OA
BRANCH 136 137
ATOM    137  C   UNL     1     142.538 167.896 190.196  0.00  0.00    +0.037 C 
ATOM    138  H   UNL     1     141.651 167.694 190.803  0.00  0.00    +0.052 HD
ATOM    139  H   UNL     1     143.389 168.066 190.861  0.00  0.00    +0.052 HD
ATOM    140  H   UNL     1     142.389 168.800 189.596  0.00  0.00    +0.052 HD
ENDBRANCH 136 137
ENDBRANCH  29 136
BRANCH  16 141
ATOM    141  O   UNL     1     153.829 162.769 182.291  0.00  0.00    -0.379 OA
BRANCH 141 142
ATOM    142  C   UNL     1     154.726 163.494 181.460  0.00  0.00    +0.037 C 
ATOM    143  H   UNL     1     154.460 164.553 181.511  0.00  0.00    +0.052 HD
ATOM    144  H   UNL     1     155.751 163.372 181.824  0.00  0.00    +0.052 HD
ATOM    145  H   UNL     1     154.659 163.167 180.417  0.00  0.00    +0.052 HD
ENDBRANCH 141 142
ENDBRANCH  16 141
BRANCH   6 146
ATOM    146  O   UNL     1     150.764 165.303 187.488  0.00  0.00    -0.379 OA
BRANCH 146 147
ATOM    147  C   UNL     1     151.138 166.610 187.069  0.00  0.00    +0.037 C 
ATOM    148  H   UNL     1     150.308 167.033 186.500  0.00  0.00    +0.052 HD
ATOM    149  H   UNL     1     151.323 167.249 187.939  0.00  0.00    +0.052 HD
ATOM    150  H   UNL     1     152.020 166.583 186.424  0.00  0.00    +0.052 HD
ENDBRANCH 146 147
ENDBRANCH   6 146
BRANCH   4 151
ATOM    151  O   UNL     1     149.320 162.778 190.990  0.00  0.00    -0.376 OA
BRANCH 151 152
ATOM    152  C   UNL     1     149.882 161.637 190.357  0.00  0.00    +0.037 C 
ATOM    153  H   UNL     1     150.572 161.981 189.579  0.00  0.00    +0.052 HD
ATOM    154  H   UNL     1     149.105 161.027 189.886  0.00  0.00    +0.052 HD
ATOM    155  H   UNL     1     150.447 161.039 191.079  0.00  0.00    +0.052 HD
ENDBRANCH 151 152
ENDBRANCH   4 151
TORSDOF 33
ENDMDL
MODEL 4
REMARK VINA RESULT:      -4.8      4.233     10.428
REMARK  Name = Reidispongiolide A_conf1
REMARK  33 active torsions:
REMARK  status: ('A' for Active; 'I' for Inactive)
REMARK    1  A    between atoms: C_1  and  C_2
REMARK    2  A    between atoms: C_5  and  O_67
REMARK    3  A    between atoms: C_7  and  O_65
REMARK    4  A    between atoms: C_8  and  C_64
REMARK    5  A    between atoms: C_17  and  O_62
REMARK    6  A    between atoms: C_19  and  C_61
REMARK    7  A    between atoms: C_26  and  C_38
REMARK    8  A    between atoms: C_27  and  C_37
REMARK    9  A    between atoms: C_30  and  O_35
REMARK   10  A    between atoms: C_32  and  O_33
REMARK   11  A    between atoms: O_33  and  C_34
REMARK   12  A    between atoms: O_35  and  C_36
REMARK   13  A    between atoms: C_38  and  C_39
REMARK   14  A    between atoms: C_38  and  C_40
REMARK   15  A    between atoms: C_40  and  C_41
REMARK   16  A    between atoms: C_40  and  O_59
REMARK   17  A    between atoms: C_41  and  C_42
REMARK   18  A    between atoms: C_41  and  C_43
REMARK   19  A    between atoms: C_43  and  C_44
REMARK   20  A    between atoms: C_44  and  C_45
REMARK   21  A    between atoms: C_45  and  C_47
REMARK   22  A    between atoms: C_47  and  C_48
REMARK   23  A    between atoms: C_47  and  C_49
REMARK   24  A    between atoms: C_49  and  C_50
REMARK   25  A    between atoms: C_49  and  O_57
REMARK   26  A    between atoms: C_50  and  C_51
REMARK   27  A    between atoms: C_52  and  N_53
REMARK   28  A    between atoms: N_53  and  C_54
REMARK   29  A    between atoms: O_57  and  C_58
REMARK   30  A    between atoms: O_59  and  C_60
REMARK   31  A    between atoms: O_62  and  C_63
REMARK   32  A    between atoms: O_65  and  C_66
REMARK   33  A    between atoms: O_67  and  C_68
REMARK                            x       y       z     vdW  Elec       q    Type
REMARK                         _______ _______ _______ _____ _____    ______ ____
ROOT
ATOM      1  C   UNL     1     144.321 163.573 186.775  0.00  0.00    +0.001 C 
ATOM      2  C   UNL     1     143.380 164.641 187.303  0.00  0.00    -0.080 C 
ATOM      3  C   UNL     1     143.681 165.486 188.303  0.00  0.00    -0.059 C 
ATOM      4  C   UNL     1     142.726 166.507 188.858  0.00  0.00    +0.079 C 
ATOM      5  C   UNL     1     143.413 167.667 189.601  0.00  0.00    +0.004 C 
ATOM      6  C   UNL     1     144.282 168.579 188.710  0.00  0.00    +0.067 C 
ATOM      7  C   UNL     1     143.982 170.101 188.906  0.00  0.00    +0.020 C 
ATOM      8  C   UNL     1     144.023 170.605 190.384  0.00  0.00    +0.112 C 
ATOM      9  C   UNL     1     145.405 170.674 191.052  0.00  0.00    +0.006 C 
ATOM     10  C   UNL     1     146.155 171.925 190.679  0.00  0.00    -0.057 C 
ATOM     11  C   UNL     1     145.486 172.992 190.218  0.00  0.00    +0.022 C 
ATOM     12  C   UNL     1     144.017 173.031 190.150  0.00  0.00    +0.332 C 
ATOM     13  O   UNL     1     143.430 174.062 189.851  0.00  0.00    -0.246 OA
ATOM     14  O   UNL     1     143.363 171.893 190.482  0.00  0.00    -0.458 OA
ATOM     15  C   UNL     1     147.660 171.944 190.862  0.00  0.00    -0.004 C 
ATOM     16  C   UNL     1     148.103 171.802 192.341  0.00  0.00    +0.066 C 
ATOM     17  C   UNL     1     149.636 171.588 192.466  0.00  0.00    -0.005 C 
ATOM     18  C   UNL     1     150.250 170.300 191.923  0.00  0.00    -0.070 C 
ATOM     19  C   UNL     1     149.502 169.235 191.582  0.00  0.00    -0.062 C 
ATOM     20  C   UNL     1     149.897 168.016 190.931  0.00  0.00    -0.055 C 
ATOM     21  C   UNL     1     150.717 167.065 191.405  0.00  0.00    +0.023 C 
ATOM     22  C   UNL     1     150.826 165.744 190.737  0.00  0.00    +0.332 C 
ATOM     23  O   UNL     1     151.310 164.761 191.272  0.00  0.00    -0.246 OA
ATOM     24  O   UNL     1     150.223 165.781 189.528  0.00  0.00    -0.457 OA
ATOM     25  C   UNL     1     149.792 164.538 188.904  0.00  0.00    +0.114 C 
ATOM     26  C   UNL     1     148.486 164.091 189.657  0.00  0.00    +0.012 C 
ATOM     27  C   UNL     1     147.932 162.740 189.245  0.00  0.00    -0.079 C 
ATOM     28  C   UNL     1     146.633 162.440 189.058  0.00  0.00    -0.059 C 
ATOM     29  C   UNL     1     146.028 161.120 188.642  0.00  0.00    +0.079 C 
ATOM     30  C   UNL     1     145.205 161.222 187.337  0.00  0.00    +0.004 C 
ATOM     31  C   UNL     1     144.004 162.193 187.434  0.00  0.00    +0.067 C 
ATOM     32  H   UNL     1     145.343 163.866 187.038  0.00  0.00    +0.037 HD
ATOM     33  H   UNL     1     142.387 164.671 186.856  0.00  0.00    +0.057 HD
ATOM     34  H   UNL     1     144.649 165.425 188.790  0.00  0.00    +0.059 HD
ATOM     35  H   UNL     1     142.105 166.926 188.051  0.00  0.00    +0.064 HD
ATOM     36  H   UNL     1     144.005 167.268 190.435  0.00  0.00    +0.032 HD
ATOM     37  H   UNL     1     142.601 168.233 190.071  0.00  0.00    +0.032 HD
ATOM     38  H   UNL     1     144.100 168.326 187.657  0.00  0.00    +0.060 HD
ATOM     39  H   UNL     1     144.729 170.679 188.348  0.00  0.00    +0.036 HD
ATOM     40  H   UNL     1     143.410 169.941 191.001  0.00  0.00    +0.074 HD
ATOM     41  H   UNL     1     145.997 169.785 190.832  0.00  0.00    +0.035 HD
ATOM     42  H   UNL     1     145.265 170.693 192.144  0.00  0.00    +0.035 HD
ATOM     43  H   UNL     1     145.983 173.918 189.950  0.00  0.00    +0.069 HD
ATOM     44  H   UNL     1     148.075 171.142 190.242  0.00  0.00    +0.034 HD
ATOM     45  H   UNL     1     148.065 172.883 190.463  0.00  0.00    +0.034 HD
ATOM     46  H   UNL     1     147.569 170.973 192.819  0.00  0.00    +0.060 HD
ATOM     47  H   UNL     1     150.123 172.444 191.974  0.00  0.00    +0.034 HD
ATOM     48  H   UNL     1     149.922 171.668 193.524  0.00  0.00    +0.034 HD
ATOM     49  H   UNL     1     148.418 169.275 191.700  0.00  0.00    +0.062 HD
ATOM     50  H   UNL     1     149.350 167.855 190.003  0.00  0.00    +0.062 HD
ATOM     51  H   UNL     1     151.225 167.154 192.357  0.00  0.00    +0.069 HD
ATOM     52  H   UNL     1     150.579 163.787 189.041  0.00  0.00    +0.074 HD
ATOM     53  H   UNL     1     148.777 163.961 190.711  0.00  0.00    +0.038 HD
ATOM     54  H   UNL     1     148.666 161.945 189.126  0.00  0.00    +0.057 HD
ATOM     55  H   UNL     1     145.888 163.207 189.250  0.00  0.00    +0.059 HD
ATOM     56  H   UNL     1     145.370 160.798 189.461  0.00  0.00    +0.064 HD
ATOM     57  H   UNL     1     145.871 161.509 186.514  0.00  0.00    +0.032 HD
ATOM     58  H   UNL     1     144.863 160.217 187.062  0.00  0.00    +0.032 HD
ATOM     59  H   UNL     1     143.738 162.350 188.490  0.00  0.00    +0.060 HD
ENDROOT
BRANCH   1  60
ATOM     60  C   UNL     1     144.231 163.542 185.244  0.00  0.00    -0.057 C 
ATOM     61  H   UNL     1     145.163 163.193 184.785  0.00  0.00    +0.024 HD
ATOM     62  H   UNL     1     143.435 162.866 184.918  0.00  0.00    +0.024 HD
ATOM     63  H   UNL     1     144.012 164.534 184.837  0.00  0.00    +0.024 HD
ENDBRANCH   1  60
BRANCH  26  64
ATOM     64  C   UNL     1     147.431 165.212 189.673  0.00  0.00    -0.056 C 
ATOM     65  H   UNL     1     147.057 165.414 190.678  0.00  0.00    +0.024 HD
ATOM     66  H   UNL     1     147.833 166.150 189.272  0.00  0.00    +0.024 HD
ATOM     67  H   UNL     1     146.549 164.935 189.085  0.00  0.00    +0.024 HD
ENDBRANCH  26  64
BRANCH  18  68
ATOM     68  C   UNL     1     151.748 170.368 191.772  0.00  0.00    -0.043 C 
ATOM     69  H   UNL     1     152.070 171.414 191.726  0.00  0.00    +0.027 HD
ATOM     70  H   UNL     1     152.058 169.875 190.843  0.00  0.00    +0.027 HD
ATOM     71  H   UNL     1     152.291 169.892 192.592  0.00  0.00    +0.027 HD
ENDBRANCH  18  68
BRANCH   7  72
ATOM     72  C   UNL     1     142.628 170.416 188.243  0.00  0.00    -0.057 C 
ATOM     73  H   UNL     1     141.805 169.980 188.820  0.00  0.00    +0.023 HD
ATOM     74  H   UNL     1     142.455 171.494 188.166  0.00  0.00    +0.023 HD
ATOM     75  H   UNL     1     142.565 169.992 187.236  0.00  0.00    +0.023 HD
ENDBRANCH   7  72
BRANCH  25  76
ATOM     76  C   UNL     1     149.664 164.878 187.387  0.00  0.00    +0.020 C 
ATOM     77  H   UNL     1     148.616 164.699 187.104  0.00  0.00    +0.036 HD
BRANCH  76  78
ATOM     78  C   UNL     1     149.839 166.395 187.163  0.00  0.00    -0.057 C 
ATOM     79  H   UNL     1     150.788 166.598 186.655  0.00  0.00    +0.023 HD
ATOM     80  H   UNL     1     149.865 166.956 188.099  0.00  0.00    +0.023 HD
ATOM     81  H   UNL     1     149.047 166.803 186.530  0.00  0.00    +0.023 HD
ENDBRANCH  76  78
BRANCH  76  82
ATOM     82  C   UNL     1     150.520 164.019 186.417  0.00  0.00    +0.067 C 
ATOM     83  H   UNL     1     150.713 164.638 185.534  0.00  0.00    +0.060 HD
BRANCH  82  84
ATOM     84  C   UNL     1     149.929 162.661 185.920  0.00  0.00    -0.017 C 
ATOM     85  H   UNL     1     148.948 162.523 186.384  0.00  0.00    +0.032 HD
BRANCH  84  86
ATOM     86  C   UNL     1     149.698 162.784 184.402  0.00  0.00    -0.060 C 
ATOM     87  H   UNL     1     148.701 163.176 184.181  0.00  0.00    +0.023 HD
ATOM     88  H   UNL     1     150.430 163.449 183.934  0.00  0.00    +0.023 HD
ATOM     89  H   UNL     1     149.753 161.808 183.914  0.00  0.00    +0.023 HD
ENDBRANCH  84  86
BRANCH  84  90
ATOM     90  C   UNL     1     150.812 161.430 186.251  0.00  0.00    -0.041 C 
ATOM     91  H   UNL     1     151.837 161.762 186.442  0.00  0.00    +0.027 HD
ATOM     92  H   UNL     1     150.856 160.782 185.367  0.00  0.00    +0.027 HD
BRANCH  90  93
ATOM     93  C   UNL     1     150.380 160.542 187.421  0.00  0.00    +0.007 C 
ATOM     94  H   UNL     1     150.247 159.524 187.025  0.00  0.00    +0.034 HD
ATOM     95  H   UNL     1     149.407 160.802 187.849  0.00  0.00    +0.034 HD
BRANCH  93  96
ATOM     96  C   UNL     1     151.407 160.415 188.532  0.00  0.00    +0.139 C 
ATOM     97  O   UNL     1     152.600 160.286 188.245  0.00  0.00    -0.297 OA
BRANCH  96  98
ATOM     98  C   UNL     1     150.911 160.417 189.976  0.00  0.00    +0.041 C 
ATOM     99  H   UNL     1     149.877 160.777 189.974  0.00  0.00    +0.040 HD
BRANCH  98 100
ATOM    100  C   UNL     1     151.749 161.412 190.778  0.00  0.00    -0.053 C 
ATOM    101  H   UNL     1     152.714 161.608 190.302  0.00  0.00    +0.024 HD
ATOM    102  H   UNL     1     151.933 161.031 191.788  0.00  0.00    +0.024 HD
ATOM    103  H   UNL     1     151.233 162.372 190.869  0.00  0.00    +0.024 HD
ENDBRANCH  98 100
BRANCH  98 104
ATOM    104  C   UNL     1     150.915 159.003 190.612  0.00  0.00    +0.071 C 
ATOM    105  H   UNL     1     150.037 158.949 191.271  0.00  0.00    +0.061 HD
BRANCH 104 106
ATOM    106  C   UNL     1     150.824 157.862 189.570  0.00  0.00    -0.006 C 
ATOM    107  H   UNL     1     151.206 158.198 188.598  0.00  0.00    +0.033 HD
ATOM    108  H   UNL     1     151.498 157.046 189.861  0.00  0.00    +0.033 HD
BRANCH 106 109
ATOM    109  C   UNL     1     149.424 157.328 189.389  0.00  0.00    -0.067 C 
ATOM    110  C   UNL     1     148.436 157.554 190.266  0.00  0.00    -0.005 C 
ATOM    111  H   UNL     1     149.261 156.736 188.497  0.00  0.00    +0.059 HD
ATOM    112  H   UNL     1     148.658 158.139 191.160  0.00  0.00    +0.078 HD
BRANCH 110 113
ATOM    113  N   UNL     1     147.116 157.138 190.175  0.00  0.00    -0.284 N 
ATOM    114  C   UNL     1     146.672 156.009 189.492  0.00  0.00    +0.206 C 
ATOM    115  O   UNL     1     145.505 155.652 189.367  0.00  0.00    -0.279 OA
ATOM    116  H   UNL     1     147.477 155.415 189.039  0.00  0.00    +0.126 HD
BRANCH 113 117
ATOM    117  C   UNL     1     146.110 157.966 190.830  0.00  0.00    +0.007 C 
ATOM    118  H   UNL     1     145.554 157.345 191.543  0.00  0.00    +0.043 HD
ATOM    119  H   UNL     1     146.603 158.786 191.365  0.00  0.00    +0.043 HD
ATOM    120  H   UNL     1     145.398 158.397 190.120  0.00  0.00    +0.043 HD
ENDBRANCH 113 117
ENDBRANCH 110 113
ENDBRANCH 106 109
ENDBRANCH 104 106
BRANCH 104 121
ATOM    121  O   UNL     1     152.089 158.844 191.417  0.00  0.00    -0.379 OA
BRANCH 121 122
ATOM    122  C   UNL     1     153.016 157.894 190.911  0.00  0.00    +0.037 C 
ATOM    123  H   UNL     1     153.804 158.377 190.329  0.00  0.00    +0.052 HD
ATOM    124  H   UNL     1     152.500 157.148 190.301  0.00  0.00    +0.052 HD
ATOM    125  H   UNL     1     153.478 157.383 191.760  0.00  0.00    +0.052 HD
ENDBRANCH 121 122
ENDBRANCH 104 121
ENDBRANCH  98 104
ENDBRANCH  96  98
ENDBRANCH  93  96
ENDBRANCH  90  93
ENDBRANCH  84  90
ENDBRANCH  82  84
BRANCH  82 126
ATOM    126  O   UNL     1     151.793 163.743 187.035  0.00  0.00    -0.379 OA
BRANCH 126 127
ATOM    127  C   UNL     1     152.873 164.447 186.442  0.00  0.00    +0.037 C 
ATOM    128  H   UNL     1     152.702 165.523 186.528  0.00  0.00    +0.052 HD
ATOM    129  H   UNL     1     153.826 164.174 186.906  0.00  0.00    +0.052 HD
ATOM    130  H   UNL     1     152.911 164.186 185.380  0.00  0.00    +0.052 HD
ENDBRANCH 126 127
ENDBRANCH  82 126
ENDBRANCH  76  82
ENDBRANCH  25  76
BRANCH  31 131
ATOM    131  O   UNL     1     142.863 161.619 186.766  0.00  0.00    -0.379 OA
BRANCH 131 132
ATOM    132  C   UNL     1     143.108 160.310 186.266  0.00  0.00    +0.037 C 
ATOM    133  H   UNL     1     142.267 159.976 185.649  0.00  0.00    +0.052 HD
ATOM    134  H   UNL     1     143.279 159.602 187.081  0.00  0.00    +0.052 HD
ATOM    135  H   UNL     1     144.004 160.346 185.643  0.00  0.00    +0.052 HD
ENDBRANCH 131 132
ENDBRANCH  31 131
BRANCH  29 136
ATOM    136  O   UNL     1     147.078 160.163 188.463  0.00  0.00    -0.376 OA
BRANCH 136 137
ATOM    137  C   UNL     1     146.882 159.348 187.313  0.00  0.00    +0.037 C 
ATOM    138  H   UNL     1     145.906 158.856 187.345  0.00  0.00    +0.052 HD
ATOM    139  H   UNL     1     146.926 159.989 186.428  0.00  0.00    +0.052 HD
ATOM    140  H   UNL     1     147.680 158.601 187.232  0.00  0.00    +0.052 HD
ENDBRANCH 136 137
ENDBRANCH  29 136
BRANCH  16 141
ATOM    141  O   UNL     1     147.756 173.034 193.007  0.00  0.00    -0.379 OA
BRANCH 141 142
ATOM    142  C   UNL     1     148.554 174.134 192.591  0.00  0.00    +0.037 C 
ATOM    143  H   UNL     1     147.976 175.050 192.735  0.00  0.00    +0.052 HD
ATOM    144  H   UNL     1     149.458 174.190 193.205  0.00  0.00    +0.052 HD
ATOM    145  H   UNL     1     148.825 174.055 191.533  0.00  0.00    +0.052 HD
ENDBRANCH 141 142
ENDBRANCH  16 141
BRANCH   6 146
ATOM    146  O   UNL     1     145.657 168.293 189.013  0.00  0.00    -0.379 OA
BRANCH 146 147
ATOM    147  C   UNL     1     146.565 168.789 188.036  0.00  0.00    +0.037 C 
ATOM    148  H   UNL     1     146.019 169.471 187.382  0.00  0.00    +0.052 HD
ATOM    149  H   UNL     1     147.376 169.345 188.518  0.00  0.00    +0.052 HD
ATOM    150  H   UNL     1     146.973 167.980 187.424  0.00  0.00    +0.052 HD
ENDBRANCH 146 147
ENDBRANCH   6 146
BRANCH   4 151
ATOM    151  O   UNL     1     141.918 165.833 189.835  0.00  0.00    -0.376 OA
BRANCH 151 152
ATOM    152  C   UNL     1     142.361 166.062 191.166  0.00  0.00    +0.037 C 
ATOM    153  H   UNL     1     141.935 167.010 191.510  0.00  0.00    +0.052 HD
ATOM    154  H   UNL     1     143.452 166.137 191.208  0.00  0.00    +0.052 HD
ATOM    155  H   UNL     1     142.010 165.265 191.828  0.00  0.00    +0.052 HD
ENDBRANCH 151 152
ENDBRANCH   4 151
TORSDOF 33
ENDMDL
MODEL 5
REMARK VINA RESULT:      -4.6      3.339      6.075
REMARK  Name = Reidispongiolide A_conf1
REMARK  33 active torsions:
REMARK  status: ('A' for Active; 'I' for Inactive)
REMARK    1  A    between atoms: C_1  and  C_2
REMARK    2  A    between atoms: C_5  and  O_67
REMARK    3  A    between atoms: C_7  and  O_65
REMARK    4  A    between atoms: C_8  and  C_64
REMARK    5  A    between atoms: C_17  and  O_62
REMARK    6  A    between atoms: C_19  and  C_61
REMARK    7  A    between atoms: C_26  and  C_38
REMARK    8  A    between atoms: C_27  and  C_37
REMARK    9  A    between atoms: C_30  and  O_35
REMARK   10  A    between atoms: C_32  and  O_33
REMARK   11  A    between atoms: O_33  and  C_34
REMARK   12  A    between atoms: O_35  and  C_36
REMARK   13  A    between atoms: C_38  and  C_39
REMARK   14  A    between atoms: C_38  and  C_40
REMARK   15  A    between atoms: C_40  and  C_41
REMARK   16  A    between atoms: C_40  and  O_59
REMARK   17  A    between atoms: C_41  and  C_42
REMARK   18  A    between atoms: C_41  and  C_43
REMARK   19  A    between atoms: C_43  and  C_44
REMARK   20  A    between atoms: C_44  and  C_45
REMARK   21  A    between atoms: C_45  and  C_47
REMARK   22  A    between atoms: C_47  and  C_48
REMARK   23  A    between atoms: C_47  and  C_49
REMARK   24  A    between atoms: C_49  and  C_50
REMARK   25  A    between atoms: C_49  and  O_57
REMARK   26  A    between atoms: C_50  and  C_51
REMARK   27  A    between atoms: C_52  and  N_53
REMARK   28  A    between atoms: N_53  and  C_54
REMARK   29  A    between atoms: O_57  and  C_58
REMARK   30  A    between atoms: O_59  and  C_60
REMARK   31  A    between atoms: O_62  and  C_63
REMARK   32  A    between atoms: O_65  and  C_66
REMARK   33  A    between atoms: O_67  and  C_68
REMARK                            x       y       z     vdW  Elec       q    Type
REMARK                         _______ _______ _______ _____ _____    ______ ____
ROOT
ATOM      1  C   UNL     1     144.693 166.238 189.818  0.00  0.00    +0.001 C 
ATOM      2  C   UNL     1     144.438 164.794 189.424  0.00  0.00    -0.080 C 
ATOM      3  C   UNL     1     145.365 163.981 188.891  0.00  0.00    -0.059 C 
ATOM      4  C   UNL     1     145.092 162.567 188.453  0.00  0.00    +0.079 C 
ATOM      5  C   UNL     1     146.352 161.686 188.366  0.00  0.00    +0.004 C 
ATOM      6  C   UNL     1     147.043 161.413 189.718  0.00  0.00    +0.067 C 
ATOM      7  C   UNL     1     147.355 159.899 189.958  0.00  0.00    +0.020 C 
ATOM      8  C   UNL     1     148.137 159.188 188.807  0.00  0.00    +0.112 C 
ATOM      9  C   UNL     1     149.610 159.582 188.628  0.00  0.00    +0.006 C 
ATOM     10  C   UNL     1     150.513 158.860 189.593  0.00  0.00    -0.057 C 
ATOM     11  C   UNL     1     150.101 157.719 190.166  0.00  0.00    +0.022 C 
ATOM     12  C   UNL     1     148.824 157.079 189.817  0.00  0.00    +0.332 C 
ATOM     13  O   UNL     1     148.534 155.974 190.256  0.00  0.00    -0.246 OA
ATOM     14  O   UNL     1     148.024 157.750 188.954  0.00  0.00    -0.458 OA
ATOM     15  C   UNL     1     151.886 159.441 189.868  0.00  0.00    -0.004 C 
ATOM     16  C   UNL     1     152.805 159.472 188.620  0.00  0.00    +0.066 C 
ATOM     17  C   UNL     1     154.103 160.283 188.879  0.00  0.00    -0.005 C 
ATOM     18  C   UNL     1     154.000 161.788 189.120  0.00  0.00    -0.070 C 
ATOM     19  C   UNL     1     152.878 162.482 188.859  0.00  0.00    -0.062 C 
ATOM     20  C   UNL     1     152.566 163.853 189.157  0.00  0.00    -0.055 C 
ATOM     21  C   UNL     1     153.151 164.952 188.652  0.00  0.00    +0.023 C 
ATOM     22  C   UNL     1     152.554 166.296 188.850  0.00  0.00    +0.332 C 
ATOM     23  O   UNL     1     152.863 167.270 188.183  0.00  0.00    -0.246 OA
ATOM     24  O   UNL     1     151.570 166.239 189.774  0.00  0.00    -0.457 OA
ATOM     25  C   UNL     1     150.550 167.280 189.800  0.00  0.00    +0.114 C 
ATOM     26  C   UNL     1     149.580 166.983 188.600  0.00  0.00    +0.012 C 
ATOM     27  C   UNL     1     148.504 168.027 188.364  0.00  0.00    -0.079 C 
ATOM     28  C   UNL     1     147.216 167.781 188.059  0.00  0.00    -0.059 C 
ATOM     29  C   UNL     1     146.105 168.776 187.824  0.00  0.00    +0.079 C 
ATOM     30  C   UNL     1     144.915 168.588 188.792  0.00  0.00    +0.004 C 
ATOM     31  C   UNL     1     144.234 167.203 188.679  0.00  0.00    +0.067 C 
ATOM     32  H   UNL     1     145.771 166.358 189.972  0.00  0.00    +0.037 HD
ATOM     33  H   UNL     1     143.417 164.434 189.549  0.00  0.00    +0.057 HD
ATOM     34  H   UNL     1     146.370 164.349 188.712  0.00  0.00    +0.059 HD
ATOM     35  H   UNL     1     144.376 162.089 189.138  0.00  0.00    +0.064 HD
ATOM     36  H   UNL     1     147.061 162.131 187.656  0.00  0.00    +0.032 HD
ATOM     37  H   UNL     1     146.022 160.753 187.897  0.00  0.00    +0.032 HD
ATOM     38  H   UNL     1     146.389 161.762 190.529  0.00  0.00    +0.060 HD
ATOM     39  H   UNL     1     147.964 159.808 190.866  0.00  0.00    +0.036 HD
ATOM     40  H   UNL     1     147.637 159.402 187.857  0.00  0.00    +0.074 HD
ATOM     41  H   UNL     1     149.745 160.661 188.704  0.00  0.00    +0.035 HD
ATOM     42  H   UNL     1     149.927 159.298 187.613  0.00  0.00    +0.035 HD
ATOM     43  H   UNL     1     150.722 157.158 190.856  0.00  0.00    +0.069 HD
ATOM     44  H   UNL     1     151.738 160.445 190.281  0.00  0.00    +0.034 HD
ATOM     45  H   UNL     1     152.380 158.855 190.654  0.00  0.00    +0.034 HD
ATOM     46  H   UNL     1     152.266 159.891 187.763  0.00  0.00    +0.060 HD
ATOM     47  H   UNL     1     154.604 159.823 189.744  0.00  0.00    +0.034 HD
ATOM     48  H   UNL     1     154.792 160.131 188.037  0.00  0.00    +0.034 HD
ATOM     49  H   UNL     1     152.005 161.968 188.454  0.00  0.00    +0.062 HD
ATOM     50  H   UNL     1     151.677 163.942 189.779  0.00  0.00    +0.062 HD
ATOM     51  H   UNL     1     153.992 164.905 187.973  0.00  0.00    +0.069 HD
ATOM     52  H   UNL     1     151.038 168.250 189.656  0.00  0.00    +0.074 HD
ATOM     53  H   UNL     1     150.204 167.020 187.693  0.00  0.00    +0.038 HD
ATOM     54  H   UNL     1     148.831 169.063 188.420  0.00  0.00    +0.057 HD
ATOM     55  H   UNL     1     146.899 166.751 187.924  0.00  0.00    +0.059 HD
ATOM     56  H   UNL     1     145.757 168.629 186.791  0.00  0.00    +0.064 HD
ATOM     57  H   UNL     1     145.256 168.770 189.819  0.00  0.00    +0.032 HD
ATOM     58  H   UNL     1     144.187 169.387 188.609  0.00  0.00    +0.032 HD
ATOM     59  H   UNL     1     144.473 166.751 187.705  0.00  0.00    +0.060 HD
ENDROOT
BRANCH   1  60
ATOM     60  C   UNL     1     144.001 166.519 191.158  0.00  0.00    -0.057 C 
ATOM     61  H   UNL     1     142.977 166.882 191.022  0.00  0.00    +0.024 HD
ATOM     62  H   UNL     1     143.947 165.608 191.762  0.00  0.00    +0.024 HD
ATOM     63  H   UNL     1     144.547 167.270 191.738  0.00  0.00    +0.024 HD
ENDBRANCH   1  60
BRANCH  26  64
ATOM     64  C   UNL     1     149.042 165.541 188.651  0.00  0.00    -0.056 C 
ATOM     65  H   UNL     1     149.117 165.107 189.649  0.00  0.00    +0.024 HD
ATOM     66  H   UNL     1     147.991 165.492 188.345  0.00  0.00    +0.024 HD
ATOM     67  H   UNL     1     149.623 164.878 188.001  0.00  0.00    +0.024 HD
ENDBRANCH  26  64
BRANCH  18  68
ATOM     68  C   UNL     1     155.251 162.386 189.709  0.00  0.00    -0.043 C 
ATOM     69  H   UNL     1     155.087 163.447 189.930  0.00  0.00    +0.027 HD
ATOM     70  H   UNL     1     156.079 162.311 188.995  0.00  0.00    +0.027 HD
ATOM     71  H   UNL     1     155.571 161.903 190.635  0.00  0.00    +0.027 HD
ENDBRANCH  18  68
BRANCH   7  72
ATOM     72  C   UNL     1     146.030 159.176 190.267  0.00  0.00    -0.057 C 
ATOM     73  H   UNL     1     145.475 159.705 191.049  0.00  0.00    +0.023 HD
ATOM     74  H   UNL     1     145.390 159.107 189.382  0.00  0.00    +0.023 HD
ATOM     75  H   UNL     1     146.204 158.160 190.637  0.00  0.00    +0.023 HD
ENDBRANCH   7  72
BRANCH  25  76
ATOM     76  C   UNL     1     149.951 167.212 191.240  0.00  0.00    +0.020 C 
ATOM     77  H   UNL     1     148.908 167.553 191.171  0.00  0.00    +0.036 HD
BRANCH  76  78
ATOM     78  C   UNL     1     149.819 165.745 191.695  0.00  0.00    -0.057 C 
ATOM     79  H   UNL     1     149.712 165.690 192.784  0.00  0.00    +0.023 HD
ATOM     80  H   UNL     1     150.697 165.147 191.442  0.00  0.00    +0.023 HD
ATOM     81  H   UNL     1     148.934 165.268 191.266  0.00  0.00    +0.023 HD
ENDBRANCH  76  78
BRANCH  76  82
ATOM     82  C   UNL     1     150.626 168.119 192.305  0.00  0.00    +0.067 C 
ATOM     83  H   UNL     1     150.324 167.734 193.284  0.00  0.00    +0.060 HD
BRANCH  82  84
ATOM     84  C   UNL     1     150.304 169.647 192.281  0.00  0.00    -0.017 C 
ATOM     85  H   UNL     1     150.290 170.012 193.313  0.00  0.00    +0.032 HD
BRANCH  84  86
ATOM     86  C   UNL     1     151.470 170.356 191.566  0.00  0.00    -0.060 C 
ATOM     87  H   UNL     1     151.462 171.432 191.763  0.00  0.00    +0.023 HD
ATOM     88  H   UNL     1     152.438 169.964 191.888  0.00  0.00    +0.023 HD
ATOM     89  H   UNL     1     151.392 170.249 190.482  0.00  0.00    +0.023 HD
ENDBRANCH  84  86
BRANCH  84  90
ATOM     90  C   UNL     1     148.947 169.996 191.615  0.00  0.00    -0.041 C 
ATOM     91  H   UNL     1     148.371 169.078 191.468  0.00  0.00    +0.027 HD
ATOM     92  H   UNL     1     149.142 170.404 190.615  0.00  0.00    +0.027 HD
BRANCH  90  93
ATOM     93  C   UNL     1     148.046 171.006 192.330  0.00  0.00    +0.007 C 
ATOM     94  H   UNL     1     148.470 171.168 193.333  0.00  0.00    +0.034 HD
ATOM     95  H   UNL     1     147.027 170.652 192.514  0.00  0.00    +0.034 HD
BRANCH  93  96
ATOM     96  C   UNL     1     147.998 172.379 191.684  0.00  0.00    +0.139 C 
ATOM     97  O   UNL     1     148.820 172.670 190.811  0.00  0.00    -0.297 OA
BRANCH  96  98
ATOM     98  C   UNL     1     146.942 173.369 192.171  0.00  0.00    +0.041 C 
ATOM     99  H   UNL     1     147.127 174.327 191.675  0.00  0.00    +0.040 HD
BRANCH  98 100
ATOM    100  C   UNL     1     147.128 173.579 193.673  0.00  0.00    -0.053 C 
ATOM    101  H   UNL     1     146.593 174.462 194.031  0.00  0.00    +0.024 HD
ATOM    102  H   UNL     1     148.190 173.697 193.915  0.00  0.00    +0.024 HD
ATOM    103  H   UNL     1     146.749 172.722 194.236  0.00  0.00    +0.024 HD
ENDBRANCH  98 100
BRANCH  98 104
ATOM    104  C   UNL     1     145.499 172.927 191.817  0.00  0.00    +0.071 C 
ATOM    105  H   UNL     1     145.096 172.419 192.705  0.00  0.00    +0.061 HD
BRANCH 104 106
ATOM    106  C   UNL     1     144.566 174.108 191.456  0.00  0.00    -0.006 C 
ATOM    107  H   UNL     1     145.155 174.987 191.165  0.00  0.00    +0.033 HD
ATOM    108  H   UNL     1     143.988 173.857 190.557  0.00  0.00    +0.033 HD
BRANCH 106 109
ATOM    109  C   UNL     1     143.629 174.494 192.575  0.00  0.00    -0.067 C 
ATOM    110  C   UNL     1     142.942 175.645 192.590  0.00  0.00    -0.005 C 
ATOM    111  H   UNL     1     143.545 173.777 193.382  0.00  0.00    +0.059 HD
ATOM    112  H   UNL     1     143.078 176.343 191.762  0.00  0.00    +0.078 HD
BRANCH 110 113
ATOM    113  N   UNL     1     142.038 176.075 193.549  0.00  0.00    -0.284 N 
ATOM    114  C   UNL     1     141.921 175.557 194.837  0.00  0.00    +0.206 C 
ATOM    115  O   UNL     1     141.098 175.897 195.681  0.00  0.00    -0.279 OA
ATOM    116  H   UNL     1     142.654 174.774 195.072  0.00  0.00    +0.126 HD
BRANCH 113 117
ATOM    117  C   UNL     1     141.118 177.141 193.168  0.00  0.00    +0.007 C 
ATOM    118  H   UNL     1     141.132 177.244 192.076  0.00  0.00    +0.043 HD
ATOM    119  H   UNL     1     140.105 176.885 193.499  0.00  0.00    +0.043 HD
ATOM    120  H   UNL     1     141.392 178.104 193.609  0.00  0.00    +0.043 HD
ENDBRANCH 113 117
ENDBRANCH 110 113
ENDBRANCH 106 109
ENDBRANCH 104 106
BRANCH 104 121
ATOM    121  O   UNL     1     145.539 171.982 190.741  0.00  0.00    -0.379 OA
BRANCH 121 122
ATOM    122  C   UNL     1     144.345 171.927 189.973  0.00  0.00    +0.037 C 
ATOM    123  H   UNL     1     144.429 172.525 189.062  0.00  0.00    +0.052 HD
ATOM    124  H   UNL     1     143.494 172.266 190.568  0.00  0.00    +0.052 HD
ATOM    125  H   UNL     1     144.172 170.886 189.686  0.00  0.00    +0.052 HD
ENDBRANCH 121 122
ENDBRANCH 104 121
ENDBRANCH  98 104
ENDBRANCH  96  98
ENDBRANCH  93  96
ENDBRANCH  90  93
ENDBRANCH  84  90
ENDBRANCH  82  84
BRANCH  82 126
ATOM    126  O   UNL     1     152.057 167.971 192.208  0.00  0.00    -0.379 OA
BRANCH 126 127
ATOM    127  C   UNL     1     152.611 167.163 193.234  0.00  0.00    +0.037 C 
ATOM    128  H   UNL     1     153.699 167.278 193.246  0.00  0.00    +0.052 HD
ATOM    129  H   UNL     1     152.190 167.418 194.212  0.00  0.00    +0.052 HD
ATOM    130  H   UNL     1     152.376 166.117 193.012  0.00  0.00    +0.052 HD
ENDBRANCH 126 127
ENDBRANCH  82 126
ENDBRANCH  76  82
ENDBRANCH  25  76
BRANCH  31 131
ATOM    131  O   UNL     1     142.803 167.358 188.761  0.00  0.00    -0.379 OA
BRANCH 131 132
ATOM    132  C   UNL     1     142.143 167.118 187.523  0.00  0.00    +0.037 C 
ATOM    133  H   UNL     1     142.865 167.130 186.700  0.00  0.00    +0.052 HD
ATOM    134  H   UNL     1     141.359 167.857 187.344  0.00  0.00    +0.052 HD
ATOM    135  H   UNL     1     141.684 166.128 187.569  0.00  0.00    +0.052 HD
ENDBRANCH 131 132
ENDBRANCH  31 131
BRANCH  29 136
ATOM    136  O   UNL     1     146.628 170.101 187.971  0.00  0.00    -0.376 OA
BRANCH 136 137
ATOM    137  C   UNL     1     146.216 170.970 186.922  0.00  0.00    +0.037 C 
ATOM    138  H   UNL     1     145.196 171.327 187.088  0.00  0.00    +0.052 HD
ATOM    139  H   UNL     1     146.892 171.828 186.904  0.00  0.00    +0.052 HD
ATOM    140  H   UNL     1     146.286 170.461 185.953  0.00  0.00    +0.052 HD
ENDBRANCH 136 137
ENDBRANCH  29 136
BRANCH  16 141
ATOM    141  O   UNL     1     153.167 158.107 188.327  0.00  0.00    -0.379 OA
BRANCH 141 142
ATOM    142  C   UNL     1     152.924 157.746 186.973  0.00  0.00    +0.037 C 
ATOM    143  H   UNL     1     153.889 157.600 186.480  0.00  0.00    +0.052 HD
ATOM    144  H   UNL     1     152.365 156.806 186.934  0.00  0.00    +0.052 HD
ATOM    145  H   UNL     1     152.376 158.531 186.442  0.00  0.00    +0.052 HD
ENDBRANCH 141 142
ENDBRANCH  16 141
BRANCH   6 146
ATOM    146  O   UNL     1     148.253 162.188 189.749  0.00  0.00    -0.379 OA
BRANCH 146 147
ATOM    147  C   UNL     1     148.892 162.187 191.020  0.00  0.00    +0.037 C 
ATOM    148  H   UNL     1     148.154 161.891 191.769  0.00  0.00    +0.052 HD
ATOM    149  H   UNL     1     149.711 161.460 191.033  0.00  0.00    +0.052 HD
ATOM    150  H   UNL     1     149.264 163.182 191.279  0.00  0.00    +0.052 HD
ENDBRANCH 146 147
ENDBRANCH   6 146
BRANCH   4 151
ATOM    151  O   UNL     1     144.565 162.639 187.120  0.00  0.00    -0.376 OA
BRANCH 151 152
ATOM    152  C   UNL     1     143.986 161.413 186.692  0.00  0.00    +0.037 C 
ATOM    153  H   UNL     1     142.970 161.355 187.096  0.00  0.00    +0.052 HD
ATOM    154  H   UNL     1     144.558 160.558 187.067  0.00  0.00    +0.052 HD
ATOM    155  H   UNL     1     143.926 161.380 185.600  0.00  0.00    +0.052 HD
ENDBRANCH 151 152
ENDBRANCH   4 151
TORSDOF 33
ENDMDL
MODEL 6
REMARK VINA RESULT:      -4.6      4.791     11.002
REMARK  Name = Reidispongiolide A_conf1
REMARK  33 active torsions:
REMARK  status: ('A' for Active; 'I' for Inactive)
REMARK    1  A    between atoms: C_1  and  C_2
REMARK    2  A    between atoms: C_5  and  O_67
REMARK    3  A    between atoms: C_7  and  O_65
REMARK    4  A    between atoms: C_8  and  C_64
REMARK    5  A    between atoms: C_17  and  O_62
REMARK    6  A    between atoms: C_19  and  C_61
REMARK    7  A    between atoms: C_26  and  C_38
REMARK    8  A    between atoms: C_27  and  C_37
REMARK    9  A    between atoms: C_30  and  O_35
REMARK   10  A    between atoms: C_32  and  O_33
REMARK   11  A    between atoms: O_33  and  C_34
REMARK   12  A    between atoms: O_35  and  C_36
REMARK   13  A    between atoms: C_38  and  C_39
REMARK   14  A    between atoms: C_38  and  C_40
REMARK   15  A    between atoms: C_40  and  C_41
REMARK   16  A    between atoms: C_40  and  O_59
REMARK   17  A    between atoms: C_41  and  C_42
REMARK   18  A    between atoms: C_41  and  C_43
REMARK   19  A    between atoms: C_43  and  C_44
REMARK   20  A    between atoms: C_44  and  C_45
REMARK   21  A    between atoms: C_45  and  C_47
REMARK   22  A    between atoms: C_47  and  C_48
REMARK   23  A    between atoms: C_47  and  C_49
REMARK   24  A    between atoms: C_49  and  C_50
REMARK   25  A    between atoms: C_49  and  O_57
REMARK   26  A    between atoms: C_50  and  C_51
REMARK   27  A    between atoms: C_52  and  N_53
REMARK   28  A    between atoms: N_53  and  C_54
REMARK   29  A    between atoms: O_57  and  C_58
REMARK   30  A    between atoms: O_59  and  C_60
REMARK   31  A    between atoms: O_62  and  C_63
REMARK   32  A    between atoms: O_65  and  C_66
REMARK   33  A    between atoms: O_67  and  C_68
REMARK                            x       y       z     vdW  Elec       q    Type
REMARK                         _______ _______ _______ _____ _____    ______ ____
ROOT
ATOM      1  C   UNL     1     149.163 161.807 187.310  0.00  0.00    +0.001 C 
ATOM      2  C   UNL     1     147.731 162.281 187.141  0.00  0.00    -0.080 C 
ATOM      3  C   UNL     1     147.158 163.239 187.889  0.00  0.00    -0.059 C 
ATOM      4  C   UNL     1     145.723 163.667 187.753  0.00  0.00    +0.079 C 
ATOM      5  C   UNL     1     145.434 165.071 188.314  0.00  0.00    +0.004 C 
ATOM      6  C   UNL     1     146.125 166.224 187.557  0.00  0.00    +0.067 C 
ATOM      7  C   UNL     1     145.150 167.388 187.182  0.00  0.00    +0.020 C 
ATOM      8  C   UNL     1     144.306 167.960 188.366  0.00  0.00    +0.112 C 
ATOM      9  C   UNL     1     145.062 168.780 189.421  0.00  0.00    +0.006 C 
ATOM     10  C   UNL     1     145.283 170.203 188.984  0.00  0.00    -0.057 C 
ATOM     11  C   UNL     1     144.507 170.736 188.029  0.00  0.00    +0.022 C 
ATOM     12  C   UNL     1     143.367 170.012 187.445  0.00  0.00    +0.332 C 
ATOM     13  O   UNL     1     142.598 170.569 186.673  0.00  0.00    -0.246 OA
ATOM     14  O   UNL     1     143.192 168.731 187.846  0.00  0.00    -0.458 OA
ATOM     15  C   UNL     1     146.375 171.005 189.665  0.00  0.00    -0.004 C 
ATOM     16  C   UNL     1     146.122 171.230 191.178  0.00  0.00    +0.066 C 
ATOM     17  C   UNL     1     147.362 171.842 191.885  0.00  0.00    -0.005 C 
ATOM     18  C   UNL     1     148.639 171.011 191.992  0.00  0.00    -0.070 C 
ATOM     19  C   UNL     1     148.659 169.690 191.739  0.00  0.00    -0.062 C 
ATOM     20  C   UNL     1     149.782 168.797 191.652  0.00  0.00    -0.055 C 
ATOM     21  C   UNL     1     150.621 168.441 192.639  0.00  0.00    +0.023 C 
ATOM     22  C   UNL     1     151.571 167.314 192.467  0.00  0.00    +0.332 C 
ATOM     23  O   UNL     1     152.132 166.764 193.400  0.00  0.00    -0.246 OA
ATOM     24  O   UNL     1     151.622 166.939 191.170  0.00  0.00    -0.457 OA
ATOM     25  C   UNL     1     152.095 165.605 190.828  0.00  0.00    +0.114 C 
ATOM     26  C   UNL     1     150.924 164.614 191.175  0.00  0.00    +0.012 C 
ATOM     27  C   UNL     1     151.251 163.143 191.010  0.00  0.00    -0.079 C 
ATOM     28  C   UNL     1     150.443 162.206 190.479  0.00  0.00    -0.059 C 
ATOM     29  C   UNL     1     150.719 160.734 190.284  0.00  0.00    +0.079 C 
ATOM     30  C   UNL     1     150.612 160.294 188.806  0.00  0.00    +0.004 C 
ATOM     31  C   UNL     1     149.210 160.517 188.190  0.00  0.00    +0.067 C 
ATOM     32  H   UNL     1     149.722 162.601 187.815  0.00  0.00    +0.037 HD
ATOM     33  H   UNL     1     147.138 161.762 186.388  0.00  0.00    +0.057 HD
ATOM     34  H   UNL     1     147.726 163.722 188.678  0.00  0.00    +0.059 HD
ATOM     35  H   UNL     1     145.417 163.642 186.696  0.00  0.00    +0.064 HD
ATOM     36  H   UNL     1     145.697 165.100 189.380  0.00  0.00    +0.032 HD
ATOM     37  H   UNL     1     144.344 165.178 188.285  0.00  0.00    +0.032 HD
ATOM     38  H   UNL     1     146.561 165.829 186.629  0.00  0.00    +0.060 HD
ATOM     39  H   UNL     1     145.739 168.220 186.776  0.00  0.00    +0.036 HD
ATOM     40  H   UNL     1     143.832 167.127 188.895  0.00  0.00    +0.074 HD
ATOM     41  H   UNL     1     146.006 168.305 189.690  0.00  0.00    +0.035 HD
ATOM     42  H   UNL     1     144.456 168.812 190.339  0.00  0.00    +0.035 HD
ATOM     43  H   UNL     1     144.621 171.761 187.692  0.00  0.00    +0.069 HD
ATOM     44  H   UNL     1     147.322 170.482 189.491  0.00  0.00    +0.034 HD
ATOM     45  H   UNL     1     146.470 171.983 189.175  0.00  0.00    +0.034 HD
ATOM     46  H   UNL     1     145.844 170.286 191.660  0.00  0.00    +0.060 HD
ATOM     47  H   UNL     1     147.598 172.783 191.366  0.00  0.00    +0.034 HD
ATOM     48  H   UNL     1     147.079 172.142 192.903  0.00  0.00    +0.034 HD
ATOM     49  H   UNL     1     147.738 169.178 191.455  0.00  0.00    +0.062 HD
ATOM     50  H   UNL     1     149.836 168.304 190.683  0.00  0.00    +0.062 HD
ATOM     51  H   UNL     1     150.557 168.855 193.638  0.00  0.00    +0.069 HD
ATOM     52  H   UNL     1     152.973 165.377 191.443  0.00  0.00    +0.074 HD
ATOM     53  H   UNL     1     150.736 164.738 192.253  0.00  0.00    +0.038 HD
ATOM     54  H   UNL     1     152.221 162.829 191.392  0.00  0.00    +0.057 HD
ATOM     55  H   UNL     1     149.443 162.496 190.167  0.00  0.00    +0.059 HD
ATOM     56  H   UNL     1     149.973 160.187 190.879  0.00  0.00    +0.064 HD
ATOM     57  H   UNL     1     151.380 160.814 188.220  0.00  0.00    +0.032 HD
ATOM     58  H   UNL     1     150.896 159.237 188.736  0.00  0.00    +0.032 HD
ATOM     59  H   UNL     1     148.462 160.600 188.993  0.00  0.00    +0.060 HD
ENDROOT
BRANCH   1  60
ATOM     60  C   UNL     1     149.790 161.610 185.924  0.00  0.00    -0.057 C 
ATOM     61  H   UNL     1     150.882 161.536 185.975  0.00  0.00    +0.024 HD
ATOM     62  H   UNL     1     149.422 160.690 185.461  0.00  0.00    +0.024 HD
ATOM     63  H   UNL     1     149.545 162.441 185.254  0.00  0.00    +0.024 HD
ENDBRANCH   1  60
BRANCH  26  64
ATOM     64  C   UNL     1     149.608 165.035 190.494  0.00  0.00    -0.056 C 
ATOM     65  H   UNL     1     149.035 165.738 191.100  0.00  0.00    +0.024 HD
ATOM     66  H   UNL     1     149.790 165.505 189.521  0.00  0.00    +0.024 HD
ATOM     67  H   UNL     1     148.946 164.174 190.344  0.00  0.00    +0.024 HD
ENDBRANCH  26  64
BRANCH  18  68
ATOM     68  C   UNL     1     149.853 171.824 192.359  0.00  0.00    -0.043 C 
ATOM     69  H   UNL     1     150.218 171.522 193.346  0.00  0.00    +0.027 HD
ATOM     70  H   UNL     1     149.597 172.889 192.402  0.00  0.00    +0.027 HD
ATOM     71  H   UNL     1     150.681 171.715 191.654  0.00  0.00    +0.027 HD
ENDBRANCH  18  68
BRANCH   7  72
ATOM     72  C   UNL     1     144.248 166.911 186.028  0.00  0.00    -0.057 C 
ATOM     73  H   UNL     1     143.989 165.854 186.153  0.00  0.00    +0.023 HD
ATOM     74  H   UNL     1     143.318 167.485 185.976  0.00  0.00    +0.023 HD
ATOM     75  H   UNL     1     144.752 166.999 185.060  0.00  0.00    +0.023 HD
ENDBRANCH   7  72
BRANCH  25  76
ATOM     76  C   UNL     1     152.527 165.708 189.332  0.00  0.00    +0.020 C 
ATOM     77  H   UNL     1     151.829 165.087 188.751  0.00  0.00    +0.036 HD
BRANCH  76  78
ATOM     78  C   UNL     1     152.268 167.132 188.798  0.00  0.00    -0.057 C 
ATOM     79  H   UNL     1     153.175 167.740 188.876  0.00  0.00    +0.023 HD
ATOM     80  H   UNL     1     151.495 167.657 189.364  0.00  0.00    +0.023 HD
ATOM     81  H   UNL     1     151.984 167.121 187.742  0.00  0.00    +0.023 HD
ENDBRANCH  76  78
BRANCH  76  82
ATOM     82  C   UNL     1     153.948 165.182 188.992  0.00  0.00    +0.067 C 
ATOM     83  H   UNL     1     154.318 164.672 189.886  0.00  0.00    +0.060 HD
BRANCH  82  84
ATOM     84  C   UNL     1     155.033 166.220 188.560  0.00  0.00    -0.017 C 
ATOM     85  H   UNL     1     154.638 167.225 188.740  0.00  0.00    +0.032 HD
BRANCH  84  86
ATOM     86  C   UNL     1     156.247 166.038 189.490  0.00  0.00    -0.060 C 
ATOM     87  H   UNL     1     156.490 166.966 190.014  0.00  0.00    +0.023 HD
ATOM     88  H   UNL     1     156.065 165.267 190.244  0.00  0.00    +0.023 HD
ATOM     89  H   UNL     1     157.141 165.768 188.924  0.00  0.00    +0.023 HD
ENDBRANCH  84  86
BRANCH  84  90
ATOM     90  C   UNL     1     155.451 166.113 187.070  0.00  0.00    -0.041 C 
ATOM     91  H   UNL     1     155.182 165.123 186.691  0.00  0.00    +0.027 HD
ATOM     92  H   UNL     1     156.545 166.182 187.007  0.00  0.00    +0.027 HD
BRANCH  90  93
ATOM     93  C   UNL     1     154.892 167.156 186.100  0.00  0.00    +0.007 C 
ATOM     94  H   UNL     1     155.016 168.142 186.574  0.00  0.00    +0.034 HD
ATOM     95  H   UNL     1     153.817 167.071 185.916  0.00  0.00    +0.034 HD
BRANCH  93  96
ATOM     96  C   UNL     1     155.628 167.248 184.775  0.00  0.00    +0.139 C 
ATOM     97  O   UNL     1     156.073 166.222 184.254  0.00  0.00    -0.297 OA
BRANCH  96  98
ATOM     98  C   UNL     1     155.822 168.629 184.152  0.00  0.00    +0.041 C 
ATOM     99  H   UNL     1     155.095 169.307 184.610  0.00  0.00    +0.040 HD
BRANCH  98 100
ATOM    100  C   UNL     1     155.501 168.539 182.660  0.00  0.00    -0.053 C 
ATOM    101  H   UNL     1     155.276 167.514 182.353  0.00  0.00    +0.024 HD
ATOM    102  H   UNL     1     156.346 168.901 182.065  0.00  0.00    +0.024 HD
ATOM    103  H   UNL     1     154.628 169.150 182.412  0.00  0.00    +0.024 HD
ENDBRANCH  98 100
BRANCH  98 104
ATOM    104  C   UNL     1     157.236 169.209 184.412  0.00  0.00    +0.071 C 
ATOM    105  H   UNL     1     157.733 169.282 183.433  0.00  0.00    +0.061 HD
BRANCH 104 106
ATOM    106  C   UNL     1     157.213 170.614 185.061  0.00  0.00    -0.006 C 
ATOM    107  H   UNL     1     156.345 170.716 185.723  0.00  0.00    +0.033 HD
ATOM    108  H   UNL     1     158.079 170.724 185.726  0.00  0.00    +0.033 HD
BRANCH 106 109
ATOM    109  C   UNL     1     157.196 171.738 184.054  0.00  0.00    -0.067 C 
ATOM    110  C   UNL     1     156.167 172.588 183.922  0.00  0.00    -0.005 C 
ATOM    111  H   UNL     1     158.077 171.819 183.428  0.00  0.00    +0.059 HD
ATOM    112  H   UNL     1     155.294 172.451 184.563  0.00  0.00    +0.078 HD
BRANCH 110 113
ATOM    113  N   UNL     1     156.070 173.665 183.055  0.00  0.00    -0.284 N 
ATOM    114  C   UNL     1     155.149 173.785 182.018  0.00  0.00    +0.206 C 
ATOM    115  O   UNL     1     155.078 174.711 181.217  0.00  0.00    -0.279 OA
ATOM    116  H   UNL     1     154.441 172.947 181.949  0.00  0.00    +0.126 HD
BRANCH 113 117
ATOM    117  C   UNL     1     157.027 174.751 183.232  0.00  0.00    +0.007 C 
ATOM    118  H   UNL     1     156.483 175.653 183.539  0.00  0.00    +0.043 HD
ATOM    119  H   UNL     1     157.751 174.477 184.008  0.00  0.00    +0.043 HD
ATOM    120  H   UNL     1     157.576 174.976 182.313  0.00  0.00    +0.043 HD
ENDBRANCH 113 117
ENDBRANCH 110 113
ENDBRANCH 106 109
ENDBRANCH 104 106
BRANCH 104 121
ATOM    121  O   UNL     1     157.984 168.300 185.228  0.00  0.00    -0.379 OA
BRANCH 121 122
ATOM    122  C   UNL     1     159.271 168.774 185.594  0.00  0.00    +0.037 C 
ATOM    123  H   UNL     1     159.621 168.304 186.517  0.00  0.00    +0.052 HD
ATOM    124  H   UNL     1     159.258 169.861 185.708  0.00  0.00    +0.052 HD
ATOM    125  H   UNL     1     159.970 168.521 184.792  0.00  0.00    +0.052 HD
ENDBRANCH 121 122
ENDBRANCH 104 121
ENDBRANCH  98 104
ENDBRANCH  96  98
ENDBRANCH  93  96
ENDBRANCH  90  93
ENDBRANCH  84  90
ENDBRANCH  82  84
BRANCH  82 126
ATOM    126  O   UNL     1     153.845 164.196 187.945  0.00  0.00    -0.379 OA
BRANCH 126 127
ATOM    127  C   UNL     1     153.777 162.864 188.431  0.00  0.00    +0.037 C 
ATOM    128  H   UNL     1     153.819 162.868 189.523  0.00  0.00    +0.052 HD
ATOM    129  H   UNL     1     152.867 162.362 188.086  0.00  0.00    +0.052 HD
ATOM    130  H   UNL     1     154.645 162.315 188.053  0.00  0.00    +0.052 HD
ENDBRANCH 126 127
ENDBRANCH  82 126
ENDBRANCH  76  82
ENDBRANCH  25  76
BRANCH  31 131
ATOM    131  O   UNL     1     148.858 159.388 187.366  0.00  0.00    -0.379 OA
BRANCH 131 132
ATOM    132  C   UNL     1     149.591 158.212 187.686  0.00  0.00    +0.037 C 
ATOM    133  H   UNL     1     149.538 158.013 188.762  0.00  0.00    +0.052 HD
ATOM    134  H   UNL     1     150.634 158.301 187.373  0.00  0.00    +0.052 HD
ATOM    135  H   UNL     1     149.139 157.373 187.154  0.00  0.00    +0.052 HD
ENDBRANCH 131 132
ENDBRANCH  31 131
BRANCH  29 136
ATOM    136  O   UNL     1     152.033 160.438 190.770  0.00  0.00    -0.376 OA
BRANCH 136 137
ATOM    137  C   UNL     1     152.678 159.421 190.012  0.00  0.00    +0.037 C 
ATOM    138  H   UNL     1     152.223 159.324 189.022  0.00  0.00    +0.052 HD
ATOM    139  H   UNL     1     153.729 159.699 189.892  0.00  0.00    +0.052 HD
ATOM    140  H   UNL     1     152.638 158.463 190.544  0.00  0.00    +0.052 HD
ENDBRANCH 136 137
ENDBRANCH  29 136
BRANCH  16 141
ATOM    141  O   UNL     1     145.025 172.159 191.290  0.00  0.00    -0.379 OA
BRANCH 141 142
ATOM    142  C   UNL     1     145.431 173.516 191.168  0.00  0.00    +0.037 C 
ATOM    143  H   UNL     1     145.341 173.807 190.118  0.00  0.00    +0.052 HD
ATOM    144  H   UNL     1     144.775 174.155 191.766  0.00  0.00    +0.052 HD
ATOM    145  H   UNL     1     146.472 173.652 191.480  0.00  0.00    +0.052 HD
ENDBRANCH 141 142
ENDBRANCH  16 141
BRANCH   6 146
ATOM    146  O   UNL     1     147.192 166.708 188.388  0.00  0.00    -0.379 OA
BRANCH 146 147
ATOM    147  C   UNL     1     148.267 167.280 187.652  0.00  0.00    +0.037 C 
ATOM    148  H   UNL     1     149.100 167.439 188.338  0.00  0.00    +0.052 HD
ATOM    149  H   UNL     1     148.593 166.594 186.862  0.00  0.00    +0.052 HD
ATOM    150  H   UNL     1     147.986 168.245 187.222  0.00  0.00    +0.052 HD
ENDBRANCH 146 147
ENDBRANCH   6 146
BRANCH   4 151
ATOM    151  O   UNL     1     144.940 162.756 188.539  0.00  0.00    -0.376 OA
BRANCH 151 152
ATOM    152  C   UNL     1     143.573 163.139 188.623  0.00  0.00    +0.037 C 
ATOM    153  H   UNL     1     143.285 163.144 189.680  0.00  0.00    +0.052 HD
ATOM    154  H   UNL     1     142.934 162.427 188.093  0.00  0.00    +0.052 HD
ATOM    155  H   UNL     1     143.433 164.146 188.221  0.00  0.00    +0.052 HD
ENDBRANCH 151 152
ENDBRANCH   4 151
TORSDOF 33
ENDMDL
MODEL 7
REMARK VINA RESULT:      -4.6      3.722      9.846
REMARK  Name = Reidispongiolide A_conf1
REMARK  33 active torsions:
REMARK  status: ('A' for Active; 'I' for Inactive)
REMARK    1  A    between atoms: C_1  and  C_2
REMARK    2  A    between atoms: C_5  and  O_67
REMARK    3  A    between atoms: C_7  and  O_65
REMARK    4  A    between atoms: C_8  and  C_64
REMARK    5  A    between atoms: C_17  and  O_62
REMARK    6  A    between atoms: C_19  and  C_61
REMARK    7  A    between atoms: C_26  and  C_38
REMARK    8  A    between atoms: C_27  and  C_37
REMARK    9  A    between atoms: C_30  and  O_35
REMARK   10  A    between atoms: C_32  and  O_33
REMARK   11  A    between atoms: O_33  and  C_34
REMARK   12  A    between atoms: O_35  and  C_36
REMARK   13  A    between atoms: C_38  and  C_39
REMARK   14  A    between atoms: C_38  and  C_40
REMARK   15  A    between atoms: C_40  and  C_41
REMARK   16  A    between atoms: C_40  and  O_59
REMARK   17  A    between atoms: C_41  and  C_42
REMARK   18  A    between atoms: C_41  and  C_43
REMARK   19  A    between atoms: C_43  and  C_44
REMARK   20  A    between atoms: C_44  and  C_45
REMARK   21  A    between atoms: C_45  and  C_47
REMARK   22  A    between atoms: C_47  and  C_48
REMARK   23  A    between atoms: C_47  and  C_49
REMARK   24  A    between atoms: C_49  and  C_50
REMARK   25  A    between atoms: C_49  and  O_57
REMARK   26  A    between atoms: C_50  and  C_51
REMARK   27  A    between atoms: C_52  and  N_53
REMARK   28  A    between atoms: N_53  and  C_54
REMARK   29  A    between atoms: O_57  and  C_58
REMARK   30  A    between atoms: O_59  and  C_60
REMARK   31  A    between atoms: O_62  and  C_63
REMARK   32  A    between atoms: O_65  and  C_66
REMARK   33  A    between atoms: O_67  and  C_68
REMARK                            x       y       z     vdW  Elec       q    Type
REMARK                         _______ _______ _______ _____ _____    ______ ____
ROOT
ATOM      1  C   UNL     1     144.945 162.901 187.104  0.00  0.00    +0.001 C 
ATOM      2  C   UNL     1     143.944 163.998 187.417  0.00  0.00    -0.080 C 
ATOM      3  C   UNL     1     144.131 164.950 188.346  0.00  0.00    -0.059 C 
ATOM      4  C   UNL     1     143.112 166.003 188.689  0.00  0.00    +0.079 C 
ATOM      5  C   UNL     1     143.706 167.249 189.369  0.00  0.00    +0.004 C 
ATOM      6  C   UNL     1     144.653 168.081 188.479  0.00  0.00    +0.067 C 
ATOM      7  C   UNL     1     144.317 169.609 188.479  0.00  0.00    +0.020 C 
ATOM      8  C   UNL     1     144.201 170.266 189.892  0.00  0.00    +0.112 C 
ATOM      9  C   UNL     1     145.505 170.435 190.685  0.00  0.00    +0.006 C 
ATOM     10  C   UNL     1     146.276 171.656 190.257  0.00  0.00    -0.057 C 
ATOM     11  C   UNL     1     145.646 172.654 189.620  0.00  0.00    +0.022 C 
ATOM     12  C   UNL     1     144.192 172.653 189.400  0.00  0.00    +0.332 C 
ATOM     13  O   UNL     1     143.626 173.634 188.935  0.00  0.00    -0.246 OA
ATOM     14  O   UNL     1     143.520 171.542 189.784  0.00  0.00    -0.458 OA
ATOM     15  C   UNL     1     147.754 171.727 190.588  0.00  0.00    -0.004 C 
ATOM     16  C   UNL     1     148.045 171.752 192.111  0.00  0.00    +0.066 C 
ATOM     17  C   UNL     1     149.559 171.585 192.412  0.00  0.00    -0.005 C 
ATOM     18  C   UNL     1     150.240 170.261 192.074  0.00  0.00    -0.070 C 
ATOM     19  C   UNL     1     149.543 169.150 191.776  0.00  0.00    -0.062 C 
ATOM     20  C   UNL     1     150.016 167.879 191.301  0.00  0.00    -0.055 C 
ATOM     21  C   UNL     1     150.793 167.000 191.955  0.00  0.00    +0.023 C 
ATOM     22  C   UNL     1     150.985 165.620 191.446  0.00  0.00    +0.332 C 
ATOM     23  O   UNL     1     151.422 164.709 192.129  0.00  0.00    -0.246 OA
ATOM     24  O   UNL     1     150.509 165.516 190.186  0.00  0.00    -0.457 OA
ATOM     25  C   UNL     1     150.158 164.204 189.658  0.00  0.00    +0.114 C 
ATOM     26  C   UNL     1     148.786 163.811 190.318  0.00  0.00    +0.012 C 
ATOM     27  C   UNL     1     148.293 162.412 190.000  0.00  0.00    -0.079 C 
ATOM     28  C   UNL     1     147.023 162.066 189.715  0.00  0.00    -0.059 C 
ATOM     29  C   UNL     1     146.479 160.697 189.384  0.00  0.00    +0.079 C 
ATOM     30  C   UNL     1     145.793 160.642 188.000  0.00  0.00    +0.004 C 
ATOM     31  C   UNL     1     144.577 161.592 187.871  0.00  0.00    +0.067 C 
ATOM     32  H   UNL     1     145.931 163.242 187.436  0.00  0.00    +0.037 HD
ATOM     33  H   UNL     1     143.001 163.959 186.871  0.00  0.00    +0.057 HD
ATOM     34  H   UNL     1     145.044 164.962 188.932  0.00  0.00    +0.059 HD
ATOM     35  H   UNL     1     142.573 166.320 187.784  0.00  0.00    +0.064 HD
ATOM     36  H   UNL     1     144.214 166.953 190.296  0.00  0.00    +0.032 HD
ATOM     37  H   UNL     1     142.844 167.844 189.692  0.00  0.00    +0.032 HD
ATOM     38  H   UNL     1     144.582 167.715 187.445  0.00  0.00    +0.060 HD
ATOM     39  H   UNL     1     145.111 170.141 187.941  0.00  0.00    +0.036 HD
ATOM     40  H   UNL     1     143.534 169.657 190.511  0.00  0.00    +0.074 HD
ATOM     41  H   UNL     1     146.127 169.541 190.621  0.00  0.00    +0.035 HD
ATOM     42  H   UNL     1     145.254 170.565 191.748  0.00  0.00    +0.035 HD
ATOM     43  H   UNL     1     146.158 173.557 189.306  0.00  0.00    +0.069 HD
ATOM     44  H   UNL     1     148.239 170.874 190.102  0.00  0.00    +0.034 HD
ATOM     45  H   UNL     1     148.187 172.628 190.133  0.00  0.00    +0.034 HD
ATOM     46  H   UNL     1     147.473 170.966 192.618  0.00  0.00    +0.060 HD
ATOM     47  H   UNL     1     150.084 172.395 191.883  0.00  0.00    +0.034 HD
ATOM     48  H   UNL     1     149.733 171.783 193.478  0.00  0.00    +0.034 HD
ATOM     49  H   UNL     1     148.452 169.178 191.778  0.00  0.00    +0.062 HD
ATOM     50  H   UNL     1     149.568 167.609 190.346  0.00  0.00    +0.062 HD
ATOM     51  H   UNL     1     151.200 167.201 192.939  0.00  0.00    +0.069 HD
ATOM     52  H   UNL     1     150.935 163.490 189.953  0.00  0.00    +0.074 HD
ATOM     53  H   UNL     1     148.969 163.799 191.405  0.00  0.00    +0.038 HD
ATOM     54  H   UNL     1     149.044 161.625 190.042  0.00  0.00    +0.057 HD
ATOM     55  H   UNL     1     146.254 162.832 189.749  0.00  0.00    +0.059 HD
ATOM     56  H   UNL     1     145.744 160.448 190.163  0.00  0.00    +0.064 HD
ATOM     57  H   UNL     1     146.537 160.856 187.222  0.00  0.00    +0.032 HD
ATOM     58  H   UNL     1     145.492 159.607 187.801  0.00  0.00    +0.032 HD
ATOM     59  H   UNL     1     144.203 161.853 188.872  0.00  0.00    +0.060 HD
ENDROOT
BRANCH   1  60
ATOM     60  C   UNL     1     145.013 162.707 185.583  0.00  0.00    -0.057 C 
ATOM     61  H   UNL     1     144.017 162.613 185.137  0.00  0.00    +0.024 HD
ATOM     62  H   UNL     1     145.504 163.562 185.107  0.00  0.00    +0.024 HD
ATOM     63  H   UNL     1     145.581 161.809 185.321  0.00  0.00    +0.024 HD
ENDBRANCH   1  60
BRANCH  26  64
ATOM     64  C   UNL     1     147.723 164.904 190.108  0.00  0.00    -0.056 C 
ATOM     65  H   UNL     1     147.970 165.828 190.635  0.00  0.00    +0.024 HD
ATOM     66  H   UNL     1     147.600 165.149 189.047  0.00  0.00    +0.024 HD
ATOM     67  H   UNL     1     146.751 164.594 190.507  0.00  0.00    +0.024 HD
ENDBRANCH  26  64
BRANCH  18  68
ATOM     68  C   UNL     1     151.744 170.346 192.069  0.00  0.00    -0.043 C 
ATOM     69  H   UNL     1     152.116 170.306 191.040  0.00  0.00    +0.027 HD
ATOM     70  H   UNL     1     152.173 169.499 192.619  0.00  0.00    +0.027 HD
ATOM     71  H   UNL     1     152.131 171.260 192.524  0.00  0.00    +0.027 HD
ENDBRANCH  18  68
BRANCH   7  72
ATOM     72  C   UNL     1     143.034 169.822 187.653  0.00  0.00    -0.057 C 
ATOM     73  H   UNL     1     142.381 168.946 187.723  0.00  0.00    +0.023 HD
ATOM     74  H   UNL     1     142.471 170.696 187.998  0.00  0.00    +0.023 HD
ATOM     75  H   UNL     1     143.259 169.964 186.591  0.00  0.00    +0.023 HD
ENDBRANCH   7  72
BRANCH  25  76
ATOM     76  C   UNL     1     150.182 164.381 188.108  0.00  0.00    +0.020 C 
ATOM     77  H   UNL     1     149.162 164.188 187.746  0.00  0.00    +0.036 HD
BRANCH  76  78
ATOM     78  C   UNL     1     150.417 165.861 187.742  0.00  0.00    -0.057 C 
ATOM     79  H   UNL     1     149.601 166.234 187.113  0.00  0.00    +0.023 HD
ATOM     80  H   UNL     1     151.337 166.010 187.172  0.00  0.00    +0.023 HD
ATOM     81  H   UNL     1     150.447 166.496 188.630  0.00  0.00    +0.023 HD
ENDBRANCH  76  78
BRANCH  76  82
ATOM     82  C   UNL     1     151.104 163.409 187.322  0.00  0.00    +0.067 C 
ATOM     83  H   UNL     1     151.641 164.011 186.582  0.00  0.00    +0.060 HD
BRANCH  82  84
ATOM     84  C   UNL     1     150.439 162.215 186.564  0.00  0.00    -0.017 C 
ATOM     85  H   UNL     1     151.050 161.983 185.686  0.00  0.00    +0.032 HD
BRANCH  84  86
ATOM     86  C   UNL     1     150.493 160.987 187.492  0.00  0.00    -0.060 C 
ATOM     87  H   UNL     1     151.493 160.546 187.510  0.00  0.00    +0.023 HD
ATOM     88  H   UNL     1     150.223 161.246 188.520  0.00  0.00    +0.023 HD
ATOM     89  H   UNL     1     149.822 160.199 187.144  0.00  0.00    +0.023 HD
ENDBRANCH  84  86
BRANCH  84  90
ATOM     90  C   UNL     1     148.987 162.496 186.095  0.00  0.00    -0.041 C 
ATOM     91  H   UNL     1     148.660 163.461 186.493  0.00  0.00    +0.027 HD
ATOM     92  H   UNL     1     148.325 161.740 186.534  0.00  0.00    +0.027 HD
BRANCH  90  93
ATOM     93  C   UNL     1     148.716 162.492 184.589  0.00  0.00    +0.007 C 
ATOM     94  H   UNL     1     147.814 161.883 184.422  0.00  0.00    +0.034 HD
ATOM     95  H   UNL     1     149.492 162.005 183.991  0.00  0.00    +0.034 HD
BRANCH  93  96
ATOM     96  C   UNL     1     148.399 163.854 183.999  0.00  0.00    +0.139 C 
ATOM     97  O   UNL     1     147.364 164.008 183.346  0.00  0.00    -0.297 OA
BRANCH  96  98
ATOM     98  C   UNL     1     149.405 164.984 184.211  0.00  0.00    +0.041 C 
ATOM     99  H   UNL     1     149.952 164.775 185.135  0.00  0.00    +0.040 HD
BRANCH  98 100
ATOM    100  C   UNL     1     148.636 166.290 184.407  0.00  0.00    -0.053 C 
ATOM    101  H   UNL     1     148.224 166.372 185.416  0.00  0.00    +0.024 HD
ATOM    102  H   UNL     1     147.811 166.360 183.690  0.00  0.00    +0.024 HD
ATOM    103  H   UNL     1     149.290 167.153 184.254  0.00  0.00    +0.024 HD
ENDBRANCH  98 100
BRANCH  98 104
ATOM    104  C   UNL     1     150.442 165.083 183.062  0.00  0.00    +0.071 C 
ATOM    105  H   UNL     1     150.536 166.150 182.811  0.00  0.00    +0.061 HD
BRANCH 104 106
ATOM    106  C   UNL     1     151.840 164.541 183.450  0.00  0.00    -0.006 C 
ATOM    107  H   UNL     1     151.801 163.456 183.605  0.00  0.00    +0.033 HD
ATOM    108  H   UNL     1     152.530 164.672 182.606  0.00  0.00    +0.033 HD
BRANCH 106 109
ATOM    109  C   UNL     1     152.413 165.194 184.684  0.00  0.00    -0.067 C 
ATOM    110  C   UNL     1     153.709 165.517 184.806  0.00  0.00    -0.005 C 
ATOM    111  H   UNL     1     151.707 165.387 185.482  0.00  0.00    +0.059 HD
ATOM    112  H   UNL     1     154.383 165.283 183.980  0.00  0.00    +0.078 HD
BRANCH 110 113
ATOM    113  N   UNL     1     154.324 166.145 185.879  0.00  0.00    -0.284 N 
ATOM    114  C   UNL     1     153.676 166.906 186.847  0.00  0.00    +0.206 C 
ATOM    115  O   UNL     1     154.211 167.502 187.776  0.00  0.00    -0.279 OA
ATOM    116  H   UNL     1     152.584 166.949 186.727  0.00  0.00    +0.126 HD
BRANCH 113 117
ATOM    117  C   UNL     1     155.772 166.015 185.985  0.00  0.00    +0.007 C 
ATOM    118  H   UNL     1     156.239 166.908 185.552  0.00  0.00    +0.043 HD
ATOM    119  H   UNL     1     156.055 165.929 187.041  0.00  0.00    +0.043 HD
ATOM    120  H   UNL     1     156.151 165.136 185.455  0.00  0.00    +0.043 HD
ENDBRANCH 113 117
ENDBRANCH 110 113
ENDBRANCH 106 109
ENDBRANCH 104 106
BRANCH 104 121
ATOM    121  O   UNL     1     149.947 164.393 181.909  0.00  0.00    -0.379 OA
BRANCH 121 122
ATOM    122  C   UNL     1     150.940 163.672 181.193  0.00  0.00    +0.037 C 
ATOM    123  H   UNL     1     150.748 162.597 181.218  0.00  0.00    +0.052 HD
ATOM    124  H   UNL     1     151.932 163.886 181.599  0.00  0.00    +0.052 HD
ATOM    125  H   UNL     1     150.917 164.002 180.151  0.00  0.00    +0.052 HD
ENDBRANCH 121 122
ENDBRANCH 104 121
ENDBRANCH  98 104
ENDBRANCH  96  98
ENDBRANCH  93  96
ENDBRANCH  90  93
ENDBRANCH  84  90
ENDBRANCH  82  84
BRANCH  82 126
ATOM    126  O   UNL     1     152.085 162.861 188.225  0.00  0.00    -0.379 OA
BRANCH 126 127
ATOM    127  C   UNL     1     153.404 163.321 187.971  0.00  0.00    +0.037 C 
ATOM    128  H   UNL     1     154.015 162.495 187.595  0.00  0.00    +0.052 HD
ATOM    129  H   UNL     1     153.403 164.151 187.257  0.00  0.00    +0.052 HD
ATOM    130  H   UNL     1     153.834 163.669 188.915  0.00  0.00    +0.052 HD
ENDBRANCH 126 127
ENDBRANCH  82 126
ENDBRANCH  76  82
ENDBRANCH  25  76
BRANCH  31 131
ATOM    131  O   UNL     1     143.517 160.926 187.156  0.00  0.00    -0.379 OA
BRANCH 131 132
ATOM    132  C   UNL     1     143.829 159.578 186.823  0.00  0.00    +0.037 C 
ATOM    133  H   UNL     1     143.450 158.899 187.594  0.00  0.00    +0.052 HD
ATOM    134  H   UNL     1     144.905 159.441 186.699  0.00  0.00    +0.052 HD
ATOM    135  H   UNL     1     143.338 159.339 185.877  0.00  0.00    +0.052 HD
ENDBRANCH 131 132
ENDBRANCH  31 131
BRANCH  29 136
ATOM    136  O   UNL     1     147.553 159.749 189.415  0.00  0.00    -0.376 OA
BRANCH 136 137
ATOM    137  C   UNL     1     147.486 158.815 188.344  0.00  0.00    +0.037 C 
ATOM    138  H   UNL     1     146.856 159.194 187.534  0.00  0.00    +0.052 HD
ATOM    139  H   UNL     1     148.498 158.661 187.961  0.00  0.00    +0.052 HD
ATOM    140  H   UNL     1     147.106 157.850 188.700  0.00  0.00    +0.052 HD
ENDBRANCH 136 137
ENDBRANCH  29 136
BRANCH  16 141
ATOM    141  O   UNL     1     147.617 173.038 192.603  0.00  0.00    -0.379 OA
BRANCH 141 142
ATOM    142  C   UNL     1     148.574 174.065 192.377  0.00  0.00    +0.037 C 
ATOM    143  H   UNL     1     149.572 173.627 192.461  0.00  0.00    +0.052 HD
ATOM    144  H   UNL     1     148.453 174.469 191.367  0.00  0.00    +0.052 HD
ATOM    145  H   UNL     1     148.481 174.868 193.115  0.00  0.00    +0.052 HD
ENDBRANCH 141 142
ENDBRANCH  16 141
BRANCH   6 146
ATOM    146  O   UNL     1     145.992 167.859 188.947  0.00  0.00    -0.379 OA
BRANCH 146 147
ATOM    147  C   UNL     1     146.990 168.249 188.010  0.00  0.00    +0.037 C 
ATOM    148  H   UNL     1     146.632 169.136 187.485  0.00  0.00    +0.052 HD
ATOM    149  H   UNL     1     147.920 168.504 188.529  0.00  0.00    +0.052 HD
ATOM    150  H   UNL     1     147.172 167.463 187.273  0.00  0.00    +0.052 HD
ENDBRANCH 146 147
ENDBRANCH   6 146
BRANCH   4 151
ATOM    151  O   UNL     1     142.216 165.417 189.646  0.00  0.00    -0.376 OA
BRANCH 151 152
ATOM    152  C   UNL     1     142.481 165.841 190.977  0.00  0.00    +0.037 C 
ATOM    153  H   UNL     1     141.568 165.708 191.566  0.00  0.00    +0.052 HD
ATOM    154  H   UNL     1     142.759 166.899 191.003  0.00  0.00    +0.052 HD
ATOM    155  H   UNL     1     143.272 165.230 191.421  0.00  0.00    +0.052 HD
ENDBRANCH 151 152
ENDBRANCH   4 151
TORSDOF 33
ENDMDL
MODEL 8
REMARK VINA RESULT:      -4.6      3.038     10.338
REMARK  Name = Reidispongiolide A_conf1
REMARK  33 active torsions:
REMARK  status: ('A' for Active; 'I' for Inactive)
REMARK    1  A    between atoms: C_1  and  C_2
REMARK    2  A    between atoms: C_5  and  O_67
REMARK    3  A    between atoms: C_7  and  O_65
REMARK    4  A    between atoms: C_8  and  C_64
REMARK    5  A    between atoms: C_17  and  O_62
REMARK    6  A    between atoms: C_19  and  C_61
REMARK    7  A    between atoms: C_26  and  C_38
REMARK    8  A    between atoms: C_27  and  C_37
REMARK    9  A    between atoms: C_30  and  O_35
REMARK   10  A    between atoms: C_32  and  O_33
REMARK   11  A    between atoms: O_33  and  C_34
REMARK   12  A    between atoms: O_35  and  C_36
REMARK   13  A    between atoms: C_38  and  C_39
REMARK   14  A    between atoms: C_38  and  C_40
REMARK   15  A    between atoms: C_40  and  C_41
REMARK   16  A    between atoms: C_40  and  O_59
REMARK   17  A    between atoms: C_41  and  C_42
REMARK   18  A    between atoms: C_41  and  C_43
REMARK   19  A    between atoms: C_43  and  C_44
REMARK   20  A    between atoms: C_44  and  C_45
REMARK   21  A    between atoms: C_45  and  C_47
REMARK   22  A    between atoms: C_47  and  C_48
REMARK   23  A    between atoms: C_47  and  C_49
REMARK   24  A    between atoms: C_49  and  C_50
REMARK   25  A    between atoms: C_49  and  O_57
REMARK   26  A    between atoms: C_50  and  C_51
REMARK   27  A    between atoms: C_52  and  N_53
REMARK   28  A    between atoms: N_53  and  C_54
REMARK   29  A    between atoms: O_57  and  C_58
REMARK   30  A    between atoms: O_59  and  C_60
REMARK   31  A    between atoms: O_62  and  C_63
REMARK   32  A    between atoms: O_65  and  C_66
REMARK   33  A    between atoms: O_67  and  C_68
REMARK                            x       y       z     vdW  Elec       q    Type
REMARK                         _______ _______ _______ _____ _____    ______ ____
ROOT
ATOM      1  C   UNL     1     148.881 165.042 185.821  0.00  0.00    +0.001 C 
ATOM      2  C   UNL     1     148.390 165.980 184.733  0.00  0.00    -0.080 C 
ATOM      3  C   UNL     1     147.287 166.740 184.831  0.00  0.00    -0.059 C 
ATOM      4  C   UNL     1     146.776 167.627 183.729  0.00  0.00    +0.079 C 
ATOM      5  C   UNL     1     145.845 168.754 184.214  0.00  0.00    +0.004 C 
ATOM      6  C   UNL     1     146.524 169.811 185.109  0.00  0.00    +0.067 C 
ATOM      7  C   UNL     1     146.233 171.280 184.658  0.00  0.00    +0.020 C 
ATOM      8  C   UNL     1     144.724 171.634 184.467  0.00  0.00    +0.112 C 
ATOM      9  C   UNL     1     143.871 171.735 185.741  0.00  0.00    +0.006 C 
ATOM     10  C   UNL     1     144.026 173.068 186.423  0.00  0.00    -0.057 C 
ATOM     11  C   UNL     1     144.474 174.125 185.730  0.00  0.00    +0.022 C 
ATOM     12  C   UNL     1     144.736 174.064 184.284  0.00  0.00    +0.332 C 
ATOM     13  O   UNL     1     145.018 175.074 183.653  0.00  0.00    -0.246 OA
ATOM     14  O   UNL     1     144.600 172.854 183.692  0.00  0.00    -0.458 OA
ATOM     15  C   UNL     1     143.639 173.178 187.885  0.00  0.00    -0.004 C 
ATOM     16  C   UNL     1     142.133 172.920 188.147  0.00  0.00    +0.066 C 
ATOM     17  C   UNL     1     141.822 172.806 189.663  0.00  0.00    -0.005 C 
ATOM     18  C   UNL     1     142.391 171.628 190.449  0.00  0.00    -0.070 C 
ATOM     19  C   UNL     1     142.925 170.551 189.845  0.00  0.00    -0.062 C 
ATOM     20  C   UNL     1     143.625 169.436 190.422  0.00  0.00    -0.055 C 
ATOM     21  C   UNL     1     143.131 168.504 191.253  0.00  0.00    +0.023 C 
ATOM     22  C   UNL     1     143.896 167.269 191.559  0.00  0.00    +0.332 C 
ATOM     23  O   UNL     1     143.391 166.275 192.052  0.00  0.00    -0.246 OA
ATOM     24  O   UNL     1     145.167 167.384 191.114  0.00  0.00    -0.457 OA
ATOM     25  C   UNL     1     145.953 166.181 190.873  0.00  0.00    +0.114 C 
ATOM     26  C   UNL     1     145.428 165.567 189.525  0.00  0.00    +0.012 C 
ATOM     27  C   UNL     1     146.031 164.228 189.146  0.00  0.00    -0.079 C 
ATOM     28  C   UNL     1     146.419 163.855 187.911  0.00  0.00    -0.059 C 
ATOM     29  C   UNL     1     147.030 162.544 187.480  0.00  0.00    +0.079 C 
ATOM     30  C   UNL     1     148.419 162.717 186.824  0.00  0.00    +0.004 C 
ATOM     31  C   UNL     1     148.398 163.583 185.541  0.00  0.00    +0.067 C 
ATOM     32  H   UNL     1     148.456 165.380 186.772  0.00  0.00    +0.037 HD
ATOM     33  H   UNL     1     148.963 165.983 183.806  0.00  0.00    +0.057 HD
ATOM     34  H   UNL     1     146.680 166.700 185.730  0.00  0.00    +0.059 HD
ATOM     35  H   UNL     1     147.618 168.079 183.183  0.00  0.00    +0.064 HD
ATOM     36  H   UNL     1     144.978 168.316 184.727  0.00  0.00    +0.032 HD
ATOM     37  H   UNL     1     145.440 169.209 183.304  0.00  0.00    +0.032 HD
ATOM     38  H   UNL     1     147.611 169.653 185.085  0.00  0.00    +0.060 HD
ATOM     39  H   UNL     1     146.631 171.964 185.418  0.00  0.00    +0.036 HD
ATOM     40  H   UNL     1     144.259 170.868 183.838  0.00  0.00    +0.074 HD
ATOM     41  H   UNL     1     144.090 170.918 186.430  0.00  0.00    +0.035 HD
ATOM     42  H   UNL     1     142.812 171.633 185.461  0.00  0.00    +0.035 HD
ATOM     43  H   UNL     1     144.587 175.107 186.176  0.00  0.00    +0.069 HD
ATOM     44  H   UNL     1     144.268 172.475 188.443  0.00  0.00    +0.034 HD
ATOM     45  H   UNL     1     143.894 174.179 188.256  0.00  0.00    +0.034 HD
ATOM     46  H   UNL     1     141.809 172.010 187.628  0.00  0.00    +0.060 HD
ATOM     47  H   UNL     1     142.164 173.741 190.134  0.00  0.00    +0.034 HD
ATOM     48  H   UNL     1     140.733 172.800 189.804  0.00  0.00    +0.034 HD
ATOM     49  H   UNL     1     142.952 170.500 188.755  0.00  0.00    +0.062 HD
ATOM     50  H   UNL     1     144.628 169.331 190.013  0.00  0.00    +0.062 HD
ATOM     51  H   UNL     1     142.115 168.533 191.626  0.00  0.00    +0.069 HD
ATOM     52  H   UNL     1     145.779 165.480 191.697  0.00  0.00    +0.074 HD
ATOM     53  H   UNL     1     144.360 165.353 189.689  0.00  0.00    +0.038 HD
ATOM     54  H   UNL     1     146.120 163.504 189.954  0.00  0.00    +0.057 HD
ATOM     55  H   UNL     1     146.260 164.543 187.085  0.00  0.00    +0.059 HD
ATOM     56  H   UNL     1     146.340 162.094 186.752  0.00  0.00    +0.064 HD
ATOM     57  H   UNL     1     149.115 163.133 187.562  0.00  0.00    +0.032 HD
ATOM     58  H   UNL     1     148.828 161.722 186.606  0.00  0.00    +0.032 HD
ATOM     59  H   UNL     1     147.378 163.613 185.131  0.00  0.00    +0.060 HD
ENDROOT
BRANCH   1  60
ATOM     60  C   UNL     1     150.407 165.159 185.930  0.00  0.00    -0.057 C 
ATOM     61  H   UNL     1     150.807 164.555 186.753  0.00  0.00    +0.024 HD
ATOM     62  H   UNL     1     150.886 164.815 185.009  0.00  0.00    +0.024 HD
ATOM     63  H   UNL     1     150.716 166.196 186.098  0.00  0.00    +0.024 HD
ENDBRANCH   1  60
BRANCH  26  64
ATOM     64  C   UNL     1     145.453 166.602 188.385  0.00  0.00    -0.056 C 
ATOM     65  H   UNL     1     145.357 166.137 187.402  0.00  0.00    +0.024 HD
ATOM     66  H   UNL     1     144.645 167.335 188.487  0.00  0.00    +0.024 HD
ATOM     67  H   UNL     1     146.407 167.141 188.360  0.00  0.00    +0.024 HD
ENDBRANCH  26  64
BRANCH  18  68
ATOM     68  C   UNL     1     142.331 171.819 191.943  0.00  0.00    -0.043 C 
ATOM     69  H   UNL     1     141.400 172.328 192.215  0.00  0.00    +0.027 HD
ATOM     70  H   UNL     1     143.169 172.440 192.279  0.00  0.00    +0.027 HD
ATOM     71  H   UNL     1     142.371 170.884 192.505  0.00  0.00    +0.027 HD
ENDBRANCH  18  68
BRANCH   7  72
ATOM     72  C   UNL     1     147.042 171.561 183.377  0.00  0.00    -0.057 C 
ATOM     73  H   UNL     1     146.481 171.247 182.490  0.00  0.00    +0.023 HD
ATOM     74  H   UNL     1     147.278 172.625 183.272  0.00  0.00    +0.023 HD
ATOM     75  H   UNL     1     147.985 171.005 183.366  0.00  0.00    +0.023 HD
ENDBRANCH   7  72
BRANCH  25  76
ATOM     76  C   UNL     1     147.437 166.664 190.911  0.00  0.00    +0.020 C 
ATOM     77  H   UNL     1     147.873 166.441 189.926  0.00  0.00    +0.036 HD
BRANCH  76  78
ATOM     78  C   UNL     1     147.497 168.203 190.989  0.00  0.00    -0.057 C 
ATOM     79  H   UNL     1     148.531 168.539 191.125  0.00  0.00    +0.023 HD
ATOM     80  H   UNL     1     146.930 168.601 191.834  0.00  0.00    +0.023 HD
ATOM     81  H   UNL     1     147.132 168.668 190.070  0.00  0.00    +0.023 HD
ENDBRANCH  76  78
BRANCH  76  82
ATOM     82  C   UNL     1     148.357 165.968 191.951  0.00  0.00    +0.067 C 
ATOM     83  H   UNL     1     148.994 166.747 192.381  0.00  0.00    +0.060 HD
BRANCH  82  84
ATOM     84  C   UNL     1     149.291 164.818 191.455  0.00  0.00    -0.017 C 
ATOM     85  H   UNL     1     150.271 164.944 191.926  0.00  0.00    +0.032 HD
BRANCH  84  86
ATOM     86  C   UNL     1     148.707 163.490 191.972  0.00  0.00    -0.060 C 
ATOM     87  H   UNL     1     149.085 162.639 191.398  0.00  0.00    +0.023 HD
ATOM     88  H   UNL     1     148.956 163.321 193.023  0.00  0.00    +0.023 HD
ATOM     89  H   UNL     1     147.620 163.467 191.863  0.00  0.00    +0.023 HD
ENDBRANCH  84  86
BRANCH  84  90
ATOM     90  C   UNL     1     149.483 164.781 189.916  0.00  0.00    -0.041 C 
ATOM     91  H   UNL     1     148.667 165.330 189.438  0.00  0.00    +0.027 HD
ATOM     92  H   UNL     1     149.398 163.741 189.577  0.00  0.00    +0.027 HD
BRANCH  90  93
ATOM     93  C   UNL     1     150.802 165.316 189.354  0.00  0.00    +0.007 C 
ATOM     94  H   UNL     1     150.881 164.962 188.314  0.00  0.00    +0.034 HD
ATOM     95  H   UNL     1     151.696 164.923 189.848  0.00  0.00    +0.034 HD
BRANCH  93  96
ATOM     96  C   UNL     1     150.889 166.830 189.275  0.00  0.00    +0.139 C 
ATOM     97  O   UNL     1     150.069 167.451 188.594  0.00  0.00    -0.297 OA
BRANCH  96  98
ATOM     98  C   UNL     1     152.023 167.527 190.023  0.00  0.00    +0.041 C 
ATOM     99  H   UNL     1     152.339 168.387 189.424  0.00  0.00    +0.040 HD
BRANCH  98 100
ATOM    100  C   UNL     1     153.206 166.566 190.121  0.00  0.00    -0.053 C 
ATOM    101  H   UNL     1     153.522 166.413 191.156  0.00  0.00    +0.024 HD
ATOM    102  H   UNL     1     154.060 166.950 189.552  0.00  0.00    +0.024 HD
ATOM    103  H   UNL     1     152.946 165.585 189.714  0.00  0.00    +0.024 HD
ENDBRANCH  98 100
BRANCH  98 104
ATOM    104  C   UNL     1     151.584 168.058 191.413  0.00  0.00    +0.071 C 
ATOM    105  H   UNL     1     150.520 167.803 191.527  0.00  0.00    +0.061 HD
BRANCH 104 106
ATOM    106  C   UNL     1     152.373 167.431 192.587  0.00  0.00    -0.006 C 
ATOM    107  H   UNL     1     153.188 166.802 192.208  0.00  0.00    +0.033 HD
ATOM    108  H   UNL     1     152.880 168.223 193.152  0.00  0.00    +0.033 HD
BRANCH 106 109
ATOM    109  C   UNL     1     151.512 166.611 193.516  0.00  0.00    -0.067 C 
ATOM    110  C   UNL     1     151.928 166.191 194.719  0.00  0.00    -0.005 C 
ATOM    111  H   UNL     1     150.522 166.371 193.147  0.00  0.00    +0.059 HD
ATOM    112  H   UNL     1     152.942 166.442 195.036  0.00  0.00    +0.078 HD
BRANCH 110 113
ATOM    113  N   UNL     1     151.206 165.465 195.655  0.00  0.00    -0.284 N 
ATOM    114  C   UNL     1     151.332 164.098 195.886  0.00  0.00    +0.206 C 
ATOM    115  O   UNL     1     150.671 163.435 196.679  0.00  0.00    -0.279 OA
ATOM    116  H   UNL     1     152.107 163.611 195.279  0.00  0.00    +0.126 HD
BRANCH 113 117
ATOM    117  C   UNL     1     150.217 166.191 196.443  0.00  0.00    +0.007 C 
ATOM    118  H   UNL     1     149.215 165.917 196.090  0.00  0.00    +0.043 HD
ATOM    119  H   UNL     1     150.321 165.919 197.500  0.00  0.00    +0.043 HD
ATOM    120  H   UNL     1     150.329 167.276 196.355  0.00  0.00    +0.043 HD
ENDBRANCH 113 117
ENDBRANCH 110 113
ENDBRANCH 106 109
ENDBRANCH 104 106
BRANCH 104 121
ATOM    121  O   UNL     1     151.707 169.485 191.440  0.00  0.00    -0.379 OA
BRANCH 121 122
ATOM    122  C   UNL     1     150.561 170.157 191.943  0.00  0.00    +0.037 C 
ATOM    123  H   UNL     1     150.708 171.239 191.959  0.00  0.00    +0.052 HD
ATOM    124  H   UNL     1     150.318 169.796 192.946  0.00  0.00    +0.052 HD
ATOM    125  H   UNL     1     149.718 169.933 191.284  0.00  0.00    +0.052 HD
ENDBRANCH 121 122
ENDBRANCH 104 121
ENDBRANCH  98 104
ENDBRANCH  96  98
ENDBRANCH  93  96
ENDBRANCH  90  93
ENDBRANCH  84  90
ENDBRANCH  82  84
BRANCH  82 126
ATOM    126  O   UNL     1     147.543 165.441 193.018  0.00  0.00    -0.379 OA
BRANCH 126 127
ATOM    127  C   UNL     1     147.498 166.281 194.161  0.00  0.00    +0.037 C 
ATOM    128  H   UNL     1     147.926 165.757 195.020  0.00  0.00    +0.052 HD
ATOM    129  H   UNL     1     148.031 167.221 193.983  0.00  0.00    +0.052 HD
ATOM    130  H   UNL     1     146.449 166.507 194.380  0.00  0.00    +0.052 HD
ENDBRANCH 126 127
ENDBRANCH  82 126
ENDBRANCH  76  82
ENDBRANCH  25  76
BRANCH  31 131
ATOM    131  O   UNL     1     149.263 162.998 184.548  0.00  0.00    -0.379 OA
BRANCH 131 132
ATOM    132  C   UNL     1     149.585 161.639 184.818  0.00  0.00    +0.037 C 
ATOM    133  H   UNL     1     148.750 160.988 184.538  0.00  0.00    +0.052 HD
ATOM    134  H   UNL     1     149.836 161.494 185.871  0.00  0.00    +0.052 HD
ATOM    135  H   UNL     1     150.454 161.368 184.214  0.00  0.00    +0.052 HD
ENDBRANCH 131 132
ENDBRANCH  31 131
BRANCH  29 136
ATOM    136  O   UNL     1     147.151 161.688 188.622  0.00  0.00    -0.376 OA
BRANCH 136 137
ATOM    137  C   UNL     1     148.495 161.282 188.858  0.00  0.00    +0.037 C 
ATOM    138  H   UNL     1     148.760 161.407 189.912  0.00  0.00    +0.052 HD
ATOM    139  H   UNL     1     148.583 160.225 188.595  0.00  0.00    +0.052 HD
ATOM    140  H   UNL     1     149.184 161.850 188.223  0.00  0.00    +0.052 HD
ENDBRANCH 136 137
ENDBRANCH  29 136
BRANCH  16 141
ATOM    141  O   UNL     1     141.412 174.050 187.613  0.00  0.00    -0.379 OA
BRANCH 141 142
ATOM    142  C   UNL     1     141.635 175.248 188.346  0.00  0.00    +0.037 C 
ATOM    143  H   UNL     1     142.673 175.250 188.688  0.00  0.00    +0.052 HD
ATOM    144  H   UNL     1     141.479 176.114 187.696  0.00  0.00    +0.052 HD
ATOM    145  H   UNL     1     140.978 175.311 189.219  0.00  0.00    +0.052 HD
ENDBRANCH 141 142
ENDBRANCH  16 141
BRANCH   6 146
ATOM    146  O   UNL     1     146.065 169.597 186.454  0.00  0.00    -0.379 OA
BRANCH 146 147
ATOM    147  C   UNL     1     146.832 170.293 187.429  0.00  0.00    +0.037 C 
ATOM    148  H   UNL     1     146.731 171.363 187.239  0.00  0.00    +0.052 HD
ATOM    149  H   UNL     1     146.450 170.082 188.434  0.00  0.00    +0.052 HD
ATOM    150  H   UNL     1     147.891 170.030 187.364  0.00  0.00    +0.052 HD
ENDBRANCH 146 147
ENDBRANCH   6 146
BRANCH   4 151
ATOM    151  O   UNL     1     145.982 166.801 182.863  0.00  0.00    -0.376 OA
BRANCH 151 152
ATOM    152  C   UNL     1     146.488 166.754 181.535  0.00  0.00    +0.037 C 
ATOM    153  H   UNL     1     147.453 167.271 181.518  0.00  0.00    +0.052 HD
ATOM    154  H   UNL     1     145.810 167.259 180.840  0.00  0.00    +0.052 HD
ATOM    155  H   UNL     1     146.646 165.717 181.224  0.00  0.00    +0.052 HD
ENDBRANCH 151 152
ENDBRANCH   4 151
TORSDOF 33
ENDMDL
MODEL 9
REMARK VINA RESULT:      -4.6      6.291     14.244
REMARK  Name = Reidispongiolide A_conf1
REMARK  33 active torsions:
REMARK  status: ('A' for Active; 'I' for Inactive)
REMARK    1  A    between atoms: C_1  and  C_2
REMARK    2  A    between atoms: C_5  and  O_67
REMARK    3  A    between atoms: C_7  and  O_65
REMARK    4  A    between atoms: C_8  and  C_64
REMARK    5  A    between atoms: C_17  and  O_62
REMARK    6  A    between atoms: C_19  and  C_61
REMARK    7  A    between atoms: C_26  and  C_38
REMARK    8  A    between atoms: C_27  and  C_37
REMARK    9  A    between atoms: C_30  and  O_35
REMARK   10  A    between atoms: C_32  and  O_33
REMARK   11  A    between atoms: O_33  and  C_34
REMARK   12  A    between atoms: O_35  and  C_36
REMARK   13  A    between atoms: C_38  and  C_39
REMARK   14  A    between atoms: C_38  and  C_40
REMARK   15  A    between atoms: C_40  and  C_41
REMARK   16  A    between atoms: C_40  and  O_59
REMARK   17  A    between atoms: C_41  and  C_42
REMARK   18  A    between atoms: C_41  and  C_43
REMARK   19  A    between atoms: C_43  and  C_44
REMARK   20  A    between atoms: C_44  and  C_45
REMARK   21  A    between atoms: C_45  and  C_47
REMARK   22  A    between atoms: C_47  and  C_48
REMARK   23  A    between atoms: C_47  and  C_49
REMARK   24  A    between atoms: C_49  and  C_50
REMARK   25  A    between atoms: C_49  and  O_57
REMARK   26  A    between atoms: C_50  and  C_51
REMARK   27  A    between atoms: C_52  and  N_53
REMARK   28  A    between atoms: N_53  and  C_54
REMARK   29  A    between atoms: O_57  and  C_58
REMARK   30  A    between atoms: O_59  and  C_60
REMARK   31  A    between atoms: O_62  and  C_63
REMARK   32  A    between atoms: O_65  and  C_66
REMARK   33  A    between atoms: O_67  and  C_68
REMARK                            x       y       z     vdW  Elec       q    Type
REMARK                         _______ _______ _______ _____ _____    ______ ____
ROOT
ATOM      1  C   UNL     1     157.012 163.640 188.739  0.00  0.00    +0.001 C 
ATOM      2  C   UNL     1     156.316 164.971 188.957  0.00  0.00    -0.080 C 
ATOM      3  C   UNL     1     155.020 165.199 188.690  0.00  0.00    -0.059 C 
ATOM      4  C   UNL     1     154.348 166.534 188.857  0.00  0.00    +0.079 C 
ATOM      5  C   UNL     1     152.817 166.451 188.994  0.00  0.00    +0.004 C 
ATOM      6  C   UNL     1     152.320 165.746 190.273  0.00  0.00    +0.067 C 
ATOM      7  C   UNL     1     151.231 166.562 191.044  0.00  0.00    +0.020 C 
ATOM      8  C   UNL     1     150.012 167.026 190.185  0.00  0.00    +0.112 C 
ATOM      9  C   UNL     1     149.034 165.934 189.727  0.00  0.00    +0.006 C 
ATOM     10  C   UNL     1     148.047 165.566 190.803  0.00  0.00    -0.057 C 
ATOM     11  C   UNL     1     147.805 166.422 191.807  0.00  0.00    +0.022 C 
ATOM     12  C   UNL     1     148.399 167.767 191.855  0.00  0.00    +0.332 C 
ATOM     13  O   UNL     1     148.059 168.573 192.711  0.00  0.00    -0.246 OA
ATOM     14  O   UNL     1     149.290 168.073 190.883  0.00  0.00    -0.458 OA
ATOM     15  C   UNL     1     147.331 164.234 190.699  0.00  0.00    -0.004 C 
ATOM     16  C   UNL     1     146.417 164.119 189.452  0.00  0.00    +0.066 C 
ATOM     17  C   UNL     1     145.891 162.672 189.253  0.00  0.00    -0.005 C 
ATOM     18  C   UNL     1     146.885 161.565 188.906  0.00  0.00    -0.070 C 
ATOM     19  C   UNL     1     148.142 161.827 188.508  0.00  0.00    -0.062 C 
ATOM     20  C   UNL     1     149.234 160.920 188.285  0.00  0.00    -0.055 C 
ATOM     21  C   UNL     1     149.325 159.966 187.344  0.00  0.00    +0.023 C 
ATOM     22  C   UNL     1     150.613 159.283 187.066  0.00  0.00    +0.332 C 
ATOM     23  O   UNL     1     150.826 158.643 186.051  0.00  0.00    -0.246 OA
ATOM     24  O   UNL     1     151.513 159.573 188.032  0.00  0.00    -0.457 OA
ATOM     25  C   UNL     1     152.935 159.421 187.756  0.00  0.00    +0.114 C 
ATOM     26  C   UNL     1     153.348 160.646 186.861  0.00  0.00    +0.012 C 
ATOM     27  C   UNL     1     154.775 160.620 186.348  0.00  0.00    -0.079 C 
ATOM     28  C   UNL     1     155.614 161.672 186.287  0.00  0.00    -0.059 C 
ATOM     29  C   UNL     1     157.042 161.702 185.796  0.00  0.00    +0.079 C 
ATOM     30  C   UNL     1     158.037 162.193 186.873  0.00  0.00    +0.004 C 
ATOM     31  C   UNL     1     157.759 163.633 187.367  0.00  0.00    +0.067 C 
ATOM     32  H   UNL     1     156.246 162.858 188.731  0.00  0.00    +0.037 HD
ATOM     33  H   UNL     1     156.943 165.790 189.309  0.00  0.00    +0.057 HD
ATOM     34  H   UNL     1     154.402 164.402 188.287  0.00  0.00    +0.059 HD
ATOM     35  H   UNL     1     154.751 167.055 189.739  0.00  0.00    +0.064 HD
ATOM     36  H   UNL     1     152.396 165.969 188.102  0.00  0.00    +0.032 HD
ATOM     37  H   UNL     1     152.464 167.488 188.953  0.00  0.00    +0.032 HD
ATOM     38  H   UNL     1     153.174 165.590 190.947  0.00  0.00    +0.060 HD
ATOM     39  H   UNL     1     150.835 165.936 191.854  0.00  0.00    +0.036 HD
ATOM     40  H   UNL     1     150.384 167.514 189.279  0.00  0.00    +0.074 HD
ATOM     41  H   UNL     1     149.564 165.051 189.369  0.00  0.00    +0.035 HD
ATOM     42  H   UNL     1     148.456 166.318 188.873  0.00  0.00    +0.035 HD
ATOM     43  H   UNL     1     147.092 166.206 192.595  0.00  0.00    +0.069 HD
ATOM     44  H   UNL     1     148.096 163.450 190.707  0.00  0.00    +0.034 HD
ATOM     45  H   UNL     1     146.720 164.076 191.598  0.00  0.00    +0.034 HD
ATOM     46  H   UNL     1     146.955 164.449 188.556  0.00  0.00    +0.060 HD
ATOM     47  H   UNL     1     145.361 162.391 190.175  0.00  0.00    +0.034 HD
ATOM     48  H   UNL     1     145.119 162.678 188.472  0.00  0.00    +0.034 HD
ATOM     49  H   UNL     1     148.478 162.862 188.418  0.00  0.00    +0.062 HD
ATOM     50  H   UNL     1     150.095 161.157 188.909  0.00  0.00    +0.062 HD
ATOM     51  H   UNL     1     148.518 159.747 186.656  0.00  0.00    +0.069 HD
ATOM     52  H   UNL     1     153.085 158.486 187.203  0.00  0.00    +0.074 HD
ATOM     53  H   UNL     1     152.727 160.578 185.954  0.00  0.00    +0.038 HD
ATOM     54  H   UNL     1     155.124 159.661 185.970  0.00  0.00    +0.057 HD
ATOM     55  H   UNL     1     155.248 162.649 186.590  0.00  0.00    +0.059 HD
ATOM     56  H   UNL     1     157.070 162.389 184.938  0.00  0.00    +0.064 HD
ATOM     57  H   UNL     1     158.033 161.486 187.713  0.00  0.00    +0.032 HD
ATOM     58  H   UNL     1     159.053 162.117 186.469  0.00  0.00    +0.032 HD
ATOM     59  H   UNL     1     157.152 164.169 186.623  0.00  0.00    +0.060 HD
ENDROOT
BRANCH   1  60
ATOM     60  C   UNL     1     157.941 163.362 189.929  0.00  0.00    -0.057 C 
ATOM     61  H   UNL     1     158.733 164.114 190.016  0.00  0.00    +0.024 HD
ATOM     62  H   UNL     1     157.378 163.372 190.867  0.00  0.00    +0.024 HD
ATOM     63  H   UNL     1     158.420 162.382 189.840  0.00  0.00    +0.024 HD
ENDBRANCH   1  60
BRANCH  26  64
ATOM     64  C   UNL     1     152.949 161.982 187.514  0.00  0.00    -0.056 C 
ATOM     65  H   UNL     1     152.691 162.743 186.775  0.00  0.00    +0.024 HD
ATOM     66  H   UNL     1     152.091 161.864 188.185  0.00  0.00    +0.024 HD
ATOM     67  H   UNL     1     153.781 162.406 188.089  0.00  0.00    +0.024 HD
ENDBRANCH  26  64
BRANCH  18  68
ATOM     68  C   UNL     1     146.326 160.179 189.096  0.00  0.00    -0.043 C 
ATOM     69  H   UNL     1     147.036 159.436 188.715  0.00  0.00    +0.027 HD
ATOM     70  H   UNL     1     145.388 160.069 188.540  0.00  0.00    +0.027 HD
ATOM     71  H   UNL     1     146.119 159.931 190.139  0.00  0.00    +0.027 HD
ENDBRANCH  18  68
BRANCH   7  72
ATOM     72  C   UNL     1     151.918 167.755 191.734  0.00  0.00    -0.057 C 
ATOM     73  H   UNL     1     152.919 167.916 191.319  0.00  0.00    +0.023 HD
ATOM     74  H   UNL     1     151.346 168.679 191.611  0.00  0.00    +0.023 HD
ATOM     75  H   UNL     1     152.047 167.580 192.807  0.00  0.00    +0.023 HD
ENDBRANCH   7  72
BRANCH  25  76
ATOM     76  C   UNL     1     153.602 159.302 189.161  0.00  0.00    +0.020 C 
ATOM     77  H   UNL     1     154.143 160.243 189.341  0.00  0.00    +0.036 HD
BRANCH  76  78
ATOM     78  C   UNL     1     152.525 159.292 190.265  0.00  0.00    -0.057 C 
ATOM     79  H   UNL     1     152.220 160.315 190.511  0.00  0.00    +0.023 HD
ATOM     80  H   UNL     1     152.884 158.846 191.196  0.00  0.00    +0.023 HD
ATOM     81  H   UNL     1     151.625 158.762 189.946  0.00  0.00    +0.023 HD
ENDBRANCH  76  78
BRANCH  76  82
ATOM     82  C   UNL     1     154.651 158.169 189.328  0.00  0.00    +0.067 C 
ATOM     83  H   UNL     1     154.552 157.795 190.352  0.00  0.00    +0.060 HD
BRANCH  82  84
ATOM     84  C   UNL     1     156.156 158.520 189.099  0.00  0.00    -0.017 C 
ATOM     85  H   UNL     1     156.375 158.414 188.032  0.00  0.00    +0.032 HD
BRANCH  84  86
ATOM     86  C   UNL     1     156.345 160.007 189.454  0.00  0.00    -0.060 C 
ATOM     87  H   UNL     1     155.499 160.389 190.032  0.00  0.00    +0.023 HD
ATOM     88  H   UNL     1     157.253 160.169 190.043  0.00  0.00    +0.023 HD
ATOM     89  H   UNL     1     156.399 160.624 188.555  0.00  0.00    +0.023 HD
ENDBRANCH  84  86
BRANCH  84  90
ATOM     90  C   UNL     1     157.141 157.626 189.898  0.00  0.00    -0.041 C 
ATOM     91  H   UNL     1     158.107 158.134 189.973  0.00  0.00    +0.027 HD
ATOM     92  H   UNL     1     157.318 156.705 189.330  0.00  0.00    +0.027 HD
BRANCH  90  93
ATOM     93  C   UNL     1     156.725 157.197 191.307  0.00  0.00    +0.007 C 
ATOM     94  H   UNL     1     156.567 156.108 191.282  0.00  0.00    +0.034 HD
ATOM     95  H   UNL     1     155.767 157.608 191.639  0.00  0.00    +0.034 HD
BRANCH  93  96
ATOM     96  C   UNL     1     157.777 157.430 192.376  0.00  0.00    +0.139 C 
ATOM     97  O   UNL     1     157.810 156.695 193.367  0.00  0.00    -0.297 OA
BRANCH  96  98
ATOM     98  C   UNL     1     158.740 158.601 192.198  0.00  0.00    +0.041 C 
ATOM     99  H   UNL     1     158.570 159.026 191.204  0.00  0.00    +0.040 HD
BRANCH  98 100
ATOM    100  C   UNL     1     160.171 158.065 192.237  0.00  0.00    -0.053 C 
ATOM    101  H   UNL     1     160.901 158.831 191.965  0.00  0.00    +0.024 HD
ATOM    102  H   UNL     1     160.282 157.221 191.547  0.00  0.00    +0.024 HD
ATOM    103  H   UNL     1     160.428 157.714 193.240  0.00  0.00    +0.024 HD
ENDBRANCH  98 100
BRANCH  98 104
ATOM    104  C   UNL     1     158.510 159.728 193.238  0.00  0.00    +0.071 C 
ATOM    105  H   UNL     1     157.480 159.614 193.606  0.00  0.00    +0.061 HD
BRANCH 104 106
ATOM    106  C   UNL     1     159.477 159.658 194.444  0.00  0.00    -0.006 C 
ATOM    107  H   UNL     1     160.014 158.701 194.449  0.00  0.00    +0.033 HD
ATOM    108  H   UNL     1     160.265 160.413 194.326  0.00  0.00    +0.033 HD
BRANCH 106 109
ATOM    109  C   UNL     1     158.789 159.841 195.774  0.00  0.00    -0.067 C 
ATOM    110  C   UNL     1     159.455 159.992 196.928  0.00  0.00    -0.005 C 
ATOM    111  H   UNL     1     157.706 159.840 195.745  0.00  0.00    +0.059 HD
ATOM    112  H   UNL     1     160.546 159.965 196.907  0.00  0.00    +0.078 HD
BRANCH 110 113
ATOM    113  N   UNL     1     158.919 160.197 198.191  0.00  0.00    -0.284 N 
ATOM    114  C   UNL     1     158.826 161.427 198.837  0.00  0.00    +0.206 C 
ATOM    115  O   UNL     1     158.395 161.618 199.969  0.00  0.00    -0.279 OA
ATOM    116  H   UNL     1     159.187 162.275 198.239  0.00  0.00    +0.126 HD
BRANCH 113 117
ATOM    117  C   UNL     1     158.433 159.024 198.907  0.00  0.00    +0.007 C 
ATOM    118  H   UNL     1     159.094 158.177 198.685  0.00  0.00    +0.043 HD
ATOM    119  H   UNL     1     158.443 159.224 199.986  0.00  0.00    +0.043 HD
ATOM    120  H   UNL     1     157.414 158.751 198.618  0.00  0.00    +0.043 HD
ENDBRANCH 113 117
ENDBRANCH 110 113
ENDBRANCH 106 109
ENDBRANCH 104 106
BRANCH 104 121
ATOM    121  O   UNL     1     158.616 161.003 192.593  0.00  0.00    -0.379 OA
BRANCH 121 122
ATOM    122  C   UNL     1     159.859 161.657 192.802  0.00  0.00    +0.037 C 
ATOM    123  H   UNL     1     159.727 162.735 192.925  0.00  0.00    +0.052 HD
ATOM    124  H   UNL     1     160.540 161.454 191.971  0.00  0.00    +0.052 HD
ATOM    125  H   UNL     1     160.305 161.258 193.717  0.00  0.00    +0.052 HD
ENDBRANCH 121 122
ENDBRANCH 104 121
ENDBRANCH  98 104
ENDBRANCH  96  98
ENDBRANCH  93  96
ENDBRANCH  90  93
ENDBRANCH  84  90
ENDBRANCH  82  84
BRANCH  82 126
ATOM    126  O   UNL     1     154.314 157.084 188.440  0.00  0.00    -0.379 OA
BRANCH 126 127
ATOM    127  C   UNL     1     153.774 155.955 189.108  0.00  0.00    +0.037 C 
ATOM    128  H   UNL     1     154.584 155.371 189.556  0.00  0.00    +0.052 HD
ATOM    129  H   UNL     1     153.052 156.256 189.874  0.00  0.00    +0.052 HD
ATOM    130  H   UNL     1     153.264 155.330 188.369  0.00  0.00    +0.052 HD
ENDBRANCH 126 127
ENDBRANCH  82 126
ENDBRANCH  76  82
ENDBRANCH  25  76
BRANCH  31 131
ATOM    131  O   UNL     1     159.005 164.340 187.521  0.00  0.00    -0.379 OA
BRANCH 131 132
ATOM    132  C   UNL     1     160.051 163.811 186.716  0.00  0.00    +0.037 C 
ATOM    133  H   UNL     1     159.937 164.143 185.679  0.00  0.00    +0.052 HD
ATOM    134  H   UNL     1     160.069 162.719 186.759  0.00  0.00    +0.052 HD
ATOM    135  H   UNL     1     161.001 164.188 187.100  0.00  0.00    +0.052 HD
ENDBRANCH 131 132
ENDBRANCH  31 131
BRANCH  29 136
ATOM    136  O   UNL     1     157.416 160.387 185.373  0.00  0.00    -0.376 OA
BRANCH 136 137
ATOM    137  C   UNL     1     158.447 159.827 186.180  0.00  0.00    +0.037 C 
ATOM    138  H   UNL     1     159.341 159.621 185.584  0.00  0.00    +0.052 HD
ATOM    139  H   UNL     1     158.700 160.550 186.959  0.00  0.00    +0.052 HD
ATOM    140  H   UNL     1     158.096 158.910 186.667  0.00  0.00    +0.052 HD
ENDBRANCH 136 137
ENDBRANCH  29 136
BRANCH  16 141
ATOM    141  O   UNL     1     145.289 164.991 189.673  0.00  0.00    -0.379 OA
BRANCH 141 142
ATOM    142  C   UNL     1     145.052 165.878 188.586  0.00  0.00    +0.037 C 
ATOM    143  H   UNL     1     145.659 166.774 188.737  0.00  0.00    +0.052 HD
ATOM    144  H   UNL     1     145.355 165.403 187.648  0.00  0.00    +0.052 HD
ATOM    145  H   UNL     1     143.999 166.173 188.533  0.00  0.00    +0.052 HD
ENDBRANCH 141 142
ENDBRANCH  16 141
BRANCH   6 146
ATOM    146  O   UNL     1     151.808 164.461 189.886  0.00  0.00    -0.379 OA
BRANCH 146 147
ATOM    147  C   UNL     1     151.586 163.587 190.987  0.00  0.00    +0.037 C 
ATOM    148  H   UNL     1     150.662 163.037 190.801  0.00  0.00    +0.052 HD
ATOM    149  H   UNL     1     152.407 162.867 191.072  0.00  0.00    +0.052 HD
ATOM    150  H   UNL     1     151.473 164.144 191.921  0.00  0.00    +0.052 HD
ENDBRANCH 146 147
ENDBRANCH   6 146
BRANCH   4 151
ATOM    151  O   UNL     1     154.600 167.280 187.657  0.00  0.00    -0.376 OA
BRANCH 151 152
ATOM    152  C   UNL     1     153.969 166.713 186.516  0.00  0.00    +0.037 C 
ATOM    153  H   UNL     1     154.082 165.624 186.569  0.00  0.00    +0.052 HD
ATOM    154  H   UNL     1     154.438 167.066 185.592  0.00  0.00    +0.052 HD
ATOM    155  H   UNL     1     152.901 166.949 186.513  0.00  0.00    +0.052 HD
ENDBRANCH 151 152
ENDBRANCH   4 151
TORSDOF 33
ENDMDL
MODEL 10
REMARK VINA RESULT:      -4.5      2.716      6.077
REMARK  Name = Reidispongiolide A_conf1
REMARK  33 active torsions:
REMARK  status: ('A' for Active; 'I' for Inactive)
REMARK    1  A    between atoms: C_1  and  C_2
REMARK    2  A    between atoms: C_5  and  O_67
REMARK    3  A    between atoms: C_7  and  O_65
REMARK    4  A    between atoms: C_8  and  C_64
REMARK    5  A    between atoms: C_17  and  O_62
REMARK    6  A    between atoms: C_19  and  C_61
REMARK    7  A    between atoms: C_26  and  C_38
REMARK    8  A    between atoms: C_27  and  C_37
REMARK    9  A    between atoms: C_30  and  O_35
REMARK   10  A    between atoms: C_32  and  O_33
REMARK   11  A    between atoms: O_33  and  C_34
REMARK   12  A    between atoms: O_35  and  C_36
REMARK   13  A    between atoms: C_38  and  C_39
REMARK   14  A    between atoms: C_38  and  C_40
REMARK   15  A    between atoms: C_40  and  C_41
REMARK   16  A    between atoms: C_40  and  O_59
REMARK   17  A    between atoms: C_41  and  C_42
REMARK   18  A    between atoms: C_41  and  C_43
REMARK   19  A    between atoms: C_43  and  C_44
REMARK   20  A    between atoms: C_44  and  C_45
REMARK   21  A    between atoms: C_45  and  C_47
REMARK   22  A    between atoms: C_47  and  C_48
REMARK   23  A    between atoms: C_47  and  C_49
REMARK   24  A    between atoms: C_49  and  C_50
REMARK   25  A    between atoms: C_49  and  O_57
REMARK   26  A    between atoms: C_50  and  C_51
REMARK   27  A    between atoms: C_52  and  N_53
REMARK   28  A    between atoms: N_53  and  C_54
REMARK   29  A    between atoms: O_57  and  C_58
REMARK   30  A    between atoms: O_59  and  C_60
REMARK   31  A    between atoms: O_62  and  C_63
REMARK   32  A    between atoms: O_65  and  C_66
REMARK   33  A    between atoms: O_67  and  C_68
REMARK                            x       y       z     vdW  Elec       q    Type
REMARK                         _______ _______ _______ _____ _____    ______ ____
ROOT
ATOM      1  C   UNL     1     148.246 167.516 191.740  0.00  0.00    +0.001 C 
ATOM      2  C   UNL     1     149.583 166.816 191.902  0.00  0.00    -0.080 C 
ATOM      3  C   UNL     1     150.136 166.018 190.974  0.00  0.00    -0.059 C 
ATOM      4  C   UNL     1     151.436 165.284 191.162  0.00  0.00    +0.079 C 
ATOM      5  C   UNL     1     152.115 164.869 189.844  0.00  0.00    +0.004 C 
ATOM      6  C   UNL     1     152.602 166.044 188.971  0.00  0.00    +0.067 C 
ATOM      7  C   UNL     1     154.082 165.885 188.491  0.00  0.00    +0.020 C 
ATOM      8  C   UNL     1     154.413 164.528 187.790  0.00  0.00    +0.112 C 
ATOM      9  C   UNL     1     153.815 164.308 186.393  0.00  0.00    +0.006 C 
ATOM     10  C   UNL     1     154.622 164.982 185.315  0.00  0.00    -0.057 C 
ATOM     11  C   UNL     1     155.904 165.303 185.544  0.00  0.00    +0.022 C 
ATOM     12  C   UNL     1     156.598 164.935 186.788  0.00  0.00    +0.332 C 
ATOM     13  O   UNL     1     157.800 165.123 186.916  0.00  0.00    -0.246 OA
ATOM     14  O   UNL     1     155.850 164.338 187.747  0.00  0.00    -0.458 OA
ATOM     15  C   UNL     1     153.957 165.255 183.981  0.00  0.00    -0.004 C 
ATOM     16  C   UNL     1     153.533 163.968 183.227  0.00  0.00    +0.066 C 
ATOM     17  C   UNL     1     152.651 164.288 181.990  0.00  0.00    -0.005 C 
ATOM     18  C   UNL     1     151.264 164.890 182.206  0.00  0.00    -0.070 C 
ATOM     19  C   UNL     1     150.669 164.910 183.412  0.00  0.00    -0.062 C 
ATOM     20  C   UNL     1     149.449 165.555 183.815  0.00  0.00    -0.055 C 
ATOM     21  C   UNL     1     148.202 165.274 183.402  0.00  0.00    +0.023 C 
ATOM     22  C   UNL     1     147.020 165.843 184.096  0.00  0.00    +0.332 C 
ATOM     23  O   UNL     1     145.891 165.402 183.964  0.00  0.00    -0.246 OA
ATOM     24  O   UNL     1     147.403 166.817 184.951  0.00  0.00    -0.457 OA
ATOM     25  C   UNL     1     146.527 167.188 186.054  0.00  0.00    +0.114 C 
ATOM     26  C   UNL     1     146.659 166.050 187.130  0.00  0.00    +0.012 C 
ATOM     27  C   UNL     1     145.727 166.174 188.320  0.00  0.00    -0.079 C 
ATOM     28  C   UNL     1     146.051 165.944 189.607  0.00  0.00    -0.059 C 
ATOM     29  C   UNL     1     145.170 166.060 190.828  0.00  0.00    +0.079 C 
ATOM     30  C   UNL     1     145.715 167.065 191.869  0.00  0.00    +0.004 C 
ATOM     31  C   UNL     1     147.110 166.690 192.423  0.00  0.00    +0.067 C 
ATOM     32  H   UNL     1     148.034 167.591 190.668  0.00  0.00    +0.037 HD
ATOM     33  H   UNL     1     150.082 166.949 192.862  0.00  0.00    +0.057 HD
ATOM     34  H   UNL     1     149.618 165.837 190.038  0.00  0.00    +0.059 HD
ATOM     35  H   UNL     1     152.140 165.899 191.741  0.00  0.00    +0.064 HD
ATOM     36  H   UNL     1     151.439 164.221 189.272  0.00  0.00    +0.032 HD
ATOM     37  H   UNL     1     152.950 164.224 190.138  0.00  0.00    +0.032 HD
ATOM     38  H   UNL     1     152.528 166.974 189.553  0.00  0.00    +0.060 HD
ATOM     39  H   UNL     1     154.302 166.682 187.770  0.00  0.00    +0.036 HD
ATOM     40  H   UNL     1     154.052 163.709 188.419  0.00  0.00    +0.074 HD
ATOM     41  H   UNL     1     152.772 164.626 186.353  0.00  0.00    +0.035 HD
ATOM     42  H   UNL     1     153.820 163.229 186.176  0.00  0.00    +0.035 HD
ATOM     43  H   UNL     1     156.527 165.776 184.794  0.00  0.00    +0.069 HD
ATOM     44  H   UNL     1     153.098 165.908 184.172  0.00  0.00    +0.034 HD
ATOM     45  H   UNL     1     154.642 165.827 183.342  0.00  0.00    +0.034 HD
ATOM     46  H   UNL     1     152.999 163.292 183.904  0.00  0.00    +0.060 HD
ATOM     47  H   UNL     1     153.231 164.967 181.346  0.00  0.00    +0.034 HD
ATOM     48  H   UNL     1     152.524 163.373 181.397  0.00  0.00    +0.034 HD
ATOM     49  H   UNL     1     151.180 164.480 184.275  0.00  0.00    +0.062 HD
ATOM     50  H   UNL     1     149.612 166.263 184.625  0.00  0.00    +0.062 HD
ATOM     51  H   UNL     1     147.992 164.526 182.649  0.00  0.00    +0.069 HD
ATOM     52  H   UNL     1     145.497 167.234 185.681  0.00  0.00    +0.074 HD
ATOM     53  H   UNL     1     146.342 165.123 186.627  0.00  0.00    +0.038 HD
ATOM     54  H   UNL     1     144.698 166.444 188.089  0.00  0.00    +0.057 HD
ATOM     55  H   UNL     1     147.054 165.598 189.839  0.00  0.00    +0.059 HD
ATOM     56  H   UNL     1     145.120 165.060 191.283  0.00  0.00    +0.064 HD
ATOM     57  H   UNL     1     145.730 168.068 191.425  0.00  0.00    +0.032 HD
ATOM     58  H   UNL     1     144.989 167.148 192.686  0.00  0.00    +0.032 HD
ATOM     59  H   UNL     1     147.298 165.618 192.263  0.00  0.00    +0.060 HD
ENDROOT
BRANCH   1  60
ATOM     60  C   UNL     1     148.362 168.945 192.287  0.00  0.00    -0.057 C 
ATOM     61  H   UNL     1     147.459 169.251 192.829  0.00  0.00    +0.024 HD
ATOM     62  H   UNL     1     149.202 169.024 192.983  0.00  0.00    +0.024 HD
ATOM     63  H   UNL     1     148.527 169.668 191.483  0.00  0.00    +0.024 HD
ENDBRANCH   1  60
BRANCH  26  64
ATOM     64  C   UNL     1     148.129 165.807 187.518  0.00  0.00    -0.056 C 
ATOM     65  H   UNL     1     148.747 165.548 186.657  0.00  0.00    +0.024 HD
ATOM     66  H   UNL     1     148.572 166.689 187.993  0.00  0.00    +0.024 HD
ATOM     67  H   UNL     1     148.222 164.960 188.208  0.00  0.00    +0.024 HD
ENDBRANCH  26  64
BRANCH  18  68
ATOM     68  C   UNL     1     150.668 165.483 180.955  0.00  0.00    -0.043 C 
ATOM     69  H   UNL     1     150.141 166.412 181.199  0.00  0.00    +0.027 HD
ATOM     70  H   UNL     1     149.944 164.787 180.514  0.00  0.00    +0.027 HD
ATOM     71  H   UNL     1     151.408 165.716 180.187  0.00  0.00    +0.027 HD
ENDBRANCH  18  68
BRANCH   7  72
ATOM     72  C   UNL     1     155.011 166.137 189.693  0.00  0.00    -0.057 C 
ATOM     73  H   UNL     1     155.232 167.205 189.791  0.00  0.00    +0.023 HD
ATOM     74  H   UNL     1     154.563 165.795 190.631  0.00  0.00    +0.023 HD
ATOM     75  H   UNL     1     155.972 165.626 189.573  0.00  0.00    +0.023 HD
ENDBRANCH   7  72
BRANCH  25  76
ATOM     76  C   UNL     1     146.991 168.620 186.464  0.00  0.00    +0.020 C 
ATOM     77  H   UNL     1     147.501 168.528 187.434  0.00  0.00    +0.036 HD
BRANCH  76  78
ATOM     78  C   UNL     1     148.106 169.113 185.519  0.00  0.00    -0.057 C 
ATOM     79  H   UNL     1     148.698 168.267 185.153  0.00  0.00    +0.023 HD
ATOM     80  H   UNL     1     148.807 169.788 186.015  0.00  0.00    +0.023 HD
ATOM     81  H   UNL     1     147.696 169.616 184.640  0.00  0.00    +0.023 HD
ENDBRANCH  76  78
BRANCH  76  82
ATOM     82  C   UNL     1     145.866 169.670 186.674  0.00  0.00    +0.067 C 
ATOM     83  H   UNL     1     146.014 170.446 185.916  0.00  0.00    +0.060 HD
BRANCH  82  84
ATOM     84  C   UNL     1     145.772 170.381 188.062  0.00  0.00    -0.017 C 
ATOM     85  H   UNL     1     146.788 170.518 188.447  0.00  0.00    +0.032 HD
BRANCH  84  86
ATOM     86  C   UNL     1     145.185 171.786 187.826  0.00  0.00    -0.060 C 
ATOM     87  H   UNL     1     145.957 172.557 187.897  0.00  0.00    +0.023 HD
ATOM     88  H   UNL     1     144.720 171.868 186.839  0.00  0.00    +0.023 HD
ATOM     89  H   UNL     1     144.440 172.035 188.584  0.00  0.00    +0.023 HD
ENDBRANCH  84  86
BRANCH  84  90
ATOM     90  C   UNL     1     144.944 169.601 189.116  0.00  0.00    -0.041 C 
ATOM     91  H   UNL     1     145.414 169.711 190.097  0.00  0.00    +0.027 HD
ATOM     92  H   UNL     1     144.982 168.532 188.871  0.00  0.00    +0.027 HD
BRANCH  90  93
ATOM     93  C   UNL     1     143.463 169.961 189.262  0.00  0.00    +0.007 C 
ATOM     94  H   UNL     1     142.885 169.041 189.085  0.00  0.00    +0.034 HD
ATOM     95  H   UNL     1     143.095 170.668 188.512  0.00  0.00    +0.034 HD
BRANCH  93  96
ATOM     96  C   UNL     1     143.060 170.433 190.647  0.00  0.00    +0.139 C 
ATOM     97  O   UNL     1     143.441 169.805 191.638  0.00  0.00    -0.297 OA
BRANCH  96  98
ATOM     98  C   UNL     1     142.160 171.662 190.757  0.00  0.00    +0.041 C 
ATOM     99  H   UNL     1     141.250 171.363 191.287  0.00  0.00    +0.040 HD
BRANCH  98 100
ATOM    100  C   UNL     1     141.759 172.100 189.350  0.00  0.00    -0.053 C 
ATOM    101  H   UNL     1     142.218 173.052 189.072  0.00  0.00    +0.024 HD
ATOM    102  H   UNL     1     140.671 172.206 189.277  0.00  0.00    +0.024 HD
ATOM    103  H   UNL     1     142.074 171.361 188.607  0.00  0.00    +0.024 HD
ENDBRANCH  98 100
BRANCH  98 104
ATOM    104  C   UNL     1     142.817 172.813 191.563  0.00  0.00    +0.071 C 
ATOM    105  H   UNL     1     142.949 172.445 192.591  0.00  0.00    +0.061 HD
BRANCH 104 106
ATOM    106  C   UNL     1     144.198 173.241 191.008  0.00  0.00    -0.006 C 
ATOM    107  H   UNL     1     144.496 172.588 190.179  0.00  0.00    +0.033 HD
ATOM    108  H   UNL     1     144.118 174.238 190.557  0.00  0.00    +0.033 HD
BRANCH 106 109
ATOM    109  C   UNL     1     145.288 173.238 192.052  0.00  0.00    -0.067 C 
ATOM    110  C   UNL     1     146.585 173.077 191.754  0.00  0.00    -0.005 C 
ATOM    111  H   UNL     1     144.958 173.370 193.075  0.00  0.00    +0.059 HD
ATOM    112  H   UNL     1     146.864 172.926 190.709  0.00  0.00    +0.078 HD
BRANCH 110 113
ATOM    113  N   UNL     1     147.660 173.092 192.630  0.00  0.00    -0.284 N 
ATOM    114  C   UNL     1     148.902 172.509 192.394  0.00  0.00    +0.206 C 
ATOM    115  O   UNL     1     149.846 172.476 193.176  0.00  0.00    -0.279 OA
ATOM    116  H   UNL     1     148.997 172.046 191.401  0.00  0.00    +0.126 HD
BRANCH 113 117
ATOM    117  C   UNL     1     147.462 173.753 193.915  0.00  0.00    +0.007 C 
ATOM    118  H   UNL     1     147.640 173.025 194.716  0.00  0.00    +0.043 HD
ATOM    119  H   UNL     1     148.170 174.584 194.011  0.00  0.00    +0.043 HD
ATOM    120  H   UNL     1     146.449 174.149 194.028  0.00  0.00    +0.043 HD
ENDBRANCH 113 117
ENDBRANCH 110 113
ENDBRANCH 106 109
ENDBRANCH 104 106
BRANCH 104 121
ATOM    121  O   UNL     1     141.930 173.937 191.601  0.00  0.00    -0.379 OA
BRANCH 121 122
ATOM    122  C   UNL     1     141.253 174.100 192.839  0.00  0.00    +0.037 C 
ATOM    123  H   UNL     1     140.210 173.781 192.768  0.00  0.00    +0.052 HD
ATOM    124  H   UNL     1     141.306 175.141 193.168  0.00  0.00    +0.052 HD
ATOM    125  H   UNL     1     141.753 173.477 193.586  0.00  0.00    +0.052 HD
ENDBRANCH 121 122
ENDBRANCH 104 121
ENDBRANCH  98 104
ENDBRANCH  96  98
ENDBRANCH  93  96
ENDBRANCH  90  93
ENDBRANCH  84  90
ENDBRANCH  82  84
BRANCH  82 126
ATOM    126  O   UNL     1     144.591 169.051 186.412  0.00  0.00    -0.379 OA
BRANCH 126 127
ATOM    127  C   UNL     1     143.931 169.578 185.272  0.00  0.00    +0.037 C 
ATOM    128  H   UNL     1     143.195 170.325 185.586  0.00  0.00    +0.052 HD
ATOM    129  H   UNL     1     144.645 170.019 184.569  0.00  0.00    +0.052 HD
ATOM    130  H   UNL     1     143.402 168.761 184.772  0.00  0.00    +0.052 HD
ENDBRANCH 126 127
ENDBRANCH  82 126
ENDBRANCH  76  82
ENDBRANCH  25  76
BRANCH  31 131
ATOM    131  O   UNL     1     147.151 166.943 193.842  0.00  0.00    -0.379 OA
BRANCH 131 132
ATOM    132  C   UNL     1     147.225 165.754 194.620  0.00  0.00    +0.037 C 
ATOM    133  H   UNL     1     147.305 166.001 195.684  0.00  0.00    +0.052 HD
ATOM    134  H   UNL     1     148.071 165.134 194.314  0.00  0.00    +0.052 HD
ATOM    135  H   UNL     1     146.305 165.187 194.462  0.00  0.00    +0.052 HD
ENDBRANCH 131 132
ENDBRANCH  31 131
BRANCH  29 136
ATOM    136  O   UNL     1     143.859 166.469 190.420  0.00  0.00    -0.376 OA
BRANCH 136 137
ATOM    137  C   UNL     1     142.893 166.314 191.453  0.00  0.00    +0.037 C 
ATOM    138  H   UNL     1     142.451 167.277 191.722  0.00  0.00    +0.052 HD
ATOM    139  H   UNL     1     142.104 165.653 191.086  0.00  0.00    +0.052 HD
ATOM    140  H   UNL     1     143.347 165.846 192.334  0.00  0.00    +0.052 HD
ENDBRANCH 136 137
ENDBRANCH  29 136
BRANCH  16 141
ATOM    141  O   UNL     1     154.742 163.325 182.775  0.00  0.00    -0.379 OA
BRANCH 141 142
ATOM    142  C   UNL     1     155.399 164.044 181.738  0.00  0.00    +0.037 C 
ATOM    143  H   UNL     1     156.472 164.042 181.947  0.00  0.00    +0.052 HD
ATOM    144  H   UNL     1     155.228 163.548 180.778  0.00  0.00    +0.052 HD
ATOM    145  H   UNL     1     155.054 165.082 181.690  0.00  0.00    +0.052 HD
ENDBRANCH 141 142
ENDBRANCH  16 141
BRANCH   6 146
ATOM    146  O   UNL     1     151.714 166.143 187.846  0.00  0.00    -0.379 OA
BRANCH 146 147
ATOM    147  C   UNL     1     151.760 167.410 187.200  0.00  0.00    +0.037 C 
ATOM    148  H   UNL     1     152.379 168.076 187.805  0.00  0.00    +0.052 HD
ATOM    149  H   UNL     1     152.219 167.314 186.210  0.00  0.00    +0.052 HD
ATOM    150  H   UNL     1     150.763 167.849 187.114  0.00  0.00    +0.052 HD
ENDBRANCH 146 147
ENDBRANCH   6 146
BRANCH   4 151
ATOM    151  O   UNL     1     151.128 164.063 191.851  0.00  0.00    -0.376 OA
BRANCH 151 152
ATOM    152  C   UNL     1     151.338 162.910 191.047  0.00  0.00    +0.037 C 
ATOM    153  H   UNL     1     150.920 163.106 190.053  0.00  0.00    +0.052 HD
ATOM    154  H   UNL     1     150.830 162.038 191.471  0.00  0.00    +0.052 HD
ATOM    155  H   UNL     1     152.407 162.710 190.938  0.00  0.00    +0.052 HD
ENDBRANCH 151 152
ENDBRANCH   4 151
TORSDOF 33
ENDMDL
