MODEL 1
REMARK VINA RESULT:      -4.5      0.000      0.000
REMARK  Name = Swinholide A_conf1
REMARK  40 active torsions:
REMARK  status: ('A' for Active; 'I' for Inactive)
REMARK    1  A    between atoms: C_1  and  C_2
REMARK    2  A    between atoms: C_4  and  C_10
REMARK    3  A    between atoms: C_6  and  O_8
REMARK    4  A    between atoms: O_8  and  C_9
REMARK    5  A    between atoms: C_10  and  C_11
REMARK    6  A    between atoms: C_11  and  C_12
REMARK    7  A    between atoms: C_12  and  C_13
REMARK    8  A    between atoms: C_12  and  C_98
REMARK    9  A    between atoms: C_13  and  O_14
REMARK   10  A    between atoms: C_13  and  C_15
REMARK   11  A    between atoms: C_15  and  C_16
REMARK   12  A    between atoms: C_15  and  C_97
REMARK   13  A    between atoms: C_22  and  C_96
REMARK   14  A    between atoms: C_25  and  O_95
REMARK   15  A    between atoms: C_31  and  O_90
REMARK   16  A    between atoms: C_32  and  C_89
REMARK   17  A    between atoms: C_33  and  O_88
REMARK   18  A    between atoms: C_35  and  O_87
REMARK   19  A    between atoms: C_36  and  C_86
REMARK   20  A    between atoms: C_37  and  C_69
REMARK   21  A    between atoms: C_43  and  C_68
REMARK   22  A    between atoms: C_46  and  O_67
REMARK   23  A    between atoms: C_52  and  O_62
REMARK   24  A    between atoms: C_53  and  C_61
REMARK   25  A    between atoms: C_54  and  O_60
REMARK   26  A    between atoms: C_56  and  O_59
REMARK   27  A    between atoms: C_57  and  C_58
REMARK   28  A    between atoms: O_62  and  C_63
REMARK   29  A    between atoms: C_69  and  C_70
REMARK   30  A    between atoms: C_69  and  C_85
REMARK   31  A    between atoms: C_70  and  O_71
REMARK   32  A    between atoms: C_70  and  C_72
REMARK   33  A    between atoms: C_72  and  C_73
REMARK   34  A    between atoms: C_72  and  C_84
REMARK   35  A    between atoms: C_73  and  C_74
REMARK   36  A    between atoms: C_74  and  C_75
REMARK   37  A    between atoms: C_77  and  C_83
REMARK   38  A    between atoms: C_79  and  O_81
REMARK   39  A    between atoms: O_81  and  C_82
REMARK   40  A    between atoms: O_90  and  C_91
REMARK                            x       y       z     vdW  Elec       q    Type
REMARK                         _______ _______ _______ _____ _____    ______ ____
ROOT
ATOM      1  C   UNL     1     149.719 167.824 192.024  0.00  0.00    +0.113 C 
ATOM      2  O   UNL     1     150.918 167.642 191.221  0.00  0.00    -0.458 OA
ATOM      3  C   UNL     1     152.069 167.414 191.912  0.00  0.00    +0.332 C 
ATOM      4  O   UNL     1     152.188 167.394 193.132  0.00  0.00    -0.246 OA
ATOM      5  C   UNL     1     153.229 167.187 191.036  0.00  0.00    +0.023 C 
ATOM      6  C   UNL     1     153.153 166.740 189.774  0.00  0.00    -0.052 C 
ATOM      7  C   UNL     1     154.304 166.384 188.950  0.00  0.00    -0.054 C 
ATOM      8  C   UNL     1     155.332 165.667 189.448  0.00  0.00    -0.079 C 
ATOM      9  C   UNL     1     156.454 165.052 188.649  0.00  0.00    -0.008 C 
ATOM     10  C   UNL     1     157.008 163.736 189.229  0.00  0.00    +0.061 C 
ATOM     11  C   UNL     1     156.009 162.667 189.693  0.00  0.00    +0.003 C 
ATOM     12  C   UNL     1     155.162 161.938 188.633  0.00  0.00    +0.080 C 
ATOM     13  O   UNL     1     154.686 160.753 189.318  0.00  0.00    -0.369 OA
ATOM     14  C   UNL     1     153.464 160.172 188.834  0.00  0.00    +0.065 C 
ATOM     15  C   UNL     1     153.663 159.540 187.441  0.00  0.00    +0.000 C 
ATOM     16  C   UNL     1     152.434 158.756 186.934  0.00  0.00    +0.066 C 
ATOM     17  C   UNL     1     152.699 158.217 185.494  0.00  0.00    +0.009 C 
ATOM     18  C   UNL     1     151.645 158.702 184.466  0.00  0.00    +0.063 C 
ATOM     19  C   UNL     1     151.687 160.227 184.224  0.00  0.00    -0.000 C 
ATOM     20  C   UNL     1     150.789 160.638 183.039  0.00  0.00    +0.064 C 
ATOM     21  C   UNL     1     150.911 162.129 182.597  0.00  0.00    +0.020 C 
ATOM     22  C   UNL     1     150.600 163.154 183.733  0.00  0.00    +0.113 C 
ATOM     23  O   UNL     1     149.233 162.914 184.161  0.00  0.00    -0.458 OA
ATOM     24  C   UNL     1     149.021 162.849 185.503  0.00  0.00    +0.332 C 
ATOM     25  O   UNL     1     149.841 163.085 186.374  0.00  0.00    -0.246 OA
ATOM     26  C   UNL     1     147.609 162.481 185.750  0.00  0.00    +0.023 C 
ATOM     27  C   UNL     1     147.185 162.324 187.013  0.00  0.00    -0.052 C 
ATOM     28  C   UNL     1     145.827 161.994 187.426  0.00  0.00    -0.054 C 
ATOM     29  C   UNL     1     144.767 162.706 186.991  0.00  0.00    -0.079 C 
ATOM     30  C   UNL     1     143.322 162.514 187.363  0.00  0.00    -0.008 C 
ATOM     31  C   UNL     1     142.758 163.566 188.348  0.00  0.00    +0.061 C 
ATOM     32  C   UNL     1     142.389 164.897 187.661  0.00  0.00    +0.003 C 
ATOM     33  C   UNL     1     141.582 165.853 188.568  0.00  0.00    +0.080 C 
ATOM     34  O   UNL     1     142.434 166.569 189.478  0.00  0.00    -0.369 OA
ATOM     35  C   UNL     1     142.820 167.907 189.093  0.00  0.00    +0.065 C 
ATOM     36  C   UNL     1     143.633 168.459 190.278  0.00  0.00    +0.000 C 
ATOM     37  C   UNL     1     144.277 169.861 190.168  0.00  0.00    +0.066 C 
ATOM     38  C   UNL     1     145.340 169.936 189.029  0.00  0.00    +0.009 C 
ATOM     39  C   UNL     1     146.684 170.586 189.463  0.00  0.00    +0.063 C 
ATOM     40  C   UNL     1     147.252 170.040 190.783  0.00  0.00    -0.000 C 
ATOM     41  C   UNL     1     148.793 170.005 190.798  0.00  0.00    +0.064 C 
ATOM     42  C   UNL     1     149.321 169.341 192.104  0.00  0.00    +0.020 C 
ATOM     43  C   UNL     1     141.589 168.771 188.783  0.00  0.00    -0.008 C 
ATOM     44  C   UNL     1     140.668 168.077 187.835  0.00  0.00    -0.083 C 
ATOM     45  C   UNL     1     140.678 166.745 187.750  0.00  0.00    -0.059 C 
ATOM     46  C   UNL     1     152.343 161.222 188.933  0.00  0.00    -0.008 C 
ATOM     47  C   UNL     1     152.741 162.481 188.236  0.00  0.00    -0.083 C 
ATOM     48  C   UNL     1     154.037 162.780 188.080  0.00  0.00    -0.059 C 
ATOM     49  H   UNL     1     149.954 167.550 193.064  0.00  0.00    +0.074 HD
ATOM     50  H   UNL     1     154.184 167.326 191.533  0.00  0.00    +0.069 HD
ATOM     51  H   UNL     1     152.189 166.572 189.299  0.00  0.00    +0.062 HD
ATOM     52  H   UNL     1     155.342 165.427 190.511  0.00  0.00    +0.058 HD
ATOM     53  H   UNL     1     156.168 164.886 187.605  0.00  0.00    +0.033 HD
ATOM     54  H   UNL     1     157.281 165.776 188.610  0.00  0.00    +0.033 HD
ATOM     55  H   UNL     1     157.612 164.008 190.105  0.00  0.00    +0.060 HD
ATOM     56  H   UNL     1     155.349 163.071 190.472  0.00  0.00    +0.032 HD
ATOM     57  H   UNL     1     156.599 161.896 190.210  0.00  0.00    +0.032 HD
ATOM     58  H   UNL     1     155.799 161.597 187.809  0.00  0.00    +0.064 HD
ATOM     59  H   UNL     1     153.226 159.369 189.542  0.00  0.00    +0.060 HD
ATOM     60  H   UNL     1     154.524 158.859 187.509  0.00  0.00    +0.032 HD
ATOM     61  H   UNL     1     153.941 160.305 186.706  0.00  0.00    +0.032 HD
ATOM     62  H   UNL     1     151.574 159.434 186.929  0.00  0.00    +0.060 HD
ATOM     63  H   UNL     1     153.663 158.611 185.141  0.00  0.00    +0.035 HD
ATOM     64  H   UNL     1     151.836 158.199 183.510  0.00  0.00    +0.060 HD
ATOM     65  H   UNL     1     151.330 160.737 185.126  0.00  0.00    +0.032 HD
ATOM     66  H   UNL     1     152.722 160.537 184.037  0.00  0.00    +0.032 HD
ATOM     67  H   UNL     1     151.044 160.012 182.174  0.00  0.00    +0.060 HD
ATOM     68  H   UNL     1     150.153 162.262 181.815  0.00  0.00    +0.036 HD
ATOM     69  H   UNL     1     151.302 162.943 184.547  0.00  0.00    +0.074 HD
ATOM     70  H   UNL     1     146.962 162.346 184.893  0.00  0.00    +0.069 HD
ATOM     71  H   UNL     1     147.896 162.445 187.832  0.00  0.00    +0.062 HD
ATOM     72  H   UNL     1     144.933 163.512 186.280  0.00  0.00    +0.058 HD
ATOM     73  H   UNL     1     142.724 162.519 186.441  0.00  0.00    +0.033 HD
ATOM     74  H   UNL     1     143.159 161.510 187.772  0.00  0.00    +0.033 HD
ATOM     75  H   UNL     1     143.462 163.754 189.166  0.00  0.00    +0.060 HD
ATOM     76  H   UNL     1     141.785 164.655 186.776  0.00  0.00    +0.032 HD
ATOM     77  H   UNL     1     143.304 165.391 187.311  0.00  0.00    +0.032 HD
ATOM     78  H   UNL     1     140.911 165.268 189.207  0.00  0.00    +0.064 HD
ATOM     79  H   UNL     1     143.459 167.823 188.208  0.00  0.00    +0.060 HD
ATOM     80  H   UNL     1     144.432 167.736 190.501  0.00  0.00    +0.032 HD
ATOM     81  H   UNL     1     142.990 168.431 191.167  0.00  0.00    +0.032 HD
ATOM     82  H   UNL     1     144.780 170.022 191.126  0.00  0.00    +0.060 HD
ATOM     83  H   UNL     1     145.605 168.908 188.758  0.00  0.00    +0.035 HD
ATOM     84  H   UNL     1     147.401 170.393 188.654  0.00  0.00    +0.060 HD
ATOM     85  H   UNL     1     146.917 170.684 191.608  0.00  0.00    +0.032 HD
ATOM     86  H   UNL     1     146.857 169.046 190.973  0.00  0.00    +0.032 HD
ATOM     87  H   UNL     1     149.181 169.473 189.924  0.00  0.00    +0.060 HD
ATOM     88  H   UNL     1     148.524 169.413 192.858  0.00  0.00    +0.036 HD
ATOM     89  H   UNL     1     141.891 169.725 188.339  0.00  0.00    +0.033 HD
ATOM     90  H   UNL     1     141.024 168.989 189.696  0.00  0.00    +0.033 HD
ATOM     91  H   UNL     1     139.968 168.671 187.256  0.00  0.00    +0.057 HD
ATOM     92  H   UNL     1     139.974 166.251 187.082  0.00  0.00    +0.059 HD
ATOM     93  H   UNL     1     152.160 161.470 189.986  0.00  0.00    +0.033 HD
ATOM     94  H   UNL     1     151.403 160.844 188.525  0.00  0.00    +0.033 HD
ATOM     95  H   UNL     1     151.966 163.135 187.846  0.00  0.00    +0.057 HD
ATOM     96  H   UNL     1     154.299 163.668 187.517  0.00  0.00    +0.059 HD
ENDROOT
BRANCH  28  97
ATOM     97  C   UNL     1     145.761 160.881 188.441  0.00  0.00    -0.040 C 
ATOM     98  H   UNL     1     144.972 161.069 189.178  0.00  0.00    +0.028 HD
ATOM     99  H   UNL     1     146.715 160.803 188.975  0.00  0.00    +0.028 HD
ATOM    100  H   UNL     1     145.545 159.904 188.000  0.00  0.00    +0.028 HD
ENDBRANCH  28  97
BRANCH  21 101
ATOM    101  C   UNL     1     152.286 162.368 181.961  0.00  0.00    -0.057 C 
ATOM    102  H   UNL     1     153.097 162.018 182.607  0.00  0.00    +0.023 HD
ATOM    103  H   UNL     1     152.450 163.432 181.761  0.00  0.00    +0.023 HD
ATOM    104  H   UNL     1     152.371 161.852 180.998  0.00  0.00    +0.023 HD
ENDBRANCH  21 101
BRANCH  42 105
ATOM    105  C   UNL     1     150.506 170.139 192.697  0.00  0.00    -0.057 C 
ATOM    106  H   UNL     1     150.152 170.952 193.340  0.00  0.00    +0.023 HD
ATOM    107  H   UNL     1     151.172 169.497 193.285  0.00  0.00    +0.023 HD
ATOM    108  H   UNL     1     151.100 170.610 191.905  0.00  0.00    +0.023 HD
ENDBRANCH  42 105
BRANCH  17 109
ATOM    109  C   UNL     1     152.821 156.687 185.435  0.00  0.00    -0.058 C 
ATOM    110  H   UNL     1     152.479 156.210 186.359  0.00  0.00    +0.023 HD
ATOM    111  H   UNL     1     152.216 156.285 184.614  0.00  0.00    +0.023 HD
ATOM    112  H   UNL     1     153.858 156.385 185.252  0.00  0.00    +0.023 HD
ENDBRANCH  17 109
BRANCH  38 113
ATOM    113  C   UNL     1     144.820 170.625 187.756  0.00  0.00    -0.058 C 
ATOM    114  H   UNL     1     145.625 171.097 187.181  0.00  0.00    +0.023 HD
ATOM    115  H   UNL     1     144.081 171.395 187.994  0.00  0.00    +0.023 HD
ATOM    116  H   UNL     1     144.336 169.898 187.093  0.00  0.00    +0.023 HD
ENDBRANCH  38 113
BRANCH   7 117
ATOM    117  C   UNL     1     154.174 166.789 187.508  0.00  0.00    -0.040 C 
ATOM    118  H   UNL     1     153.191 167.235 187.318  0.00  0.00    +0.028 HD
ATOM    119  H   UNL     1     154.294 165.919 186.859  0.00  0.00    +0.028 HD
ATOM    120  H   UNL     1     154.914 167.538 187.214  0.00  0.00    +0.028 HD
ENDBRANCH   7 117
BRANCH   1 121
ATOM    121  C   UNL     1     148.659 166.738 191.608  0.00  0.00    +0.020 C 
ATOM    122  H   UNL     1     148.128 167.199 190.760  0.00  0.00    +0.036 HD
BRANCH 121 123
ATOM    123  C   UNL     1     149.401 165.501 191.067  0.00  0.00    -0.057 C 
ATOM    124  H   UNL     1     149.621 165.608 190.003  0.00  0.00    +0.023 HD
ATOM    125  H   UNL     1     148.829 164.582 191.203  0.00  0.00    +0.023 HD
ATOM    126  H   UNL     1     150.375 165.363 191.546  0.00  0.00    +0.023 HD
ENDBRANCH 121 123
BRANCH 121 127
ATOM    127  C   UNL     1     147.534 166.401 192.645  0.00  0.00    +0.064 C 
ATOM    128  H   UNL     1     147.917 165.654 193.335  0.00  0.00    +0.060 HD
BRANCH 127 129
ATOM    129  C   UNL     1     146.148 165.886 192.128  0.00  0.00    -0.017 C 
ATOM    130  H   UNL     1     146.206 164.792 192.049  0.00  0.00    +0.032 HD
BRANCH 129 131
ATOM    131  C   UNL     1     144.938 166.191 193.007  0.00  0.00    -0.060 C 
ATOM    132  H   UNL     1     144.227 166.837 192.485  0.00  0.00    +0.023 HD
ATOM    133  H   UNL     1     144.439 165.279 193.345  0.00  0.00    +0.023 HD
ATOM    134  H   UNL     1     145.241 166.747 193.905  0.00  0.00    +0.023 HD
ENDBRANCH 129 131
BRANCH 129 135
ATOM    135  C   UNL     1     145.846 166.437 190.703  0.00  0.00    -0.046 C 
ATOM    136  H   UNL     1     146.514 167.278 190.484  0.00  0.00    +0.027 HD
ATOM    137  H   UNL     1     144.838 166.859 190.694  0.00  0.00    +0.027 HD
BRANCH 135 138
ATOM    138  C   UNL     1     145.926 165.394 189.588  0.00  0.00    -0.026 C 
ATOM    139  H   UNL     1     144.918 165.055 189.337  0.00  0.00    +0.029 HD
ATOM    140  H   UNL     1     146.458 164.509 189.948  0.00  0.00    +0.029 HD
BRANCH 138 143
ATOM    141  C   UNL     1     148.239 167.532 187.585  0.00  0.00    +0.059 C 
ATOM    142  O   UNL     1     147.393 167.076 188.651  0.00  0.00    -0.373 OA
ATOM    143  C   UNL     1     146.620 165.919 188.320  0.00  0.00    +0.061 C 
ATOM    144  C   UNL     1     145.610 166.279 187.229  0.00  0.00    -0.000 C 
ATOM    145  C   UNL     1     146.141 167.335 186.252  0.00  0.00    +0.063 C 
ATOM    146  C   UNL     1     147.661 167.265 186.195  0.00  0.00    -0.000 C 
ATOM    147  H   UNL     1     148.317 168.618 187.720  0.00  0.00    +0.059 HD
ATOM    148  H   UNL     1     147.308 165.152 187.948  0.00  0.00    +0.060 HD
ATOM    149  H   UNL     1     145.314 165.369 186.701  0.00  0.00    +0.032 HD
ATOM    150  H   UNL     1     144.690 166.681 187.670  0.00  0.00    +0.032 HD
ATOM    151  H   UNL     1     145.825 168.327 186.601  0.00  0.00    +0.060 HD
ATOM    152  H   UNL     1     147.957 166.275 185.821  0.00  0.00    +0.032 HD
ATOM    153  H   UNL     1     148.079 167.980 185.478  0.00  0.00    +0.032 HD
BRANCH 141 154
ATOM    154  C   UNL     1     149.637 166.941 187.735  0.00  0.00    -0.039 C 
ATOM    155  H   UNL     1     150.405 167.650 187.415  0.00  0.00    +0.025 HD
ATOM    156  H   UNL     1     149.834 166.662 188.776  0.00  0.00    +0.025 HD
ATOM    157  H   UNL     1     149.749 166.051 187.110  0.00  0.00    +0.025 HD
ENDBRANCH 141 154
BRANCH 145 158
ATOM    158  O   UNL     1     145.546 167.073 184.977  0.00  0.00    -0.380 OA
BRANCH 158 159
ATOM    159  C   UNL     1     145.317 165.692 184.727  0.00  0.00    +0.037 C 
ATOM    160  H   UNL     1     146.040 165.116 185.311  0.00  0.00    +0.052 HD
ATOM    161  H   UNL     1     145.476 165.460 183.669  0.00  0.00    +0.052 HD
ATOM    162  H   UNL     1     144.309 165.395 185.030  0.00  0.00    +0.052 HD
ENDBRANCH 158 159
ENDBRANCH 145 158
ENDBRANCH 138 143
ENDBRANCH 135 138
ENDBRANCH 129 135
ENDBRANCH 127 129
BRANCH 127 163
ATOM    163  O   UNL     1     147.224 167.540 193.459  0.00  0.00    -0.391 OA
ATOM    164  H   UNL     1     147.378 168.351 192.945  0.00  0.00    +0.210 HD
ENDBRANCH 127 163
ENDBRANCH 121 127
ENDBRANCH   1 121
BRANCH  41 165
ATOM    165  O   UNL     1     149.262 171.353 190.700  0.00  0.00    -0.391 OA
ATOM    166  H   UNL     1     149.542 171.660 191.586  0.00  0.00    +0.210 HD
ENDBRANCH  41 165
BRANCH  39 167
ATOM    167  O   UNL     1     146.596 172.004 189.583  0.00  0.00    -0.391 OA
ATOM    168  H   UNL     1     146.268 172.213 190.478  0.00  0.00    +0.210 HD
ENDBRANCH  39 167
BRANCH  31 169
ATOM    169  O   UNL     1     141.569 163.002 188.920  0.00  0.00    -0.391 OA
ATOM    170  H   UNL     1     141.514 162.078 188.619  0.00  0.00    +0.210 HD
ENDBRANCH  31 169
BRANCH  22 171
ATOM    171  C   UNL     1     150.770 164.659 183.322  0.00  0.00    +0.020 C 
ATOM    172  H   UNL     1     151.065 164.664 182.267  0.00  0.00    +0.036 HD
BRANCH 171 173
ATOM    173  C   UNL     1     149.461 165.441 183.460  0.00  0.00    -0.057 C 
ATOM    174  H   UNL     1     149.141 165.844 182.498  0.00  0.00    +0.023 HD
ATOM    175  H   UNL     1     149.561 166.278 184.158  0.00  0.00    +0.023 HD
ATOM    176  H   UNL     1     148.654 164.813 183.847  0.00  0.00    +0.023 HD
ENDBRANCH 171 173
BRANCH 171 177
ATOM    177  C   UNL     1     151.925 165.329 184.112  0.00  0.00    +0.064 C 
ATOM    178  H   UNL     1     151.845 166.416 184.001  0.00  0.00    +0.060 HD
BRANCH 177 179
ATOM    179  O   UNL     1     151.740 165.020 185.495  0.00  0.00    -0.391 OA
ATOM    180  H   UNL     1     150.824 164.671 185.580  0.00  0.00    +0.210 HD
ENDBRANCH 177 179
BRANCH 177 181
ATOM    181  C   UNL     1     153.377 164.949 183.707  0.00  0.00    -0.017 C 
ATOM    182  H   UNL     1     153.318 164.211 182.896  0.00  0.00    +0.032 HD
BRANCH 181 183
ATOM    183  C   UNL     1     154.084 166.191 183.133  0.00  0.00    -0.060 C 
ATOM    184  H   UNL     1     155.129 165.978 182.884  0.00  0.00    +0.023 HD
ATOM    185  H   UNL     1     153.588 166.557 182.230  0.00  0.00    +0.023 HD
ATOM    186  H   UNL     1     154.076 167.012 183.851  0.00  0.00    +0.023 HD
ENDBRANCH 181 183
BRANCH 181 187
ATOM    187  C   UNL     1     154.217 164.347 184.857  0.00  0.00    -0.046 C 
ATOM    188  H   UNL     1     153.724 164.531 185.818  0.00  0.00    +0.027 HD
ATOM    189  H   UNL     1     155.191 164.849 184.901  0.00  0.00    +0.027 HD
BRANCH 187 190
ATOM    190  C   UNL     1     154.411 162.828 184.712  0.00  0.00    -0.026 C 
ATOM    191  H   UNL     1     153.567 162.405 184.162  0.00  0.00    +0.029 HD
ATOM    192  H   UNL     1     154.397 162.369 185.708  0.00  0.00    +0.029 HD
BRANCH 190 193
ATOM    193  C   UNL     1     155.727 162.455 184.005  0.00  0.00    +0.061 C 
ATOM    194  O   UNL     1     155.585 161.323 183.142  0.00  0.00    -0.373 OA
ATOM    195  C   UNL     1     155.377 160.077 183.813  0.00  0.00    +0.059 C 
ATOM    196  C   UNL     1     156.531 159.767 184.764  0.00  0.00    -0.000 C 
ATOM    197  C   UNL     1     156.748 160.915 185.749  0.00  0.00    +0.063 C 
ATOM    198  C   UNL     1     156.881 162.233 184.984  0.00  0.00    -0.000 C 
ATOM    199  H   UNL     1     156.000 163.297 183.358  0.00  0.00    +0.060 HD
ATOM    200  H   UNL     1     154.429 160.114 184.362  0.00  0.00    +0.059 HD
ATOM    201  H   UNL     1     157.458 159.608 184.198  0.00  0.00    +0.032 HD
ATOM    202  H   UNL     1     156.333 158.831 185.298  0.00  0.00    +0.032 HD
ATOM    203  H   UNL     1     155.900 160.985 186.442  0.00  0.00    +0.060 HD
ATOM    204  H   UNL     1     157.825 162.210 184.422  0.00  0.00    +0.032 HD
ATOM    205  H   UNL     1     156.974 163.070 185.686  0.00  0.00    +0.032 HD
BRANCH 195 206
ATOM    206  C   UNL     1     155.253 158.999 182.741  0.00  0.00    -0.039 C 
ATOM    207  H   UNL     1     155.021 158.032 183.199  0.00  0.00    +0.025 HD
ATOM    208  H   UNL     1     156.181 158.903 182.169  0.00  0.00    +0.025 HD
ATOM    209  H   UNL     1     154.433 159.226 182.050  0.00  0.00    +0.025 HD
ENDBRANCH 195 206
BRANCH 197 210
ATOM    210  O   UNL     1     157.953 160.740 186.505  0.00  0.00    -0.380 OA
BRANCH 210 211
ATOM    211  C   UNL     1     157.878 159.698 187.471  0.00  0.00    +0.037 C 
ATOM    212  H   UNL     1     156.840 159.356 187.519  0.00  0.00    +0.052 HD
ATOM    213  H   UNL     1     158.162 160.062 188.462  0.00  0.00    +0.052 HD
ATOM    214  H   UNL     1     158.510 158.854 187.181  0.00  0.00    +0.052 HD
ENDBRANCH 210 211
ENDBRANCH 197 210
ENDBRANCH 190 193
ENDBRANCH 187 190
ENDBRANCH 181 187
ENDBRANCH 177 181
ENDBRANCH 171 177
ENDBRANCH  22 171
BRANCH  20 215
ATOM    215  O   UNL     1     149.434 160.301 183.372  0.00  0.00    -0.391 OA
ATOM    216  H   UNL     1     149.003 159.982 182.557  0.00  0.00    +0.210 HD
ENDBRANCH  20 215
BRANCH  18 217
ATOM    217  O   UNL     1     150.338 158.308 184.889  0.00  0.00    -0.391 OA
ATOM    218  H   UNL     1     150.207 157.392 184.567  0.00  0.00    +0.210 HD
ENDBRANCH  18 217
BRANCH  10 219
ATOM    219  O   UNL     1     157.914 163.171 188.277  0.00  0.00    -0.391 OA
ATOM    220  H   UNL     1     158.453 162.509 188.747  0.00  0.00    +0.210 HD
ENDBRANCH  10 219
BRANCH  37 221
ATOM    221  O   UNL     1     143.331 170.921 190.024  0.00  0.00    -0.379 OA
BRANCH 221 222
ATOM    222  C   UNL     1     143.345 171.870 191.082  0.00  0.00    +0.037 C 
ATOM    223  H   UNL     1     144.051 171.519 191.840  0.00  0.00    +0.052 HD
ATOM    224  H   UNL     1     143.683 172.847 190.731  0.00  0.00    +0.052 HD
ATOM    225  H   UNL     1     142.355 171.954 191.541  0.00  0.00    +0.052 HD
ENDBRANCH 221 222
ENDBRANCH  37 221
BRANCH  16 226
ATOM    226  O   UNL     1     152.210 157.693 187.873  0.00  0.00    -0.379 OA
BRANCH 226 227
ATOM    227  C   UNL     1     150.874 157.660 188.360  0.00  0.00    +0.037 C 
ATOM    228  H   UNL     1     150.404 156.687 188.186  0.00  0.00    +0.052 HD
ATOM    229  H   UNL     1     150.288 158.452 187.880  0.00  0.00    +0.052 HD
ATOM    230  H   UNL     1     150.894 157.845 189.439  0.00  0.00    +0.052 HD
ENDBRANCH 226 227
ENDBRANCH  16 226
TORSDOF 40
ENDMDL
MODEL 2
REMARK VINA RESULT:      -4.5      4.572     11.883
REMARK  Name = Swinholide A_conf1
REMARK  40 active torsions:
REMARK  status: ('A' for Active; 'I' for Inactive)
REMARK    1  A    between atoms: C_1  and  C_2
REMARK    2  A    between atoms: C_4  and  C_10
REMARK    3  A    between atoms: C_6  and  O_8
REMARK    4  A    between atoms: O_8  and  C_9
REMARK    5  A    between atoms: C_10  and  C_11
REMARK    6  A    between atoms: C_11  and  C_12
REMARK    7  A    between atoms: C_12  and  C_13
REMARK    8  A    between atoms: C_12  and  C_98
REMARK    9  A    between atoms: C_13  and  O_14
REMARK   10  A    between atoms: C_13  and  C_15
REMARK   11  A    between atoms: C_15  and  C_16
REMARK   12  A    between atoms: C_15  and  C_97
REMARK   13  A    between atoms: C_22  and  C_96
REMARK   14  A    between atoms: C_25  and  O_95
REMARK   15  A    between atoms: C_31  and  O_90
REMARK   16  A    between atoms: C_32  and  C_89
REMARK   17  A    between atoms: C_33  and  O_88
REMARK   18  A    between atoms: C_35  and  O_87
REMARK   19  A    between atoms: C_36  and  C_86
REMARK   20  A    between atoms: C_37  and  C_69
REMARK   21  A    between atoms: C_43  and  C_68
REMARK   22  A    between atoms: C_46  and  O_67
REMARK   23  A    between atoms: C_52  and  O_62
REMARK   24  A    between atoms: C_53  and  C_61
REMARK   25  A    between atoms: C_54  and  O_60
REMARK   26  A    between atoms: C_56  and  O_59
REMARK   27  A    between atoms: C_57  and  C_58
REMARK   28  A    between atoms: O_62  and  C_63
REMARK   29  A    between atoms: C_69  and  C_70
REMARK   30  A    between atoms: C_69  and  C_85
REMARK   31  A    between atoms: C_70  and  O_71
REMARK   32  A    between atoms: C_70  and  C_72
REMARK   33  A    between atoms: C_72  and  C_73
REMARK   34  A    between atoms: C_72  and  C_84
REMARK   35  A    between atoms: C_73  and  C_74
REMARK   36  A    between atoms: C_74  and  C_75
REMARK   37  A    between atoms: C_77  and  C_83
REMARK   38  A    between atoms: C_79  and  O_81
REMARK   39  A    between atoms: O_81  and  C_82
REMARK   40  A    between atoms: O_90  and  C_91
REMARK                            x       y       z     vdW  Elec       q    Type
REMARK                         _______ _______ _______ _____ _____    ______ ____
ROOT
ATOM      1  C   UNL     1     153.057 167.127 178.936  0.00  0.00    +0.113 C 
ATOM      2  O   UNL     1     152.129 166.321 179.712  0.00  0.00    -0.458 OA
ATOM      3  C   UNL     1     151.618 165.227 179.083  0.00  0.00    +0.332 C 
ATOM      4  O   UNL     1     151.835 164.893 177.923  0.00  0.00    -0.246 OA
ATOM      5  C   UNL     1     150.730 164.431 179.944  0.00  0.00    +0.023 C 
ATOM      6  C   UNL     1     150.779 164.420 181.284  0.00  0.00    -0.052 C 
ATOM      7  C   UNL     1     149.995 163.532 182.136  0.00  0.00    -0.054 C 
ATOM      8  C   UNL     1     149.848 162.223 181.842  0.00  0.00    -0.079 C 
ATOM      9  C   UNL     1     149.260 161.171 182.749  0.00  0.00    -0.008 C 
ATOM     10  C   UNL     1     149.865 159.765 182.577  0.00  0.00    +0.061 C 
ATOM     11  C   UNL     1     151.393 159.635 182.496  0.00  0.00    +0.003 C 
ATOM     12  C   UNL     1     152.227 159.928 183.757  0.00  0.00    +0.080 C 
ATOM     13  O   UNL     1     153.509 159.310 183.482  0.00  0.00    -0.369 OA
ATOM     14  C   UNL     1     154.650 159.855 184.163  0.00  0.00    +0.065 C 
ATOM     15  C   UNL     1     154.594 159.550 185.675  0.00  0.00    +0.000 C 
ATOM     16  C   UNL     1     155.868 159.965 186.440  0.00  0.00    +0.066 C 
ATOM     17  C   UNL     1     155.692 159.687 187.965  0.00  0.00    +0.009 C 
ATOM     18  C   UNL     1     155.884 160.957 188.834  0.00  0.00    +0.063 C 
ATOM     19  C   UNL     1     154.794 162.026 188.599  0.00  0.00    -0.000 C 
ATOM     20  C   UNL     1     154.887 163.166 189.635  0.00  0.00    +0.064 C 
ATOM     21  C   UNL     1     153.715 164.194 189.599  0.00  0.00    +0.020 C 
ATOM     22  C   UNL     1     153.533 164.898 188.217  0.00  0.00    +0.113 C 
ATOM     23  O   UNL     1     154.770 165.603 187.931  0.00  0.00    -0.458 OA
ATOM     24  C   UNL     1     155.282 165.447 186.681  0.00  0.00    +0.332 C 
ATOM     25  O   UNL     1     154.746 164.868 185.751  0.00  0.00    -0.246 OA
ATOM     26  C   UNL     1     156.594 166.130 186.608  0.00  0.00    +0.023 C 
ATOM     27  C   UNL     1     157.299 166.072 185.469  0.00  0.00    -0.052 C 
ATOM     28  C   UNL     1     158.586 166.711 185.224  0.00  0.00    -0.054 C 
ATOM     29  C   UNL     1     158.773 168.026 185.461  0.00  0.00    -0.079 C 
ATOM     30  C   UNL     1     160.021 168.830 185.216  0.00  0.00    -0.008 C 
ATOM     31  C   UNL     1     159.967 169.758 183.980  0.00  0.00    +0.061 C 
ATOM     32  C   UNL     1     159.193 171.067 184.242  0.00  0.00    +0.003 C 
ATOM     33  C   UNL     1     159.358 172.113 183.117  0.00  0.00    +0.080 C 
ATOM     34  O   UNL     1     158.493 171.836 182.003  0.00  0.00    -0.369 OA
ATOM     35  C   UNL     1     157.246 172.565 181.949  0.00  0.00    +0.065 C 
ATOM     36  C   UNL     1     156.582 172.149 180.624  0.00  0.00    +0.000 C 
ATOM     37  C   UNL     1     155.174 172.688 180.279  0.00  0.00    +0.066 C 
ATOM     38  C   UNL     1     154.095 172.219 181.303  0.00  0.00    +0.009 C 
ATOM     39  C   UNL     1     152.809 171.646 180.644  0.00  0.00    +0.063 C 
ATOM     40  C   UNL     1     153.073 170.617 179.533  0.00  0.00    -0.000 C 
ATOM     41  C   UNL     1     151.997 169.515 179.474  0.00  0.00    +0.064 C 
ATOM     42  C   UNL     1     152.365 168.435 178.413  0.00  0.00    +0.020 C 
ATOM     43  C   UNL     1     157.486 174.080 182.026  0.00  0.00    -0.008 C 
ATOM     44  C   UNL     1     158.377 174.427 183.172  0.00  0.00    -0.083 C 
ATOM     45  C   UNL     1     159.225 173.518 183.657  0.00  0.00    -0.059 C 
ATOM     46  C   UNL     1     154.786 161.342 183.791  0.00  0.00    -0.008 C 
ATOM     47  C   UNL     1     153.509 162.068 184.057  0.00  0.00    -0.083 C 
ATOM     48  C   UNL     1     152.348 161.401 184.068  0.00  0.00    -0.059 C 
ATOM     49  H   UNL     1     153.315 166.573 178.021  0.00  0.00    +0.074 HD
ATOM     50  H   UNL     1     150.073 163.764 179.395  0.00  0.00    +0.069 HD
ATOM     51  H   UNL     1     151.467 165.069 181.822  0.00  0.00    +0.062 HD
ATOM     52  H   UNL     1     150.250 161.845 180.903  0.00  0.00    +0.058 HD
ATOM     53  H   UNL     1     149.327 161.459 183.804  0.00  0.00    +0.033 HD
ATOM     54  H   UNL     1     148.183 161.102 182.537  0.00  0.00    +0.033 HD
ATOM     55  H   UNL     1     149.462 159.361 181.639  0.00  0.00    +0.060 HD
ATOM     56  H   UNL     1     151.784 160.222 181.655  0.00  0.00    +0.032 HD
ATOM     57  H   UNL     1     151.600 158.591 182.218  0.00  0.00    +0.032 HD
ATOM     58  H   UNL     1     151.801 159.407 184.622  0.00  0.00    +0.064 HD
ATOM     59  H   UNL     1     155.516 159.329 183.742  0.00  0.00    +0.060 HD
ATOM     60  H   UNL     1     154.441 158.467 185.786  0.00  0.00    +0.032 HD
ATOM     61  H   UNL     1     153.718 160.027 186.132  0.00  0.00    +0.032 HD
ATOM     62  H   UNL     1     156.037 161.033 186.269  0.00  0.00    +0.060 HD
ATOM     63  H   UNL     1     154.659 159.355 188.147  0.00  0.00    +0.035 HD
ATOM     64  H   UNL     1     155.852 160.661 189.890  0.00  0.00    +0.060 HD
ATOM     65  H   UNL     1     154.929 162.452 187.598  0.00  0.00    +0.032 HD
ATOM     66  H   UNL     1     153.806 161.554 188.647  0.00  0.00    +0.032 HD
ATOM     67  H   UNL     1     154.911 162.724 190.640  0.00  0.00    +0.060 HD
ATOM     68  H   UNL     1     153.985 164.967 190.330  0.00  0.00    +0.036 HD
ATOM     69  H   UNL     1     153.362 164.105 187.480  0.00  0.00    +0.074 HD
ATOM     70  H   UNL     1     156.942 166.654 187.488  0.00  0.00    +0.069 HD
ATOM     71  H   UNL     1     156.904 165.501 184.627  0.00  0.00    +0.062 HD
ATOM     72  H   UNL     1     157.956 168.604 185.887  0.00  0.00    +0.058 HD
ATOM     73  H   UNL     1     160.228 169.429 186.114  0.00  0.00    +0.033 HD
ATOM     74  H   UNL     1     160.895 168.172 185.138  0.00  0.00    +0.033 HD
ATOM     75  H   UNL     1     159.534 169.238 183.118  0.00  0.00    +0.060 HD
ATOM     76  H   UNL     1     159.575 171.492 185.180  0.00  0.00    +0.032 HD
ATOM     77  H   UNL     1     158.131 170.837 184.392  0.00  0.00    +0.032 HD
ATOM     78  H   UNL     1     160.374 172.054 182.710  0.00  0.00    +0.064 HD
ATOM     79  H   UNL     1     156.635 172.232 182.794  0.00  0.00    +0.060 HD
ATOM     80  H   UNL     1     156.538 171.049 180.602  0.00  0.00    +0.032 HD
ATOM     81  H   UNL     1     157.271 172.405 179.809  0.00  0.00    +0.032 HD
ATOM     82  H   UNL     1     154.935 172.263 179.300  0.00  0.00    +0.060 HD
ATOM     83  H   UNL     1     154.516 171.377 181.863  0.00  0.00    +0.035 HD
ATOM     84  H   UNL     1     152.231 171.170 181.447  0.00  0.00    +0.060 HD
ATOM     85  H   UNL     1     153.085 171.136 178.564  0.00  0.00    +0.032 HD
ATOM     86  H   UNL     1     154.053 170.170 179.668  0.00  0.00    +0.032 HD
ATOM     87  H   UNL     1     151.862 169.047 180.453  0.00  0.00    +0.060 HD
ATOM     88  H   UNL     1     153.066 168.895 177.702  0.00  0.00    +0.036 HD
ATOM     89  H   UNL     1     156.538 174.613 182.148  0.00  0.00    +0.033 HD
ATOM     90  H   UNL     1     157.963 174.447 181.110  0.00  0.00    +0.033 HD
ATOM     91  H   UNL     1     158.351 175.437 183.568  0.00  0.00    +0.057 HD
ATOM     92  H   UNL     1     159.895 173.797 184.469  0.00  0.00    +0.059 HD
ATOM     93  H   UNL     1     155.003 161.437 182.719  0.00  0.00    +0.033 HD
ATOM     94  H   UNL     1     155.611 161.816 184.327  0.00  0.00    +0.033 HD
ATOM     95  H   UNL     1     153.541 163.135 184.257  0.00  0.00    +0.057 HD
ATOM     96  H   UNL     1     151.443 161.940 184.326  0.00  0.00    +0.059 HD
ENDROOT
BRANCH  28  97
ATOM     97  C   UNL     1     159.604 165.793 184.599  0.00  0.00    -0.040 C 
ATOM     98  H   UNL     1     159.143 165.166 183.826  0.00  0.00    +0.028 HD
ATOM     99  H   UNL     1     160.033 165.134 185.362  0.00  0.00    +0.028 HD
ATOM    100  H   UNL     1     160.427 166.324 184.115  0.00  0.00    +0.028 HD
ENDBRANCH  28  97
BRANCH  21 101
ATOM    101  C   UNL     1     152.423 163.524 190.082  0.00  0.00    -0.057 C 
ATOM    102  H   UNL     1     152.156 163.844 191.095  0.00  0.00    +0.023 HD
ATOM    103  H   UNL     1     152.520 162.434 190.088  0.00  0.00    +0.023 HD
ATOM    104  H   UNL     1     151.584 163.761 189.419  0.00  0.00    +0.023 HD
ENDBRANCH  21 101
BRANCH  42 105
ATOM    105  C   UNL     1     151.132 168.045 177.563  0.00  0.00    -0.057 C 
ATOM    106  H   UNL     1     150.590 167.207 178.016  0.00  0.00    +0.023 HD
ATOM    107  H   UNL     1     150.438 168.885 177.448  0.00  0.00    +0.023 HD
ATOM    108  H   UNL     1     151.432 167.712 176.563  0.00  0.00    +0.023 HD
ENDBRANCH  42 105
BRANCH  17 109
ATOM    109  C   UNL     1     156.596 158.558 188.481  0.00  0.00    -0.058 C 
ATOM    110  H   UNL     1     157.197 158.871 189.341  0.00  0.00    +0.023 HD
ATOM    111  H   UNL     1     155.994 157.699 188.797  0.00  0.00    +0.023 HD
ATOM    112  H   UNL     1     157.272 158.208 187.694  0.00  0.00    +0.023 HD
ENDBRANCH  17 109
BRANCH  38 113
ATOM    113  C   UNL     1     153.712 173.304 182.324  0.00  0.00    -0.058 C 
ATOM    114  H   UNL     1     153.871 174.316 181.933  0.00  0.00    +0.023 HD
ATOM    115  H   UNL     1     154.292 173.206 183.246  0.00  0.00    +0.023 HD
ATOM    116  H   UNL     1     152.652 173.226 182.592  0.00  0.00    +0.023 HD
ENDBRANCH  38 113
BRANCH   7 117
ATOM    117  C   UNL     1     149.480 164.181 183.390  0.00  0.00    -0.040 C 
ATOM    118  H   UNL     1     149.203 165.224 183.200  0.00  0.00    +0.028 HD
ATOM    119  H   UNL     1     150.246 164.160 184.168  0.00  0.00    +0.028 HD
ATOM    120  H   UNL     1     148.585 163.690 183.780  0.00  0.00    +0.028 HD
ENDBRANCH   7 117
BRANCH   1 121
ATOM    121  C   UNL     1     154.431 167.198 179.700  0.00  0.00    +0.020 C 
ATOM    122  H   UNL     1     154.753 166.146 179.763  0.00  0.00    +0.036 HD
BRANCH 121 123
ATOM    123  C   UNL     1     155.453 167.937 178.816  0.00  0.00    -0.057 C 
ATOM    124  H   UNL     1     156.413 167.418 178.804  0.00  0.00    +0.023 HD
ATOM    125  H   UNL     1     155.627 168.961 179.151  0.00  0.00    +0.023 HD
ATOM    126  H   UNL     1     155.139 167.977 177.768  0.00  0.00    +0.023 HD
ENDBRANCH 121 123
BRANCH 121 127
ATOM    127  C   UNL     1     154.401 167.694 181.186  0.00  0.00    +0.064 C 
ATOM    128  H   UNL     1     153.602 168.423 181.287  0.00  0.00    +0.060 HD
BRANCH 127 129
ATOM    129  C   UNL     1     155.691 168.330 181.805  0.00  0.00    -0.017 C 
ATOM    130  H   UNL     1     156.244 168.823 180.994  0.00  0.00    +0.032 HD
BRANCH 129 131
ATOM    131  C   UNL     1     155.476 169.389 182.885  0.00  0.00    -0.060 C 
ATOM    132  H   UNL     1     156.178 170.219 182.765  0.00  0.00    +0.023 HD
ATOM    133  H   UNL     1     154.449 169.763 182.889  0.00  0.00    +0.023 HD
ATOM    134  H   UNL     1     155.675 168.972 183.881  0.00  0.00    +0.023 HD
ENDBRANCH 129 131
BRANCH 129 135
ATOM    135  C   UNL     1     156.622 167.232 182.401  0.00  0.00    -0.046 C 
ATOM    136  H   UNL     1     156.016 166.401 182.779  0.00  0.00    +0.027 HD
ATOM    137  H   UNL     1     157.133 167.640 183.276  0.00  0.00    +0.027 HD
BRANCH 135 138
ATOM    138  C   UNL     1     157.689 166.714 181.436  0.00  0.00    -0.026 C 
ATOM    139  H   UNL     1     158.671 166.789 181.910  0.00  0.00    +0.029 HD
ATOM    140  H   UNL     1     157.732 167.356 180.553  0.00  0.00    +0.029 HD
BRANCH 138 143
ATOM    141  C   UNL     1     155.885 163.451 181.233  0.00  0.00    +0.059 C 
ATOM    142  O   UNL     1     156.325 164.733 181.709  0.00  0.00    -0.373 OA
ATOM    143  C   UNL     1     157.445 165.261 180.993  0.00  0.00    +0.061 C 
ATOM    144  C   UNL     1     158.669 164.379 181.242  0.00  0.00    -0.000 C 
ATOM    145  C   UNL     1     158.310 162.898 181.413  0.00  0.00    +0.063 C 
ATOM    146  C   UNL     1     157.017 162.592 180.669  0.00  0.00    -0.000 C 
ATOM    147  H   UNL     1     155.473 162.940 182.112  0.00  0.00    +0.059 HD
ATOM    148  H   UNL     1     157.194 165.253 179.927  0.00  0.00    +0.060 HD
ATOM    149  H   UNL     1     159.382 164.518 180.425  0.00  0.00    +0.032 HD
ATOM    150  H   UNL     1     159.194 164.692 182.152  0.00  0.00    +0.032 HD
ATOM    151  H   UNL     1     158.183 162.690 182.484  0.00  0.00    +0.060 HD
ATOM    152  H   UNL     1     157.171 162.783 179.598  0.00  0.00    +0.032 HD
ATOM    153  H   UNL     1     156.745 161.533 180.736  0.00  0.00    +0.032 HD
BRANCH 141 154
ATOM    154  C   UNL     1     154.756 163.627 180.222  0.00  0.00    -0.039 C 
ATOM    155  H   UNL     1     154.921 164.504 179.591  0.00  0.00    +0.025 HD
ATOM    156  H   UNL     1     154.668 162.746 179.578  0.00  0.00    +0.025 HD
ATOM    157  H   UNL     1     153.802 163.780 180.734  0.00  0.00    +0.025 HD
ENDBRANCH 141 154
BRANCH 145 158
ATOM    158  O   UNL     1     159.410 162.132 180.912  0.00  0.00    -0.380 OA
BRANCH 158 159
ATOM    159  C   UNL     1     160.196 161.527 181.932  0.00  0.00    +0.037 C 
ATOM    160  H   UNL     1     160.676 160.640 181.510  0.00  0.00    +0.052 HD
ATOM    161  H   UNL     1     159.564 161.205 182.766  0.00  0.00    +0.052 HD
ATOM    162  H   UNL     1     160.975 162.207 182.289  0.00  0.00    +0.052 HD
ENDBRANCH 158 159
ENDBRANCH 145 158
ENDBRANCH 138 143
ENDBRANCH 135 138
ENDBRANCH 129 135
ENDBRANCH 127 129
BRANCH 127 163
ATOM    163  O   UNL     1     154.049 166.628 182.078  0.00  0.00    -0.391 OA
ATOM    164  H   UNL     1     153.896 165.817 181.563  0.00  0.00    +0.210 HD
ENDBRANCH 127 163
ENDBRANCH 121 127
ENDBRANCH   1 121
BRANCH  41 165
ATOM    165  O   UNL     1     150.752 170.137 179.141  0.00  0.00    -0.391 OA
ATOM    166  H   UNL     1     150.926 171.035 178.792  0.00  0.00    +0.210 HD
ENDBRANCH  41 165
BRANCH  39 167
ATOM    167  O   UNL     1     151.968 172.663 180.102  0.00  0.00    -0.391 OA
ATOM    168  H   UNL     1     151.314 172.912 180.784  0.00  0.00    +0.210 HD
ENDBRANCH  39 167
BRANCH  31 169
ATOM    169  O   UNL     1     161.324 170.087 183.648  0.00  0.00    -0.391 OA
ATOM    170  H   UNL     1     161.500 170.976 184.003  0.00  0.00    +0.210 HD
ENDBRANCH  31 169
BRANCH  22 171
ATOM    171  C   UNL     1     152.325 165.898 188.145  0.00  0.00    +0.020 C 
ATOM    172  H   UNL     1     151.758 165.771 189.073  0.00  0.00    +0.036 HD
BRANCH 171 173
ATOM    173  C   UNL     1     152.792 167.354 188.059  0.00  0.00    -0.057 C 
ATOM    174  H   UNL     1     152.375 167.948 188.874  0.00  0.00    +0.023 HD
ATOM    175  H   UNL     1     152.492 167.820 187.116  0.00  0.00    +0.023 HD
ATOM    176  H   UNL     1     153.881 167.433 188.109  0.00  0.00    +0.023 HD
ENDBRANCH 171 173
BRANCH 171 177
ATOM    177  C   UNL     1     151.365 165.534 186.982  0.00  0.00    +0.064 C 
ATOM    178  H   UNL     1     151.358 166.357 186.259  0.00  0.00    +0.060 HD
BRANCH 177 179
ATOM    179  O   UNL     1     151.898 164.383 186.324  0.00  0.00    -0.391 OA
ATOM    180  H   UNL     1     152.855 164.564 186.182  0.00  0.00    +0.210 HD
ENDBRANCH 177 179
BRANCH 177 181
ATOM    181  C   UNL     1     149.879 165.255 187.347  0.00  0.00    -0.017 C 
ATOM    182  H   UNL     1     149.267 165.488 186.466  0.00  0.00    +0.032 HD
BRANCH 181 183
ATOM    183  C   UNL     1     149.702 163.752 187.632  0.00  0.00    -0.060 C 
ATOM    184  H   UNL     1     149.581 163.180 186.707  0.00  0.00    +0.023 HD
ATOM    185  H   UNL     1     150.558 163.341 188.176  0.00  0.00    +0.023 HD
ATOM    186  H   UNL     1     148.821 163.572 188.250  0.00  0.00    +0.023 HD
ENDBRANCH 181 183
BRANCH 181 187
ATOM    187  C   UNL     1     149.356 166.085 188.542  0.00  0.00    -0.046 C 
ATOM    188  H   UNL     1     148.374 166.506 188.306  0.00  0.00    +0.027 HD
ATOM    189  H   UNL     1     150.029 166.933 188.722  0.00  0.00    +0.027 HD
BRANCH 187 190
ATOM    190  C   UNL     1     149.211 165.246 189.824  0.00  0.00    -0.026 C 
ATOM    191  H   UNL     1     150.136 164.693 190.002  0.00  0.00    +0.029 HD
ATOM    192  H   UNL     1     148.423 164.498 189.675  0.00  0.00    +0.029 HD
BRANCH 190 193
ATOM    193  C   UNL     1     148.869 166.095 191.061  0.00  0.00    +0.061 C 
ATOM    194  O   UNL     1     149.738 167.221 191.212  0.00  0.00    -0.373 OA
ATOM    195  C   UNL     1     151.084 166.900 191.574  0.00  0.00    +0.059 C 
ATOM    196  C   UNL     1     151.128 166.129 192.892  0.00  0.00    -0.000 C 
ATOM    197  C   UNL     1     150.243 164.884 192.823  0.00  0.00    +0.063 C 
ATOM    198  C   UNL     1     148.841 165.273 192.351  0.00  0.00    -0.000 C 
ATOM    199  H   UNL     1     147.864 166.506 190.909  0.00  0.00    +0.060 HD
ATOM    200  H   UNL     1     151.545 166.313 190.772  0.00  0.00    +0.059 HD
ATOM    201  H   UNL     1     150.779 166.764 193.716  0.00  0.00    +0.032 HD
ATOM    202  H   UNL     1     152.162 165.856 193.130  0.00  0.00    +0.032 HD
ATOM    203  H   UNL     1     150.669 164.155 192.123  0.00  0.00    +0.060 HD
ATOM    204  H   UNL     1     148.366 165.869 193.143  0.00  0.00    +0.032 HD
ATOM    205  H   UNL     1     148.218 164.378 192.240  0.00  0.00    +0.032 HD
BRANCH 195 206
ATOM    206  C   UNL     1     151.849 168.214 191.689  0.00  0.00    -0.039 C 
ATOM    207  H   UNL     1     152.718 168.092 192.345  0.00  0.00    +0.025 HD
ATOM    208  H   UNL     1     151.213 169.008 192.094  0.00  0.00    +0.025 HD
ATOM    209  H   UNL     1     152.233 168.531 190.713  0.00  0.00    +0.025 HD
ENDBRANCH 195 206
BRANCH 197 210
ATOM    210  O   UNL     1     150.102 164.267 194.109  0.00  0.00    -0.380 OA
BRANCH 210 211
ATOM    211  C   UNL     1     151.099 164.658 195.046  0.00  0.00    +0.037 C 
ATOM    212  H   UNL     1     150.827 165.644 195.436  0.00  0.00    +0.052 HD
ATOM    213  H   UNL     1     152.077 164.741 194.564  0.00  0.00    +0.052 HD
ATOM    214  H   UNL     1     151.144 163.953 195.881  0.00  0.00    +0.052 HD
ENDBRANCH 210 211
ENDBRANCH 197 210
ENDBRANCH 190 193
ENDBRANCH 187 190
ENDBRANCH 181 187
ENDBRANCH 177 181
ENDBRANCH 171 177
ENDBRANCH  22 171
BRANCH  20 215
ATOM    215  O   UNL     1     156.157 163.814 189.470  0.00  0.00    -0.391 OA
ATOM    216  H   UNL     1     156.024 164.765 189.636  0.00  0.00    +0.210 HD
ENDBRANCH  20 215
BRANCH  18 217
ATOM    217  O   UNL     1     157.178 161.514 188.598  0.00  0.00    -0.391 OA
ATOM    218  H   UNL     1     157.357 162.126 189.341  0.00  0.00    +0.210 HD
ENDBRANCH  18 217
BRANCH  10 219
ATOM    219  O   UNL     1     149.363 158.928 183.623  0.00  0.00    -0.391 OA
ATOM    220  H   UNL     1     149.947 159.045 184.395  0.00  0.00    +0.210 HD
ENDBRANCH  10 219
BRANCH  37 221
ATOM    221  O   UNL     1     155.120 174.107 180.129  0.00  0.00    -0.379 OA
BRANCH 221 222
ATOM    222  C   UNL     1     154.740 174.547 178.831  0.00  0.00    +0.037 C 
ATOM    223  H   UNL     1     153.755 175.016 178.910  0.00  0.00    +0.052 HD
ATOM    224  H   UNL     1     155.440 175.291 178.447  0.00  0.00    +0.052 HD
ATOM    225  H   UNL     1     154.668 173.702 178.140  0.00  0.00    +0.052 HD
ENDBRANCH 221 222
ENDBRANCH  37 221
BRANCH  16 226
ATOM    226  O   UNL     1     156.950 159.206 185.877  0.00  0.00    -0.379 OA
BRANCH 226 227
ATOM    227  C   UNL     1     158.043 160.020 185.472  0.00  0.00    +0.037 C 
ATOM    228  H   UNL     1     158.635 160.357 186.329  0.00  0.00    +0.052 HD
ATOM    229  H   UNL     1     157.670 160.884 184.912  0.00  0.00    +0.052 HD
ATOM    230  H   UNL     1     158.690 159.430 184.815  0.00  0.00    +0.052 HD
ENDBRANCH 226 227
ENDBRANCH  16 226
TORSDOF 40
ENDMDL
MODEL 3
REMARK VINA RESULT:      -4.5      1.441      2.241
REMARK  Name = Swinholide A_conf1
REMARK  40 active torsions:
REMARK  status: ('A' for Active; 'I' for Inactive)
REMARK    1  A    between atoms: C_1  and  C_2
REMARK    2  A    between atoms: C_4  and  C_10
REMARK    3  A    between atoms: C_6  and  O_8
REMARK    4  A    between atoms: O_8  and  C_9
REMARK    5  A    between atoms: C_10  and  C_11
REMARK    6  A    between atoms: C_11  and  C_12
REMARK    7  A    between atoms: C_12  and  C_13
REMARK    8  A    between atoms: C_12  and  C_98
REMARK    9  A    between atoms: C_13  and  O_14
REMARK   10  A    between atoms: C_13  and  C_15
REMARK   11  A    between atoms: C_15  and  C_16
REMARK   12  A    between atoms: C_15  and  C_97
REMARK   13  A    between atoms: C_22  and  C_96
REMARK   14  A    between atoms: C_25  and  O_95
REMARK   15  A    between atoms: C_31  and  O_90
REMARK   16  A    between atoms: C_32  and  C_89
REMARK   17  A    between atoms: C_33  and  O_88
REMARK   18  A    between atoms: C_35  and  O_87
REMARK   19  A    between atoms: C_36  and  C_86
REMARK   20  A    between atoms: C_37  and  C_69
REMARK   21  A    between atoms: C_43  and  C_68
REMARK   22  A    between atoms: C_46  and  O_67
REMARK   23  A    between atoms: C_52  and  O_62
REMARK   24  A    between atoms: C_53  and  C_61
REMARK   25  A    between atoms: C_54  and  O_60
REMARK   26  A    between atoms: C_56  and  O_59
REMARK   27  A    between atoms: C_57  and  C_58
REMARK   28  A    between atoms: O_62  and  C_63
REMARK   29  A    between atoms: C_69  and  C_70
REMARK   30  A    between atoms: C_69  and  C_85
REMARK   31  A    between atoms: C_70  and  O_71
REMARK   32  A    between atoms: C_70  and  C_72
REMARK   33  A    between atoms: C_72  and  C_73
REMARK   34  A    between atoms: C_72  and  C_84
REMARK   35  A    between atoms: C_73  and  C_74
REMARK   36  A    between atoms: C_74  and  C_75
REMARK   37  A    between atoms: C_77  and  C_83
REMARK   38  A    between atoms: C_79  and  O_81
REMARK   39  A    between atoms: O_81  and  C_82
REMARK   40  A    between atoms: O_90  and  C_91
REMARK                            x       y       z     vdW  Elec       q    Type
REMARK                         _______ _______ _______ _____ _____    ______ ____
ROOT
ATOM      1  C   UNL     1     149.729 167.782 192.030  0.00  0.00    +0.113 C 
ATOM      2  O   UNL     1     150.927 167.594 191.228  0.00  0.00    -0.458 OA
ATOM      3  C   UNL     1     152.076 167.360 191.919  0.00  0.00    +0.332 C 
ATOM      4  O   UNL     1     152.195 167.337 193.139  0.00  0.00    -0.246 OA
ATOM      5  C   UNL     1     153.235 167.127 191.043  0.00  0.00    +0.023 C 
ATOM      6  C   UNL     1     153.157 166.682 189.780  0.00  0.00    -0.052 C 
ATOM      7  C   UNL     1     154.307 166.320 188.956  0.00  0.00    -0.054 C 
ATOM      8  C   UNL     1     155.330 165.597 189.455  0.00  0.00    -0.079 C 
ATOM      9  C   UNL     1     156.450 164.977 188.656  0.00  0.00    -0.008 C 
ATOM     10  C   UNL     1     156.996 163.658 189.234  0.00  0.00    +0.061 C 
ATOM     11  C   UNL     1     155.991 162.594 189.696  0.00  0.00    +0.003 C 
ATOM     12  C   UNL     1     155.141 161.871 188.635  0.00  0.00    +0.080 C 
ATOM     13  O   UNL     1     154.657 160.687 189.318  0.00  0.00    -0.369 OA
ATOM     14  C   UNL     1     153.432 160.114 188.833  0.00  0.00    +0.065 C 
ATOM     15  C   UNL     1     153.629 159.482 187.439  0.00  0.00    +0.000 C 
ATOM     16  C   UNL     1     152.395 158.705 186.930  0.00  0.00    +0.066 C 
ATOM     17  C   UNL     1     152.659 158.166 185.490  0.00  0.00    +0.009 C 
ATOM     18  C   UNL     1     151.607 158.659 184.462  0.00  0.00    +0.063 C 
ATOM     19  C   UNL     1     151.658 160.184 184.222  0.00  0.00    -0.000 C 
ATOM     20  C   UNL     1     150.762 160.601 183.037  0.00  0.00    +0.064 C 
ATOM     21  C   UNL     1     150.894 162.092 182.597  0.00  0.00    +0.020 C 
ATOM     22  C   UNL     1     150.588 163.117 183.734  0.00  0.00    +0.113 C 
ATOM     23  O   UNL     1     149.219 162.885 184.161  0.00  0.00    -0.458 OA
ATOM     24  C   UNL     1     149.006 162.819 185.503  0.00  0.00    +0.332 C 
ATOM     25  O   UNL     1     149.827 163.049 186.374  0.00  0.00    -0.246 OA
ATOM     26  C   UNL     1     147.592 162.458 185.749  0.00  0.00    +0.023 C 
ATOM     27  C   UNL     1     147.166 162.302 187.011  0.00  0.00    -0.052 C 
ATOM     28  C   UNL     1     145.806 161.979 187.424  0.00  0.00    -0.054 C 
ATOM     29  C   UNL     1     144.750 162.697 186.989  0.00  0.00    -0.079 C 
ATOM     30  C   UNL     1     143.305 162.513 187.360  0.00  0.00    -0.008 C 
ATOM     31  C   UNL     1     142.745 163.567 188.346  0.00  0.00    +0.061 C 
ATOM     32  C   UNL     1     142.385 164.901 187.660  0.00  0.00    +0.003 C 
ATOM     33  C   UNL     1     141.582 165.860 188.568  0.00  0.00    +0.080 C 
ATOM     34  O   UNL     1     142.438 166.570 189.480  0.00  0.00    -0.369 OA
ATOM     35  C   UNL     1     142.831 167.907 189.096  0.00  0.00    +0.065 C 
ATOM     36  C   UNL     1     143.647 168.452 190.282  0.00  0.00    +0.000 C 
ATOM     37  C   UNL     1     144.298 169.851 190.174  0.00  0.00    +0.066 C 
ATOM     38  C   UNL     1     145.362 169.921 189.036  0.00  0.00    +0.009 C 
ATOM     39  C   UNL     1     146.709 170.564 189.471  0.00  0.00    +0.063 C 
ATOM     40  C   UNL     1     147.275 170.013 190.791  0.00  0.00    -0.000 C 
ATOM     41  C   UNL     1     148.815 169.969 190.806  0.00  0.00    +0.064 C 
ATOM     42  C   UNL     1     149.339 169.301 192.112  0.00  0.00    +0.020 C 
ATOM     43  C   UNL     1     141.605 168.778 188.786  0.00  0.00    -0.008 C 
ATOM     44  C   UNL     1     140.681 168.090 187.838  0.00  0.00    -0.083 C 
ATOM     45  C   UNL     1     140.683 166.758 187.751  0.00  0.00    -0.059 C 
ATOM     46  C   UNL     1     152.317 161.169 188.933  0.00  0.00    -0.008 C 
ATOM     47  C   UNL     1     152.722 162.427 188.237  0.00  0.00    -0.083 C 
ATOM     48  C   UNL     1     154.020 162.720 188.083  0.00  0.00    -0.059 C 
ATOM     49  H   UNL     1     149.962 167.506 193.070  0.00  0.00    +0.074 HD
ATOM     50  H   UNL     1     154.191 167.260 191.540  0.00  0.00    +0.069 HD
ATOM     51  H   UNL     1     152.193 166.520 189.304  0.00  0.00    +0.062 HD
ATOM     52  H   UNL     1     155.339 165.356 190.517  0.00  0.00    +0.058 HD
ATOM     53  H   UNL     1     156.163 164.814 187.611  0.00  0.00    +0.033 HD
ATOM     54  H   UNL     1     157.280 165.696 188.617  0.00  0.00    +0.033 HD
ATOM     55  H   UNL     1     157.601 163.925 190.110  0.00  0.00    +0.060 HD
ATOM     56  H   UNL     1     155.333 163.000 190.476  0.00  0.00    +0.032 HD
ATOM     57  H   UNL     1     156.576 161.818 190.212  0.00  0.00    +0.032 HD
ATOM     58  H   UNL     1     155.776 161.526 187.811  0.00  0.00    +0.064 HD
ATOM     59  H   UNL     1     153.190 159.311 189.540  0.00  0.00    +0.060 HD
ATOM     60  H   UNL     1     154.486 158.796 187.507  0.00  0.00    +0.032 HD
ATOM     61  H   UNL     1     153.911 160.246 186.705  0.00  0.00    +0.032 HD
ATOM     62  H   UNL     1     151.540 159.388 186.926  0.00  0.00    +0.060 HD
ATOM     63  H   UNL     1     153.625 158.556 185.138  0.00  0.00    +0.035 HD
ATOM     64  H   UNL     1     151.796 158.156 183.506  0.00  0.00    +0.060 HD
ATOM     65  H   UNL     1     151.303 160.695 185.125  0.00  0.00    +0.032 HD
ATOM     66  H   UNL     1     152.695 160.488 184.035  0.00  0.00    +0.032 HD
ATOM     67  H   UNL     1     151.015 159.974 182.171  0.00  0.00    +0.060 HD
ATOM     68  H   UNL     1     150.136 162.230 181.815  0.00  0.00    +0.036 HD
ATOM     69  H   UNL     1     151.288 162.901 184.548  0.00  0.00    +0.074 HD
ATOM     70  H   UNL     1     146.945 162.328 184.892  0.00  0.00    +0.069 HD
ATOM     71  H   UNL     1     147.878 162.418 187.831  0.00  0.00    +0.062 HD
ATOM     72  H   UNL     1     144.922 163.503 186.278  0.00  0.00    +0.058 HD
ATOM     73  H   UNL     1     142.707 162.522 186.438  0.00  0.00    +0.033 HD
ATOM     74  H   UNL     1     143.135 161.510 187.767  0.00  0.00    +0.033 HD
ATOM     75  H   UNL     1     143.450 163.750 189.165  0.00  0.00    +0.060 HD
ATOM     76  H   UNL     1     141.780 164.663 186.775  0.00  0.00    +0.032 HD
ATOM     77  H   UNL     1     143.302 165.390 187.312  0.00  0.00    +0.032 HD
ATOM     78  H   UNL     1     140.907 165.278 189.207  0.00  0.00    +0.064 HD
ATOM     79  H   UNL     1     143.470 167.820 188.211  0.00  0.00    +0.060 HD
ATOM     80  H   UNL     1     144.442 167.725 190.505  0.00  0.00    +0.032 HD
ATOM     81  H   UNL     1     143.003 168.427 191.171  0.00  0.00    +0.032 HD
ATOM     82  H   UNL     1     144.802 170.009 191.133  0.00  0.00    +0.060 HD
ATOM     83  H   UNL     1     145.622 168.892 188.764  0.00  0.00    +0.035 HD
ATOM     84  H   UNL     1     147.426 170.368 188.663  0.00  0.00    +0.060 HD
ATOM     85  H   UNL     1     146.942 170.658 191.616  0.00  0.00    +0.032 HD
ATOM     86  H   UNL     1     146.874 169.021 190.980  0.00  0.00    +0.032 HD
ATOM     87  H   UNL     1     149.200 169.436 189.933  0.00  0.00    +0.060 HD
ATOM     88  H   UNL     1     148.542 169.376 192.866  0.00  0.00    +0.036 HD
ATOM     89  H   UNL     1     141.913 169.731 188.344  0.00  0.00    +0.033 HD
ATOM     90  H   UNL     1     141.041 168.998 189.700  0.00  0.00    +0.033 HD
ATOM     91  H   UNL     1     139.984 168.688 187.259  0.00  0.00    +0.057 HD
ATOM     92  H   UNL     1     139.978 166.269 187.082  0.00  0.00    +0.059 HD
ATOM     93  H   UNL     1     152.135 161.417 189.986  0.00  0.00    +0.033 HD
ATOM     94  H   UNL     1     151.376 160.797 188.524  0.00  0.00    +0.033 HD
ATOM     95  H   UNL     1     151.952 163.086 187.848  0.00  0.00    +0.057 HD
ATOM     96  H   UNL     1     154.287 163.607 187.520  0.00  0.00    +0.059 HD
ENDROOT
BRANCH  28  97
ATOM     97  C   UNL     1     145.734 160.865 188.437  0.00  0.00    -0.040 C 
ATOM     98  H   UNL     1     146.668 160.793 189.007  0.00  0.00    +0.028 HD
ATOM     99  H   UNL     1     145.569 159.907 187.931  0.00  0.00    +0.028 HD
ATOM    100  H   UNL     1     144.935 160.997 189.170  0.00  0.00    +0.028 HD
ENDBRANCH  28  97
BRANCH  21 101
ATOM    101  C   UNL     1     152.270 162.325 181.962  0.00  0.00    -0.057 C 
ATOM    102  H   UNL     1     152.756 163.219 182.366  0.00  0.00    +0.023 HD
ATOM    103  H   UNL     1     152.190 162.446 180.877  0.00  0.00    +0.023 HD
ATOM    104  H   UNL     1     152.933 161.470 182.133  0.00  0.00    +0.023 HD
ENDBRANCH  21 101
BRANCH  42 105
ATOM    105  C   UNL     1     150.528 170.092 192.707  0.00  0.00    -0.057 C 
ATOM    106  H   UNL     1     150.178 170.949 193.293  0.00  0.00    +0.023 HD
ATOM    107  H   UNL     1     151.150 169.462 193.352  0.00  0.00    +0.023 HD
ATOM    108  H   UNL     1     151.165 170.501 191.914  0.00  0.00    +0.023 HD
ENDBRANCH  42 105
BRANCH  17 109
ATOM    109  C   UNL     1     152.772 156.636 185.430  0.00  0.00    -0.058 C 
ATOM    110  H   UNL     1     152.242 156.217 184.569  0.00  0.00    +0.023 HD
ATOM    111  H   UNL     1     153.822 156.332 185.348  0.00  0.00    +0.023 HD
ATOM    112  H   UNL     1     152.372 156.179 186.341  0.00  0.00    +0.023 HD
ENDBRANCH  17 109
BRANCH  38 113
ATOM    113  C   UNL     1     144.847 170.615 187.763  0.00  0.00    -0.058 C 
ATOM    114  H   UNL     1     144.184 171.458 187.990  0.00  0.00    +0.023 HD
ATOM    115  H   UNL     1     144.297 169.918 187.124  0.00  0.00    +0.023 HD
ATOM    116  H   UNL     1     145.682 171.013 187.175  0.00  0.00    +0.023 HD
ENDBRANCH  38 113
BRANCH   7 117
ATOM    117  C   UNL     1     154.180 166.728 187.515  0.00  0.00    -0.040 C 
ATOM    118  H   UNL     1     154.197 165.849 186.861  0.00  0.00    +0.028 HD
ATOM    119  H   UNL     1     155.004 167.387 187.235  0.00  0.00    +0.028 HD
ATOM    120  H   UNL     1     153.242 167.248 187.307  0.00  0.00    +0.028 HD
ENDBRANCH   7 117
BRANCH   1 121
ATOM    121  C   UNL     1     148.662 166.702 191.613  0.00  0.00    +0.020 C 
ATOM    122  H   UNL     1     148.135 167.167 190.765  0.00  0.00    +0.036 HD
BRANCH 121 123
ATOM    123  C   UNL     1     149.398 165.463 191.071  0.00  0.00    -0.057 C 
ATOM    124  H   UNL     1     149.966 164.965 191.860  0.00  0.00    +0.023 HD
ATOM    125  H   UNL     1     150.088 165.710 190.262  0.00  0.00    +0.023 HD
ATOM    126  H   UNL     1     148.704 164.702 190.698  0.00  0.00    +0.023 HD
ENDBRANCH 121 123
BRANCH 121 127
ATOM    127  C   UNL     1     147.535 166.370 192.649  0.00  0.00    +0.064 C 
ATOM    128  H   UNL     1     147.911 165.615 193.334  0.00  0.00    +0.060 HD
BRANCH 127 129
ATOM    129  C   UNL     1     146.144 165.872 192.130  0.00  0.00    -0.017 C 
ATOM    130  H   UNL     1     146.188 164.778 192.050  0.00  0.00    +0.032 HD
BRANCH 129 131
ATOM    131  C   UNL     1     144.936 166.191 193.009  0.00  0.00    -0.060 C 
ATOM    132  H   UNL     1     144.071 166.469 192.400  0.00  0.00    +0.023 HD
ATOM    133  H   UNL     1     144.680 165.357 193.667  0.00  0.00    +0.023 HD
ATOM    134  H   UNL     1     145.141 167.060 193.649  0.00  0.00    +0.023 HD
ENDBRANCH 129 131
BRANCH 129 135
ATOM    135  C   UNL     1     145.849 166.429 190.705  0.00  0.00    -0.046 C 
ATOM    136  H   UNL     1     146.523 167.266 190.490  0.00  0.00    +0.027 HD
ATOM    137  H   UNL     1     144.844 166.856 190.694  0.00  0.00    +0.027 HD
BRANCH 135 138
ATOM    138  C   UNL     1     145.927 165.388 189.588  0.00  0.00    -0.026 C 
ATOM    139  H   UNL     1     144.917 165.060 189.329  0.00  0.00    +0.029 HD
ATOM    140  H   UNL     1     146.447 164.497 189.949  0.00  0.00    +0.029 HD
BRANCH 138 143
ATOM    141  C   UNL     1     148.259 167.525 187.605  0.00  0.00    +0.059 C 
ATOM    142  O   UNL     1     147.400 167.071 188.663  0.00  0.00    -0.373 OA
ATOM    143  C   UNL     1     146.636 165.910 188.327  0.00  0.00    +0.061 C 
ATOM    144  C   UNL     1     145.640 166.260 187.221  0.00  0.00    -0.000 C 
ATOM    145  C   UNL     1     146.180 167.312 186.245  0.00  0.00    +0.063 C 
ATOM    146  C   UNL     1     147.701 167.249 186.209  0.00  0.00    -0.000 C 
ATOM    147  H   UNL     1     148.330 168.612 187.736  0.00  0.00    +0.059 HD
ATOM    148  H   UNL     1     147.332 165.144 187.968  0.00  0.00    +0.060 HD
ATOM    149  H   UNL     1     145.355 165.345 186.693  0.00  0.00    +0.032 HD
ATOM    150  H   UNL     1     144.712 166.660 187.646  0.00  0.00    +0.032 HD
ATOM    151  H   UNL     1     145.855 168.305 186.585  0.00  0.00    +0.060 HD
ATOM    152  H   UNL     1     148.006 166.258 185.845  0.00  0.00    +0.032 HD
ATOM    153  H   UNL     1     148.125 167.962 185.494  0.00  0.00    +0.032 HD
BRANCH 141 154
ATOM    154  C   UNL     1     149.657 166.941 187.778  0.00  0.00    -0.039 C 
ATOM    155  H   UNL     1     149.709 165.916 187.401  0.00  0.00    +0.025 HD
ATOM    156  H   UNL     1     150.401 167.545 187.248  0.00  0.00    +0.025 HD
ATOM    157  H   UNL     1     149.931 166.903 188.836  0.00  0.00    +0.025 HD
ENDBRANCH 141 154
BRANCH 145 158
ATOM    158  O   UNL     1     145.603 167.042 184.963  0.00  0.00    -0.380 OA
BRANCH 158 159
ATOM    159  C   UNL     1     145.798 165.704 184.521  0.00  0.00    +0.037 C 
ATOM    160  H   UNL     1     145.088 165.506 183.713  0.00  0.00    +0.052 HD
ATOM    161  H   UNL     1     145.594 164.996 185.330  0.00  0.00    +0.052 HD
ATOM    162  H   UNL     1     146.811 165.556 184.137  0.00  0.00    +0.052 HD
ENDBRANCH 158 159
ENDBRANCH 145 158
ENDBRANCH 138 143
ENDBRANCH 135 138
ENDBRANCH 129 135
ENDBRANCH 127 129
BRANCH 127 163
ATOM    163  O   UNL     1     147.238 167.507 193.470  0.00  0.00    -0.391 OA
ATOM    164  H   UNL     1     146.274 167.593 193.560  0.00  0.00    +0.210 HD
ENDBRANCH 127 163
ENDBRANCH 121 127
ENDBRANCH   1 121
BRANCH  41 165
ATOM    165  O   UNL     1     149.292 171.315 190.710  0.00  0.00    -0.391 OA
ATOM    166  H   UNL     1     150.246 171.302 190.489  0.00  0.00    +0.210 HD
ENDBRANCH  41 165
BRANCH  39 167
ATOM    167  O   UNL     1     146.629 171.983 189.592  0.00  0.00    -0.391 OA
ATOM    168  H   UNL     1     146.510 172.200 190.537  0.00  0.00    +0.210 HD
ENDBRANCH  39 167
BRANCH  31 169
ATOM    169  O   UNL     1     141.553 163.009 188.917  0.00  0.00    -0.391 OA
ATOM    170  H   UNL     1     141.831 162.347 189.574  0.00  0.00    +0.210 HD
ENDBRANCH  31 169
BRANCH  22 171
ATOM    171  C   UNL     1     150.766 164.622 183.325  0.00  0.00    +0.020 C 
ATOM    172  H   UNL     1     151.034 164.628 182.263  0.00  0.00    +0.036 HD
BRANCH 171 173
ATOM    173  C   UNL     1     149.471 165.420 183.500  0.00  0.00    -0.057 C 
ATOM    174  H   UNL     1     148.940 165.519 182.551  0.00  0.00    +0.023 HD
ATOM    175  H   UNL     1     149.664 166.426 183.884  0.00  0.00    +0.023 HD
ATOM    176  H   UNL     1     148.795 164.942 184.214  0.00  0.00    +0.023 HD
ENDBRANCH 171 173
BRANCH 171 177
ATOM    177  C   UNL     1     151.949 165.274 184.088  0.00  0.00    +0.064 C 
ATOM    178  H   UNL     1     151.684 166.308 184.332  0.00  0.00    +0.060 HD
BRANCH 177 179
ATOM    179  O   UNL     1     152.113 164.566 185.318  0.00  0.00    -0.391 OA
ATOM    180  H   UNL     1     151.207 164.382 185.655  0.00  0.00    +0.210 HD
ENDBRANCH 177 179
BRANCH 177 181
ATOM    181  C   UNL     1     153.321 165.329 183.359  0.00  0.00    -0.017 C 
ATOM    182  H   UNL     1     153.701 164.302 183.279  0.00  0.00    +0.032 HD
BRANCH 181 183
ATOM    183  C   UNL     1     153.111 165.843 181.923  0.00  0.00    -0.060 C 
ATOM    184  H   UNL     1     152.108 165.604 181.554  0.00  0.00    +0.023 HD
ATOM    185  H   UNL     1     153.248 166.926 181.857  0.00  0.00    +0.023 HD
ATOM    186  H   UNL     1     153.830 165.393 181.237  0.00  0.00    +0.023 HD
ENDBRANCH 181 183
BRANCH 181 187
ATOM    187  C   UNL     1     154.384 166.191 184.078  0.00  0.00    -0.046 C 
ATOM    188  H   UNL     1     153.968 166.611 185.000  0.00  0.00    +0.027 HD
ATOM    189  H   UNL     1     154.660 167.041 183.441  0.00  0.00    +0.027 HD
BRANCH 187 190
ATOM    190  C   UNL     1     155.640 165.385 184.455  0.00  0.00    -0.026 C 
ATOM    191  H   UNL     1     155.470 164.328 184.239  0.00  0.00    +0.029 HD
ATOM    192  H   UNL     1     155.803 165.462 185.537  0.00  0.00    +0.029 HD
BRANCH 190 193
ATOM    193  C   UNL     1     156.904 165.865 183.721  0.00  0.00    +0.061 C 
ATOM    194  O   UNL     1     158.102 165.301 184.263  0.00  0.00    -0.373 OA
ATOM    195  C   UNL     1     158.455 165.773 185.566  0.00  0.00    +0.059 C 
ATOM    196  C   UNL     1     158.640 167.289 185.568  0.00  0.00    -0.000 C 
ATOM    197  C   UNL     1     157.395 167.991 185.025  0.00  0.00    +0.063 C 
ATOM    198  C   UNL     1     157.015 167.390 183.670  0.00  0.00    -0.000 C 
ATOM    199  H   UNL     1     156.840 165.504 182.688  0.00  0.00    +0.060 HD
ATOM    200  H   UNL     1     157.676 165.483 186.280  0.00  0.00    +0.059 HD
ATOM    201  H   UNL     1     159.501 167.568 184.946  0.00  0.00    +0.032 HD
ATOM    202  H   UNL     1     158.868 167.636 186.582  0.00  0.00    +0.032 HD
ATOM    203  H   UNL     1     156.557 167.867 185.721  0.00  0.00    +0.060 HD
ATOM    204  H   UNL     1     157.790 167.668 182.942  0.00  0.00    +0.032 HD
ATOM    205  H   UNL     1     156.087 167.845 183.302  0.00  0.00    +0.032 HD
BRANCH 195 206
ATOM    206  C   UNL     1     159.745 165.069 185.971  0.00  0.00    -0.039 C 
ATOM    207  H   UNL     1     159.592 164.494 186.890  0.00  0.00    +0.025 HD
ATOM    208  H   UNL     1     160.552 165.789 186.138  0.00  0.00    +0.025 HD
ATOM    209  H   UNL     1     160.060 164.356 185.201  0.00  0.00    +0.025 HD
ENDBRANCH 195 206
BRANCH 197 210
ATOM    210  O   UNL     1     157.626 169.390 184.819  0.00  0.00    -0.380 OA
BRANCH 210 211
ATOM    211  C   UNL     1     158.931 169.817 185.193  0.00  0.00    +0.037 C 
ATOM    212  H   UNL     1     159.404 170.266 184.314  0.00  0.00    +0.052 HD
ATOM    213  H   UNL     1     159.543 168.970 185.512  0.00  0.00    +0.052 HD
ATOM    214  H   UNL     1     158.880 170.570 185.984  0.00  0.00    +0.052 HD
ENDBRANCH 210 211
ENDBRANCH 197 210
ENDBRANCH 190 193
ENDBRANCH 187 190
ENDBRANCH 181 187
ENDBRANCH 177 181
ENDBRANCH 171 177
ENDBRANCH  22 171
BRANCH  20 215
ATOM    215  O   UNL     1     149.406 160.271 183.369  0.00  0.00    -0.391 OA
ATOM    216  H   UNL     1     148.838 160.986 183.027  0.00  0.00    +0.210 HD
ENDBRANCH  20 215
BRANCH  18 217
ATOM    217  O   UNL     1     150.298 158.271 184.884  0.00  0.00    -0.391 OA
ATOM    218  H   UNL     1     150.300 158.310 185.863  0.00  0.00    +0.210 HD
ENDBRANCH  18 217
BRANCH  10 219
ATOM    219  O   UNL     1     157.899 163.088 188.282  0.00  0.00    -0.391 OA
ATOM    220  H   UNL     1     157.951 162.133 188.466  0.00  0.00    +0.210 HD
ENDBRANCH  10 219
BRANCH  37 221
ATOM    221  O   UNL     1     143.358 170.917 190.031  0.00  0.00    -0.379 OA
BRANCH 221 222
ATOM    222  C   UNL     1     143.378 171.865 191.090  0.00  0.00    +0.037 C 
ATOM    223  H   UNL     1     142.544 171.639 191.760  0.00  0.00    +0.052 HD
ATOM    224  H   UNL     1     144.303 171.794 191.665  0.00  0.00    +0.052 HD
ATOM    225  H   UNL     1     143.249 172.881 190.704  0.00  0.00    +0.052 HD
ENDBRANCH 221 222
ENDBRANCH  37 221
BRANCH  16 226
ATOM    226  O   UNL     1     152.165 157.642 187.868  0.00  0.00    -0.379 OA
BRANCH 226 227
ATOM    227  C   UNL     1     150.829 157.617 188.355  0.00  0.00    +0.037 C 
ATOM    228  H   UNL     1     150.317 158.568 188.181  0.00  0.00    +0.052 HD
ATOM    229  H   UNL     1     150.832 157.382 189.425  0.00  0.00    +0.052 HD
ATOM    230  H   UNL     1     150.283 156.828 187.826  0.00  0.00    +0.052 HD
ENDBRANCH 226 227
ENDBRANCH  16 226
TORSDOF 40
ENDMDL
MODEL 4
REMARK VINA RESULT:      -4.4      2.503      4.189
REMARK  Name = Swinholide A_conf1
REMARK  40 active torsions:
REMARK  status: ('A' for Active; 'I' for Inactive)
REMARK    1  A    between atoms: C_1  and  C_2
REMARK    2  A    between atoms: C_4  and  C_10
REMARK    3  A    between atoms: C_6  and  O_8
REMARK    4  A    between atoms: O_8  and  C_9
REMARK    5  A    between atoms: C_10  and  C_11
REMARK    6  A    between atoms: C_11  and  C_12
REMARK    7  A    between atoms: C_12  and  C_13
REMARK    8  A    between atoms: C_12  and  C_98
REMARK    9  A    between atoms: C_13  and  O_14
REMARK   10  A    between atoms: C_13  and  C_15
REMARK   11  A    between atoms: C_15  and  C_16
REMARK   12  A    between atoms: C_15  and  C_97
REMARK   13  A    between atoms: C_22  and  C_96
REMARK   14  A    between atoms: C_25  and  O_95
REMARK   15  A    between atoms: C_31  and  O_90
REMARK   16  A    between atoms: C_32  and  C_89
REMARK   17  A    between atoms: C_33  and  O_88
REMARK   18  A    between atoms: C_35  and  O_87
REMARK   19  A    between atoms: C_36  and  C_86
REMARK   20  A    between atoms: C_37  and  C_69
REMARK   21  A    between atoms: C_43  and  C_68
REMARK   22  A    between atoms: C_46  and  O_67
REMARK   23  A    between atoms: C_52  and  O_62
REMARK   24  A    between atoms: C_53  and  C_61
REMARK   25  A    between atoms: C_54  and  O_60
REMARK   26  A    between atoms: C_56  and  O_59
REMARK   27  A    between atoms: C_57  and  C_58
REMARK   28  A    between atoms: O_62  and  C_63
REMARK   29  A    between atoms: C_69  and  C_70
REMARK   30  A    between atoms: C_69  and  C_85
REMARK   31  A    between atoms: C_70  and  O_71
REMARK   32  A    between atoms: C_70  and  C_72
REMARK   33  A    between atoms: C_72  and  C_73
REMARK   34  A    between atoms: C_72  and  C_84
REMARK   35  A    between atoms: C_73  and  C_74
REMARK   36  A    between atoms: C_74  and  C_75
REMARK   37  A    between atoms: C_77  and  C_83
REMARK   38  A    between atoms: C_79  and  O_81
REMARK   39  A    between atoms: O_81  and  C_82
REMARK   40  A    between atoms: O_90  and  C_91
REMARK                            x       y       z     vdW  Elec       q    Type
REMARK                         _______ _______ _______ _____ _____    ______ ____
ROOT
ATOM      1  C   UNL     1     148.098 166.099 192.416  0.00  0.00    +0.113 C 
ATOM      2  O   UNL     1     149.210 165.416 191.775  0.00  0.00    -0.458 OA
ATOM      3  C   UNL     1     149.881 164.517 192.546  0.00  0.00    +0.332 C 
ATOM      4  O   UNL     1     149.662 164.270 193.727  0.00  0.00    -0.246 OA
ATOM      5  C   UNL     1     150.957 163.826 191.818  0.00  0.00    +0.023 C 
ATOM      6  C   UNL     1     150.994 163.666 190.487  0.00  0.00    -0.052 C 
ATOM      7  C   UNL     1     151.986 162.866 189.775  0.00  0.00    -0.054 C 
ATOM      8  C   UNL     1     152.362 161.650 190.223  0.00  0.00    -0.079 C 
ATOM      9  C   UNL     1     153.197 160.647 189.467  0.00  0.00    -0.008 C 
ATOM     10  C   UNL     1     152.864 159.174 189.775  0.00  0.00    +0.061 C 
ATOM     11  C   UNL     1     151.388 158.753 189.810  0.00  0.00    +0.003 C 
ATOM     12  C   UNL     1     150.593 158.742 188.491  0.00  0.00    +0.080 C 
ATOM     13  O   UNL     1     149.439 157.914 188.783  0.00  0.00    -0.369 OA
ATOM     14  C   UNL     1     148.258 158.149 187.999  0.00  0.00    +0.065 C 
ATOM     15  C   UNL     1     148.465 157.704 186.536  0.00  0.00    +0.000 C 
ATOM     16  C   UNL     1     147.184 157.776 185.678  0.00  0.00    +0.066 C 
ATOM     17  C   UNL     1     147.505 157.380 184.203  0.00  0.00    +0.009 C 
ATOM     18  C   UNL     1     147.126 158.489 183.187  0.00  0.00    +0.063 C 
ATOM     19  C   UNL     1     147.973 159.771 183.341  0.00  0.00    -0.000 C 
ATOM     20  C   UNL     1     147.727 160.755 182.178  0.00  0.00    +0.064 C 
ATOM     21  C   UNL     1     148.675 161.993 182.143  0.00  0.00    +0.020 C 
ATOM     22  C   UNL     1     148.632 162.860 183.441  0.00  0.00    +0.113 C 
ATOM     23  O   UNL     1     147.268 163.332 183.594  0.00  0.00    -0.458 OA
ATOM     24  C   UNL     1     146.719 163.209 184.832  0.00  0.00    +0.332 C 
ATOM     25  O   UNL     1     147.298 162.849 185.844  0.00  0.00    -0.246 OA
ATOM     26  C   UNL     1     145.299 163.623 184.774  0.00  0.00    +0.023 C 
ATOM     27  C   UNL     1     144.549 163.547 185.883  0.00  0.00    -0.052 C 
ATOM     28  C   UNL     1     143.151 163.940 186.001  0.00  0.00    -0.054 C 
ATOM     29  C   UNL     1     142.729 165.160 185.608  0.00  0.00    -0.079 C 
ATOM     30  C   UNL     1     141.337 165.722 185.708  0.00  0.00    -0.008 C 
ATOM     31  C   UNL     1     141.135 166.767 186.831  0.00  0.00    +0.061 C 
ATOM     32  C   UNL     1     141.658 168.168 186.451  0.00  0.00    +0.003 C 
ATOM     33  C   UNL     1     141.226 169.273 187.441  0.00  0.00    +0.080 C 
ATOM     34  O   UNL     1     142.057 169.291 188.614  0.00  0.00    -0.369 OA
ATOM     35  C   UNL     1     143.135 170.254 188.633  0.00  0.00    +0.065 C 
ATOM     36  C   UNL     1     143.783 170.118 190.023  0.00  0.00    +0.000 C 
ATOM     37  C   UNL     1     145.038 170.959 190.359  0.00  0.00    +0.066 C 
ATOM     38  C   UNL     1     146.248 170.608 189.440  0.00  0.00    +0.009 C 
ATOM     39  C   UNL     1     147.578 170.373 190.211  0.00  0.00    +0.063 C 
ATOM     40  C   UNL     1     147.448 169.435 191.422  0.00  0.00    -0.000 C 
ATOM     41  C   UNL     1     148.710 168.580 191.650  0.00  0.00    +0.064 C 
ATOM     42  C   UNL     1     148.492 167.566 192.813  0.00  0.00    +0.020 C 
ATOM     43  C   UNL     1     142.614 171.674 188.373  0.00  0.00    -0.008 C 
ATOM     44  C   UNL     1     141.745 171.716 187.160  0.00  0.00    -0.083 C 
ATOM     45  C   UNL     1     141.119 170.612 186.749  0.00  0.00    -0.059 C 
ATOM     46  C   UNL     1     147.816 159.610 188.193  0.00  0.00    -0.008 C 
ATOM     47  C   UNL     1     148.944 160.542 187.895  0.00  0.00    -0.083 C 
ATOM     48  C   UNL     1     150.210 160.121 188.008  0.00  0.00    -0.059 C 
ATOM     49  H   UNL     1     147.895 165.604 193.378  0.00  0.00    +0.074 HD
ATOM     50  H   UNL     1     151.695 163.364 192.466  0.00  0.00    +0.069 HD
ATOM     51  H   UNL     1     150.229 164.105 189.851  0.00  0.00    +0.062 HD
ATOM     52  H   UNL     1     151.984 161.301 191.182  0.00  0.00    +0.058 HD
ATOM     53  H   UNL     1     153.141 160.803 188.384  0.00  0.00    +0.033 HD
ATOM     54  H   UNL     1     154.252 160.814 189.728  0.00  0.00    +0.033 HD
ATOM     55  H   UNL     1     153.279 158.959 190.768  0.00  0.00    +0.060 HD
ATOM     56  H   UNL     1     150.840 159.336 190.561  0.00  0.00    +0.032 HD
ATOM     57  H   UNL     1     151.368 157.724 190.197  0.00  0.00    +0.032 HD
ATOM     58  H   UNL     1     151.163 158.228 187.709  0.00  0.00    +0.064 HD
ATOM     59  H   UNL     1     147.485 157.509 188.443  0.00  0.00    +0.060 HD
ATOM     60  H   UNL     1     148.830 156.667 186.556  0.00  0.00    +0.032 HD
ATOM     61  H   UNL     1     149.260 158.294 186.063  0.00  0.00    +0.032 HD
ATOM     62  H   UNL     1     146.803 158.802 185.718  0.00  0.00    +0.060 HD
ATOM     63  H   UNL     1     148.591 157.242 184.102  0.00  0.00    +0.035 HD
ATOM     64  H   UNL     1     147.279 158.096 182.174  0.00  0.00    +0.060 HD
ATOM     65  H   UNL     1     147.698 160.265 184.280  0.00  0.00    +0.032 HD
ATOM     66  H   UNL     1     149.035 159.501 183.387  0.00  0.00    +0.032 HD
ATOM     67  H   UNL     1     147.850 160.214 181.231  0.00  0.00    +0.060 HD
ATOM     68  H   UNL     1     148.307 162.616 181.318  0.00  0.00    +0.036 HD
ATOM     69  H   UNL     1     148.907 162.198 184.270  0.00  0.00    +0.074 HD
ATOM     70  H   UNL     1     144.912 163.972 183.827  0.00  0.00    +0.069 HD
ATOM     71  H   UNL     1     144.994 163.156 186.800  0.00  0.00    +0.062 HD
ATOM     72  H   UNL     1     143.444 165.840 185.151  0.00  0.00    +0.058 HD
ATOM     73  H   UNL     1     141.074 166.171 184.740  0.00  0.00    +0.033 HD
ATOM     74  H   UNL     1     140.603 164.916 185.827  0.00  0.00    +0.033 HD
ATOM     75  H   UNL     1     141.607 166.436 187.764  0.00  0.00    +0.060 HD
ATOM     76  H   UNL     1     141.259 168.409 185.457  0.00  0.00    +0.032 HD
ATOM     77  H   UNL     1     142.751 168.138 186.371  0.00  0.00    +0.032 HD
ATOM     78  H   UNL     1     140.217 169.057 187.811  0.00  0.00    +0.064 HD
ATOM     79  H   UNL     1     143.850 169.962 187.857  0.00  0.00    +0.060 HD
ATOM     80  H   UNL     1     144.037 169.058 190.172  0.00  0.00    +0.032 HD
ATOM     81  H   UNL     1     143.009 170.318 190.774  0.00  0.00    +0.032 HD
ATOM     82  H   UNL     1     145.294 170.694 191.390  0.00  0.00    +0.060 HD
ATOM     83  H   UNL     1     146.032 169.646 188.964  0.00  0.00    +0.035 HD
ATOM     84  H   UNL     1     148.285 169.939 189.493  0.00  0.00    +0.060 HD
ATOM     85  H   UNL     1     147.277 170.039 192.324  0.00  0.00    +0.032 HD
ATOM     86  H   UNL     1     146.582 168.791 191.301  0.00  0.00    +0.032 HD
ATOM     87  H   UNL     1     148.992 168.048 190.737  0.00  0.00    +0.060 HD
ATOM     88  H   UNL     1     147.673 167.949 193.438  0.00  0.00    +0.036 HD
ATOM     89  H   UNL     1     143.448 172.369 188.229  0.00  0.00    +0.033 HD
ATOM     90  H   UNL     1     142.019 172.034 189.221  0.00  0.00    +0.033 HD
ATOM     91  H   UNL     1     141.601 172.665 186.652  0.00  0.00    +0.057 HD
ATOM     92  H   UNL     1     140.460 170.667 185.885  0.00  0.00    +0.059 HD
ATOM     93  H   UNL     1     147.519 159.771 189.237  0.00  0.00    +0.033 HD
ATOM     94  H   UNL     1     146.951 159.852 187.572  0.00  0.00    +0.033 HD
ATOM     95  H   UNL     1     148.719 161.555 187.573  0.00  0.00    +0.057 HD
ATOM     96  H   UNL     1     151.008 160.798 187.727  0.00  0.00    +0.059 HD
ENDROOT
BRANCH  28  97
ATOM     97  C   UNL     1     142.291 162.909 186.687  0.00  0.00    -0.040 C 
ATOM     98  H   UNL     1     141.831 163.323 187.592  0.00  0.00    +0.028 HD
ATOM     99  H   UNL     1     142.901 162.046 186.977  0.00  0.00    +0.028 HD
ATOM    100  H   UNL     1     141.472 162.544 186.062  0.00  0.00    +0.028 HD
ENDBRANCH  28  97
BRANCH  21 101
ATOM    101  C   UNL     1     150.099 161.545 181.792  0.00  0.00    -0.057 C 
ATOM    102  H   UNL     1     150.643 161.197 182.676  0.00  0.00    +0.023 HD
ATOM    103  H   UNL     1     150.673 162.363 181.343  0.00  0.00    +0.023 HD
ATOM    104  H   UNL     1     150.087 160.732 181.058  0.00  0.00    +0.023 HD
ENDBRANCH  21 101
BRANCH  42 105
ATOM    105  C   UNL     1     149.722 167.518 193.750  0.00  0.00    -0.057 C 
ATOM    106  H   UNL     1     149.444 167.773 194.779  0.00  0.00    +0.023 HD
ATOM    107  H   UNL     1     150.189 166.527 193.753  0.00  0.00    +0.023 HD
ATOM    108  H   UNL     1     150.479 168.250 193.445  0.00  0.00    +0.023 HD
ENDBRANCH  42 105
BRANCH  17 109
ATOM    109  C   UNL     1     146.868 156.047 183.784  0.00  0.00    -0.058 C 
ATOM    110  H   UNL     1     146.046 155.756 184.445  0.00  0.00    +0.023 HD
ATOM    111  H   UNL     1     146.463 156.118 182.768  0.00  0.00    +0.023 HD
ATOM    112  H   UNL     1     147.612 155.243 183.781  0.00  0.00    +0.023 HD
ENDBRANCH  17 109
BRANCH  38 113
ATOM    113  C   UNL     1     146.477 171.634 188.317  0.00  0.00    -0.058 C 
ATOM    114  H   UNL     1     146.480 171.170 187.325  0.00  0.00    +0.023 HD
ATOM    115  H   UNL     1     147.427 172.160 188.445  0.00  0.00    +0.023 HD
ATOM    116  H   UNL     1     145.682 172.389 188.316  0.00  0.00    +0.023 HD
ENDBRANCH  38 113
BRANCH   7 117
ATOM    117  C   UNL     1     152.442 163.469 188.476  0.00  0.00    -0.040 C 
ATOM    118  H   UNL     1     152.955 164.422 188.651  0.00  0.00    +0.028 HD
ATOM    119  H   UNL     1     151.587 163.648 187.822  0.00  0.00    +0.028 HD
ATOM    120  H   UNL     1     153.151 162.831 187.943  0.00  0.00    +0.028 HD
ENDBRANCH   7 117
BRANCH   1 121
ATOM    121  C   UNL     1     146.785 165.816 191.594  0.00  0.00    +0.020 C 
ATOM    122  H   UNL     1     146.699 164.718 191.605  0.00  0.00    +0.036 HD
BRANCH 121 123
ATOM    123  C   UNL     1     145.582 166.378 192.374  0.00  0.00    -0.057 C 
ATOM    124  H   UNL     1     144.699 166.455 191.735  0.00  0.00    +0.023 HD
ATOM    125  H   UNL     1     145.782 167.366 192.792  0.00  0.00    +0.023 HD
ATOM    126  H   UNL     1     145.280 165.721 193.196  0.00  0.00    +0.023 HD
ENDBRANCH 121 123
BRANCH 121 127
ATOM    127  C   UNL     1     146.794 166.199 190.075  0.00  0.00    +0.064 C 
ATOM    128  H   UNL     1     146.323 167.172 189.965  0.00  0.00    +0.060 HD
BRANCH 127 129
ATOM    129  C   UNL     1     146.116 165.238 189.042  0.00  0.00    -0.017 C 
ATOM    130  H   UNL     1     146.833 165.061 188.229  0.00  0.00    +0.032 HD
BRANCH 129 131
ATOM    131  C   UNL     1     145.707 163.861 189.561  0.00  0.00    -0.060 C 
ATOM    132  H   UNL     1     146.192 163.642 190.517  0.00  0.00    +0.023 HD
ATOM    133  H   UNL     1     144.623 163.769 189.662  0.00  0.00    +0.023 HD
ATOM    134  H   UNL     1     146.037 163.072 188.872  0.00  0.00    +0.023 HD
ENDBRANCH 129 131
BRANCH 129 135
ATOM    135  C   UNL     1     144.853 165.897 188.412  0.00  0.00    -0.046 C 
ATOM    136  H   UNL     1     143.991 165.745 189.071  0.00  0.00    +0.027 HD
ATOM    137  H   UNL     1     144.606 165.373 187.485  0.00  0.00    +0.027 HD
BRANCH 135 138
ATOM    138  C   UNL     1     145.011 167.382 188.082  0.00  0.00    -0.026 C 
ATOM    139  H   UNL     1     145.407 167.906 188.956  0.00  0.00    +0.029 HD
ATOM    140  H   UNL     1     144.031 167.824 187.886  0.00  0.00    +0.029 HD
BRANCH 138 143
ATOM    141  C   UNL     1     148.150 168.356 186.312  0.00  0.00    +0.059 C 
ATOM    142  O   UNL     1     147.139 168.254 187.326  0.00  0.00    -0.373 OA
ATOM    143  C   UNL     1     145.930 167.636 186.875  0.00  0.00    +0.061 C 
ATOM    144  C   UNL     1     145.261 168.531 185.831  0.00  0.00    -0.000 C 
ATOM    145  C   UNL     1     146.272 169.299 184.971  0.00  0.00    +0.063 C 
ATOM    146  C   UNL     1     147.582 168.527 184.903  0.00  0.00    -0.000 C 
ATOM    147  H   UNL     1     148.722 169.258 186.561  0.00  0.00    +0.059 HD
ATOM    148  H   UNL     1     146.195 166.675 186.422  0.00  0.00    +0.060 HD
ATOM    149  H   UNL     1     144.598 167.923 185.210  0.00  0.00    +0.032 HD
ATOM    150  H   UNL     1     144.617 169.276 186.315  0.00  0.00    +0.032 HD
ATOM    151  H   UNL     1     146.442 170.285 185.424  0.00  0.00    +0.060 HD
ATOM    152  H   UNL     1     147.397 167.555 184.425  0.00  0.00    +0.032 HD
ATOM    153  H   UNL     1     148.321 169.024 184.265  0.00  0.00    +0.032 HD
BRANCH 141 154
ATOM    154  C   UNL     1     149.099 167.164 186.395  0.00  0.00    -0.039 C 
ATOM    155  H   UNL     1     149.516 166.919 185.414  0.00  0.00    +0.025 HD
ATOM    156  H   UNL     1     149.926 167.370 187.083  0.00  0.00    +0.025 HD
ATOM    157  H   UNL     1     148.569 166.274 186.745  0.00  0.00    +0.025 HD
ENDBRANCH 141 154
BRANCH 145 158
ATOM    158  O   UNL     1     145.685 169.472 183.677  0.00  0.00    -0.380 OA
BRANCH 158 159
ATOM    159  C   UNL     1     146.082 168.484 182.734  0.00  0.00    +0.037 C 
ATOM    160  H   UNL     1     145.320 168.436 181.950  0.00  0.00    +0.052 HD
ATOM    161  H   UNL     1     146.141 167.500 183.208  0.00  0.00    +0.052 HD
ATOM    162  H   UNL     1     147.041 168.738 182.272  0.00  0.00    +0.052 HD
ENDBRANCH 158 159
ENDBRANCH 145 158
ENDBRANCH 138 143
ENDBRANCH 135 138
ENDBRANCH 129 135
ENDBRANCH 127 129
BRANCH 127 163
ATOM    163  O   UNL     1     148.133 166.374 189.595  0.00  0.00    -0.391 OA
ATOM    164  H   UNL     1     148.735 165.818 190.118  0.00  0.00    +0.210 HD
ENDBRANCH 127 163
ENDBRANCH 121 127
ENDBRANCH   1 121
BRANCH  41 165
ATOM    165  O   UNL     1     149.790 169.467 191.959  0.00  0.00    -0.391 OA
ATOM    166  H   UNL     1     150.053 169.338 192.893  0.00  0.00    +0.210 HD
ENDBRANCH  41 165
BRANCH  39 167
ATOM    167  O   UNL     1     148.172 171.588 190.666  0.00  0.00    -0.391 OA
ATOM    168  H   UNL     1     148.417 172.118 189.883  0.00  0.00    +0.210 HD
ENDBRANCH  39 167
BRANCH  31 169
ATOM    169  O   UNL     1     139.722 166.854 187.068  0.00  0.00    -0.391 OA
ATOM    170  H   UNL     1     139.596 166.940 188.029  0.00  0.00    +0.210 HD
ENDBRANCH  31 169
BRANCH  22 171
ATOM    171  C   UNL     1     149.619 164.081 183.446  0.00  0.00    +0.020 C 
ATOM    172  H   UNL     1     150.307 163.931 182.607  0.00  0.00    +0.036 HD
BRANCH 171 173
ATOM    173  C   UNL     1     148.886 165.409 183.237  0.00  0.00    -0.057 C 
ATOM    174  H   UNL     1     149.523 166.132 182.726  0.00  0.00    +0.023 HD
ATOM    175  H   UNL     1     148.572 165.851 184.188  0.00  0.00    +0.023 HD
ATOM    176  H   UNL     1     147.978 165.281 182.642  0.00  0.00    +0.023 HD
ENDBRANCH 171 173
BRANCH 171 177
ATOM    177  C   UNL     1     150.483 164.099 184.735  0.00  0.00    +0.064 C 
ATOM    178  H   UNL     1     150.177 164.949 185.353  0.00  0.00    +0.060 HD
BRANCH 177 179
ATOM    179  O   UNL     1     150.194 162.905 185.465  0.00  0.00    -0.391 OA
ATOM    180  H   UNL     1     150.172 163.161 186.415  0.00  0.00    +0.210 HD
ENDBRANCH 177 179
BRANCH 177 181
ATOM    181  C   UNL     1     152.023 164.213 184.556  0.00  0.00    -0.017 C 
ATOM    182  H   UNL     1     152.478 163.304 184.974  0.00  0.00    +0.032 HD
BRANCH 181 183
ATOM    183  C   UNL     1     152.359 164.233 183.054  0.00  0.00    -0.060 C 
ATOM    184  H   UNL     1     152.107 165.197 182.599  0.00  0.00    +0.023 HD
ATOM    185  H   UNL     1     153.420 164.040 182.874  0.00  0.00    +0.023 HD
ATOM    186  H   UNL     1     151.804 163.461 182.519  0.00  0.00    +0.023 HD
ENDBRANCH 181 183
BRANCH 181 187
ATOM    187  C   UNL     1     152.651 165.441 185.254  0.00  0.00    -0.046 C 
ATOM    188  H   UNL     1     152.037 165.742 186.110  0.00  0.00    +0.027 HD
ATOM    189  H   UNL     1     152.662 166.291 184.560  0.00  0.00    +0.027 HD
BRANCH 187 190
ATOM    190  C   UNL     1     154.073 165.163 185.771  0.00  0.00    -0.026 C 
ATOM    191  H   UNL     1     154.688 164.782 184.952  0.00  0.00    +0.029 HD
ATOM    192  H   UNL     1     154.031 164.369 186.526  0.00  0.00    +0.029 HD
BRANCH 190 193
ATOM    193  C   UNL     1     154.743 166.405 186.385  0.00  0.00    +0.061 C 
ATOM    194  O   UNL     1     155.828 166.071 187.255  0.00  0.00    -0.373 OA
ATOM    195  C   UNL     1     155.445 165.443 188.482  0.00  0.00    +0.059 C 
ATOM    196  C   UNL     1     154.496 166.333 189.281  0.00  0.00    -0.000 C 
ATOM    197  C   UNL     1     153.282 166.728 188.439  0.00  0.00    +0.063 C 
ATOM    198  C   UNL     1     153.748 167.316 187.107  0.00  0.00    -0.000 C 
ATOM    199  H   UNL     1     155.181 166.981 185.562  0.00  0.00    +0.060 HD
ATOM    200  H   UNL     1     154.972 164.479 188.264  0.00  0.00    +0.059 HD
ATOM    201  H   UNL     1     155.012 167.246 189.604  0.00  0.00    +0.032 HD
ATOM    202  H   UNL     1     154.181 165.818 190.195  0.00  0.00    +0.032 HD
ATOM    203  H   UNL     1     152.654 165.849 188.245  0.00  0.00    +0.060 HD
ATOM    204  H   UNL     1     154.231 168.283 187.309  0.00  0.00    +0.032 HD
ATOM    205  H   UNL     1     152.884 167.544 186.471  0.00  0.00    +0.032 HD
BRANCH 195 206
ATOM    206  C   UNL     1     156.722 165.168 189.269  0.00  0.00    -0.039 C 
ATOM    207  H   UNL     1     156.540 165.285 190.343  0.00  0.00    +0.025 HD
ATOM    208  H   UNL     1     157.523 165.852 188.973  0.00  0.00    +0.025 HD
ATOM    209  H   UNL     1     157.062 164.138 189.117  0.00  0.00    +0.025 HD
ENDBRANCH 195 206
BRANCH 197 210
ATOM    210  O   UNL     1     152.491 167.729 189.092  0.00  0.00    -0.380 OA
BRANCH 210 211
ATOM    211  C   UNL     1     151.972 167.319 190.352  0.00  0.00    +0.037 C 
ATOM    212  H   UNL     1     152.014 168.176 191.030  0.00  0.00    +0.052 HD
ATOM    213  H   UNL     1     152.576 166.516 190.781  0.00  0.00    +0.052 HD
ATOM    214  H   UNL     1     150.929 167.001 190.257  0.00  0.00    +0.052 HD
ENDBRANCH 210 211
ENDBRANCH 197 210
ENDBRANCH 190 193
ENDBRANCH 187 190
ENDBRANCH 181 187
ENDBRANCH 177 181
ENDBRANCH 171 177
ENDBRANCH  22 171
BRANCH  20 215
ATOM    215  O   UNL     1     146.349 161.152 182.217  0.00  0.00    -0.391 OA
ATOM    216  H   UNL     1     145.845 160.517 181.677  0.00  0.00    +0.210 HD
ENDBRANCH  20 215
BRANCH  18 217
ATOM    217  O   UNL     1     145.736 158.800 183.306  0.00  0.00    -0.391 OA
ATOM    218  H   UNL     1     145.662 159.773 183.217  0.00  0.00    +0.210 HD
ENDBRANCH  18 217
BRANCH  10 219
ATOM    219  O   UNL     1     153.581 158.348 188.853  0.00  0.00    -0.391 OA
ATOM    220  H   UNL     1     154.500 158.671 188.828  0.00  0.00    +0.210 HD
ENDBRANCH  10 219
BRANCH  37 221
ATOM    221  O   UNL     1     144.808 172.369 190.348  0.00  0.00    -0.379 OA
BRANCH 221 222
ATOM    222  C   UNL     1     145.126 173.026 191.568  0.00  0.00    +0.037 C 
ATOM    223  H   UNL     1     145.099 172.281 192.368  0.00  0.00    +0.052 HD
ATOM    224  H   UNL     1     146.130 173.453 191.535  0.00  0.00    +0.052 HD
ATOM    225  H   UNL     1     144.390 173.804 191.793  0.00  0.00    +0.052 HD
ENDBRANCH 221 222
ENDBRANCH  37 221
BRANCH  16 226
ATOM    226  O   UNL     1     146.237 156.881 186.281  0.00  0.00    -0.379 OA
BRANCH 226 227
ATOM    227  C   UNL     1     144.990 157.505 186.561  0.00  0.00    +0.037 C 
ATOM    228  H   UNL     1     144.190 156.770 186.695  0.00  0.00    +0.052 HD
ATOM    229  H   UNL     1     144.733 158.194 185.748  0.00  0.00    +0.052 HD
ATOM    230  H   UNL     1     145.090 158.080 187.488  0.00  0.00    +0.052 HD
ENDBRANCH 226 227
ENDBRANCH  16 226
TORSDOF 40
ENDMDL
MODEL 5
REMARK VINA RESULT:      -4.3      1.440      2.889
REMARK  Name = Swinholide A_conf1
REMARK  40 active torsions:
REMARK  status: ('A' for Active; 'I' for Inactive)
REMARK    1  A    between atoms: C_1  and  C_2
REMARK    2  A    between atoms: C_4  and  C_10
REMARK    3  A    between atoms: C_6  and  O_8
REMARK    4  A    between atoms: O_8  and  C_9
REMARK    5  A    between atoms: C_10  and  C_11
REMARK    6  A    between atoms: C_11  and  C_12
REMARK    7  A    between atoms: C_12  and  C_13
REMARK    8  A    between atoms: C_12  and  C_98
REMARK    9  A    between atoms: C_13  and  O_14
REMARK   10  A    between atoms: C_13  and  C_15
REMARK   11  A    between atoms: C_15  and  C_16
REMARK   12  A    between atoms: C_15  and  C_97
REMARK   13  A    between atoms: C_22  and  C_96
REMARK   14  A    between atoms: C_25  and  O_95
REMARK   15  A    between atoms: C_31  and  O_90
REMARK   16  A    between atoms: C_32  and  C_89
REMARK   17  A    between atoms: C_33  and  O_88
REMARK   18  A    between atoms: C_35  and  O_87
REMARK   19  A    between atoms: C_36  and  C_86
REMARK   20  A    between atoms: C_37  and  C_69
REMARK   21  A    between atoms: C_43  and  C_68
REMARK   22  A    between atoms: C_46  and  O_67
REMARK   23  A    between atoms: C_52  and  O_62
REMARK   24  A    between atoms: C_53  and  C_61
REMARK   25  A    between atoms: C_54  and  O_60
REMARK   26  A    between atoms: C_56  and  O_59
REMARK   27  A    between atoms: C_57  and  C_58
REMARK   28  A    between atoms: O_62  and  C_63
REMARK   29  A    between atoms: C_69  and  C_70
REMARK   30  A    between atoms: C_69  and  C_85
REMARK   31  A    between atoms: C_70  and  O_71
REMARK   32  A    between atoms: C_70  and  C_72
REMARK   33  A    between atoms: C_72  and  C_73
REMARK   34  A    between atoms: C_72  and  C_84
REMARK   35  A    between atoms: C_73  and  C_74
REMARK   36  A    between atoms: C_74  and  C_75
REMARK   37  A    between atoms: C_77  and  C_83
REMARK   38  A    between atoms: C_79  and  O_81
REMARK   39  A    between atoms: O_81  and  C_82
REMARK   40  A    between atoms: O_90  and  C_91
REMARK                            x       y       z     vdW  Elec       q    Type
REMARK                         _______ _______ _______ _____ _____    ______ ____
ROOT
ATOM      1  C   UNL     1     149.279 167.739 191.917  0.00  0.00    +0.113 C 
ATOM      2  O   UNL     1     150.507 167.555 191.161  0.00  0.00    -0.458 OA
ATOM      3  C   UNL     1     151.630 167.322 191.894  0.00  0.00    +0.332 C 
ATOM      4  O   UNL     1     151.702 167.299 193.118  0.00  0.00    -0.246 OA
ATOM      5  C   UNL     1     152.822 167.093 191.063  0.00  0.00    +0.023 C 
ATOM      6  C   UNL     1     152.793 166.650 189.798  0.00  0.00    -0.052 C 
ATOM      7  C   UNL     1     153.974 166.292 189.017  0.00  0.00    -0.054 C 
ATOM      8  C   UNL     1     154.980 165.571 189.554  0.00  0.00    -0.079 C 
ATOM      9  C   UNL     1     156.130 164.955 188.797  0.00  0.00    -0.008 C 
ATOM     10  C   UNL     1     156.658 163.636 189.394  0.00  0.00    +0.061 C 
ATOM     11  C   UNL     1     155.638 162.569 189.817  0.00  0.00    +0.003 C 
ATOM     12  C   UNL     1     154.831 161.845 188.723  0.00  0.00    +0.080 C 
ATOM     13  O   UNL     1     154.325 160.660 189.386  0.00  0.00    -0.369 OA
ATOM     14  C   UNL     1     153.121 160.084 188.855  0.00  0.00    +0.065 C 
ATOM     15  C   UNL     1     153.372 159.454 187.468  0.00  0.00    +0.000 C 
ATOM     16  C   UNL     1     152.160 158.675 186.912  0.00  0.00    +0.066 C 
ATOM     17  C   UNL     1     152.479 158.138 185.483  0.00  0.00    +0.009 C 
ATOM     18  C   UNL     1     151.467 158.630 184.416  0.00  0.00    +0.063 C 
ATOM     19  C   UNL     1     151.523 160.155 184.180  0.00  0.00    -0.000 C 
ATOM     20  C   UNL     1     150.671 160.571 182.962  0.00  0.00    +0.064 C 
ATOM     21  C   UNL     1     150.815 162.063 182.529  0.00  0.00    +0.020 C 
ATOM     22  C   UNL     1     150.464 163.086 183.655  0.00  0.00    +0.113 C 
ATOM     23  O   UNL     1     149.081 162.849 184.030  0.00  0.00    -0.458 OA
ATOM     24  C   UNL     1     148.817 162.782 185.362  0.00  0.00    +0.332 C 
ATOM     25  O   UNL     1     149.604 163.013 186.264  0.00  0.00    -0.246 OA
ATOM     26  C   UNL     1     147.395 162.417 185.554  0.00  0.00    +0.023 C 
ATOM     27  C   UNL     1     146.923 162.258 186.799  0.00  0.00    -0.052 C 
ATOM     28  C   UNL     1     145.549 161.931 187.160  0.00  0.00    -0.054 C 
ATOM     29  C   UNL     1     144.508 162.647 186.686  0.00  0.00    -0.079 C 
ATOM     30  C   UNL     1     143.050 162.459 187.002  0.00  0.00    -0.008 C 
ATOM     31  C   UNL     1     142.451 163.510 187.967  0.00  0.00    +0.061 C 
ATOM     32  C   UNL     1     142.113 164.844 187.269  0.00  0.00    +0.003 C 
ATOM     33  C   UNL     1     141.274 165.800 188.147  0.00  0.00    +0.080 C 
ATOM     34  O   UNL     1     142.093 166.511 189.091  0.00  0.00    -0.369 OA
ATOM     35  C   UNL     1     142.497 167.849 188.724  0.00  0.00    +0.065 C 
ATOM     36  C   UNL     1     143.266 168.395 189.941  0.00  0.00    +0.000 C 
ATOM     37  C   UNL     1     143.917 169.796 189.860  0.00  0.00    +0.066 C 
ATOM     38  C   UNL     1     145.023 169.870 188.762  0.00  0.00    +0.009 C 
ATOM     39  C   UNL     1     146.351 170.515 189.249  0.00  0.00    +0.063 C 
ATOM     40  C   UNL     1     146.868 169.965 190.588  0.00  0.00    -0.000 C 
ATOM     41  C   UNL     1     148.406 169.925 190.662  0.00  0.00    +0.064 C 
ATOM     42  C   UNL     1     148.882 169.256 191.986  0.00  0.00    +0.020 C 
ATOM     43  C   UNL     1     141.282 168.717 188.369  0.00  0.00    -0.008 C 
ATOM     44  C   UNL     1     140.396 168.028 187.385  0.00  0.00    -0.083 C 
ATOM     45  C   UNL     1     140.405 166.696 187.298  0.00  0.00    -0.059 C 
ATOM     46  C   UNL     1     152.000 161.136 188.913  0.00  0.00    -0.008 C 
ATOM     47  C   UNL     1     152.428 162.396 188.235  0.00  0.00    -0.083 C 
ATOM     48  C   UNL     1     153.730 162.692 188.130  0.00  0.00    -0.059 C 
ATOM     49  H   UNL     1     149.473 167.462 192.965  0.00  0.00    +0.074 HD
ATOM     50  H   UNL     1     153.757 167.228 191.596  0.00  0.00    +0.069 HD
ATOM     51  H   UNL     1     151.848 166.486 189.286  0.00  0.00    +0.062 HD
ATOM     52  H   UNL     1     154.949 165.329 190.615  0.00  0.00    +0.058 HD
ATOM     53  H   UNL     1     155.884 164.792 187.742  0.00  0.00    +0.033 HD
ATOM     54  H   UNL     1     156.960 165.676 188.790  0.00  0.00    +0.033 HD
ATOM     55  H   UNL     1     157.228 163.904 190.292  0.00  0.00    +0.060 HD
ATOM     56  H   UNL     1     154.950 162.973 190.571  0.00  0.00    +0.032 HD
ATOM     57  H   UNL     1     156.206 161.794 190.354  0.00  0.00    +0.032 HD
ATOM     58  H   UNL     1     155.498 161.504 187.924  0.00  0.00    +0.064 HD
ATOM     59  H   UNL     1     152.854 159.279 189.551  0.00  0.00    +0.060 HD
ATOM     60  H   UNL     1     154.227 158.770 187.567  0.00  0.00    +0.032 HD
ATOM     61  H   UNL     1     153.680 160.220 186.747  0.00  0.00    +0.032 HD
ATOM     62  H   UNL     1     151.304 159.355 186.876  0.00  0.00    +0.060 HD
ATOM     63  H   UNL     1     153.458 158.530 185.168  0.00  0.00    +0.035 HD
ATOM     64  H   UNL     1     151.693 158.128 183.467  0.00  0.00    +0.060 HD
ATOM     65  H   UNL     1     151.132 160.664 185.069  0.00  0.00    +0.032 HD
ATOM     66  H   UNL     1     152.565 160.462 184.033  0.00  0.00    +0.032 HD
ATOM     67  H   UNL     1     150.958 159.946 182.106  0.00  0.00    +0.060 HD
ATOM     68  H   UNL     1     150.087 162.200 181.719  0.00  0.00    +0.036 HD
ATOM     69  H   UNL     1     151.133 162.871 184.495  0.00  0.00    +0.074 HD
ATOM     70  H   UNL     1     146.782 162.286 184.673  0.00  0.00    +0.069 HD
ATOM     71  H   UNL     1     147.602 162.375 187.645  0.00  0.00    +0.062 HD
ATOM     72  H   UNL     1     144.704 163.454 185.983  0.00  0.00    +0.058 HD
ATOM     73  H   UNL     1     142.487 162.467 186.057  0.00  0.00    +0.033 HD
ATOM     74  H   UNL     1     142.868 161.455 187.401  0.00  0.00    +0.033 HD
ATOM     75  H   UNL     1     143.124 163.694 188.812  0.00  0.00    +0.060 HD
ATOM     76  H   UNL     1     141.543 164.606 186.362  0.00  0.00    +0.032 HD
ATOM     77  H   UNL     1     143.042 165.336 186.956  0.00  0.00    +0.032 HD
ATOM     78  H   UNL     1     140.577 165.215 188.759  0.00  0.00    +0.064 HD
ATOM     79  H   UNL     1     143.170 167.765 187.864  0.00  0.00    +0.060 HD
ATOM     80  H   UNL     1     144.054 167.670 190.193  0.00  0.00    +0.032 HD
ATOM     81  H   UNL     1     142.589 168.367 190.804  0.00  0.00    +0.032 HD
ATOM     82  H   UNL     1     144.384 169.954 190.837  0.00  0.00    +0.060 HD
ATOM     83  H   UNL     1     145.296 168.842 188.499  0.00  0.00    +0.035 HD
ATOM     84  H   UNL     1     147.098 170.322 188.468  0.00  0.00    +0.060 HD
ATOM     85  H   UNL     1     146.502 170.608 191.401  0.00  0.00    +0.032 HD
ATOM     86  H   UNL     1     146.463 168.972 190.761  0.00  0.00    +0.032 HD
ATOM     87  H   UNL     1     148.826 169.394 189.803  0.00  0.00    +0.060 HD
ATOM     88  H   UNL     1     148.057 169.329 192.710  0.00  0.00    +0.036 HD
ATOM     89  H   UNL     1     141.603 169.672 187.940  0.00  0.00    +0.033 HD
ATOM     90  H   UNL     1     140.683 168.935 189.261  0.00  0.00    +0.033 HD
ATOM     91  H   UNL     1     139.720 168.625 186.781  0.00  0.00    +0.057 HD
ATOM     92  H   UNL     1     139.726 166.206 186.602  0.00  0.00    +0.059 HD
ATOM     93  H   UNL     1     151.778 161.383 189.959  0.00  0.00    +0.033 HD
ATOM     94  H   UNL     1     151.076 160.762 188.468  0.00  0.00    +0.033 HD
ATOM     95  H   UNL     1     151.671 163.053 187.817  0.00  0.00    +0.057 HD
ATOM     96  H   UNL     1     154.016 163.580 187.579  0.00  0.00    +0.059 HD
ENDROOT
BRANCH  28  97
ATOM     97  C   UNL     1     145.441 160.816 188.168  0.00  0.00    -0.040 C 
ATOM     98  H   UNL     1     145.449 161.211 189.191  0.00  0.00    +0.028 HD
ATOM     99  H   UNL     1     146.289 160.130 188.061  0.00  0.00    +0.028 HD
ATOM    100  H   UNL     1     144.524 160.230 188.070  0.00  0.00    +0.028 HD
ENDBRANCH  28  97
BRANCH  21 101
ATOM    101  C   UNL     1     152.214 162.300 181.946  0.00  0.00    -0.057 C 
ATOM    102  H   UNL     1     152.591 161.413 181.427  0.00  0.00    +0.023 HD
ATOM    103  H   UNL     1     152.931 162.561 182.731  0.00  0.00    +0.023 HD
ATOM    104  H   UNL     1     152.209 163.134 181.236  0.00  0.00    +0.023 HD
ENDBRANCH  21 101
BRANCH  42 105
ATOM    105  C   UNL     1     150.046 170.050 192.626  0.00  0.00    -0.057 C 
ATOM    106  H   UNL     1     150.842 170.238 191.898  0.00  0.00    +0.023 HD
ATOM    107  H   UNL     1     149.707 171.012 193.026  0.00  0.00    +0.023 HD
ATOM    108  H   UNL     1     150.505 169.484 193.445  0.00  0.00    +0.023 HD
ENDBRANCH  42 105
BRANCH  17 109
ATOM    109  C   UNL     1     152.599 156.608 185.425  0.00  0.00    -0.058 C 
ATOM    110  H   UNL     1     152.274 156.133 186.355  0.00  0.00    +0.023 HD
ATOM    111  H   UNL     1     151.978 156.206 184.616  0.00  0.00    +0.023 HD
ATOM    112  H   UNL     1     153.632 156.305 185.222  0.00  0.00    +0.023 HD
ENDBRANCH  17 109
BRANCH  38 113
ATOM    113  C   UNL     1     144.554 170.564 187.472  0.00  0.00    -0.058 C 
ATOM    114  H   UNL     1     144.124 169.858 186.753  0.00  0.00    +0.023 HD
ATOM    115  H   UNL     1     145.379 171.085 186.978  0.00  0.00    +0.023 HD
ATOM    116  H   UNL     1     143.781 171.309 187.693  0.00  0.00    +0.023 HD
ENDBRANCH  38 113
BRANCH   7 117
ATOM    117  C   UNL     1     153.900 166.701 187.573  0.00  0.00    -0.040 C 
ATOM    118  H   UNL     1     154.092 167.775 187.464  0.00  0.00    +0.028 HD
ATOM    119  H   UNL     1     152.911 166.481 187.168  0.00  0.00    +0.028 HD
ATOM    120  H   UNL     1     154.643 166.191 186.954  0.00  0.00    +0.028 HD
ENDBRANCH   7 117
BRANCH   1 121
ATOM    121  C   UNL     1     148.232 166.657 191.459  0.00  0.00    +0.020 C 
ATOM    122  H   UNL     1     147.708 167.137 190.617  0.00  0.00    +0.036 HD
BRANCH 121 123
ATOM    123  C   UNL     1     148.990 165.441 190.894  0.00  0.00    -0.057 C 
ATOM    124  H   UNL     1     149.031 165.474 189.803  0.00  0.00    +0.023 HD
ATOM    125  H   UNL     1     148.532 164.494 191.185  0.00  0.00    +0.023 HD
ATOM    126  H   UNL     1     150.035 165.421 191.217  0.00  0.00    +0.023 HD
ENDBRANCH 121 123
BRANCH 121 127
ATOM    127  C   UNL     1     147.096 166.283 192.472  0.00  0.00    +0.064 C 
ATOM    128  H   UNL     1     147.428 165.430 193.057  0.00  0.00    +0.060 HD
BRANCH 127 129
ATOM    129  C   UNL     1     145.668 165.944 191.926  0.00  0.00    -0.017 C 
ATOM    130  H   UNL     1     145.573 164.851 191.892  0.00  0.00    +0.032 HD
BRANCH 129 131
ATOM    131  C   UNL     1     144.487 166.454 192.750  0.00  0.00    -0.060 C 
ATOM    132  H   UNL     1     143.549 166.012 192.404  0.00  0.00    +0.023 HD
ATOM    133  H   UNL     1     144.622 166.262 193.817  0.00  0.00    +0.023 HD
ATOM    134  H   UNL     1     144.368 167.539 192.627  0.00  0.00    +0.023 HD
ENDBRANCH 129 131
BRANCH 129 135
ATOM    135  C   UNL     1     145.489 166.470 190.471  0.00  0.00    -0.046 C 
ATOM    136  H   UNL     1     146.202 167.281 190.282  0.00  0.00    +0.027 HD
ATOM    137  H   UNL     1     144.500 166.927 190.380  0.00  0.00    +0.027 HD
BRANCH 135 138
ATOM    138  C   UNL     1     145.609 165.397 189.389  0.00  0.00    -0.026 C 
ATOM    139  H   UNL     1     144.611 165.048 189.114  0.00  0.00    +0.029 HD
ATOM    140  H   UNL     1     146.130 164.524 189.791  0.00  0.00    +0.029 HD
BRANCH 138 143
ATOM    141  C   UNL     1     147.941 167.525 187.397  0.00  0.00    +0.059 C 
ATOM    142  O   UNL     1     147.061 167.087 188.443  0.00  0.00    -0.373 OA
ATOM    143  C   UNL     1     146.344 165.889 188.131  0.00  0.00    +0.061 C 
ATOM    144  C   UNL     1     145.376 166.163 186.979  0.00  0.00    -0.000 C 
ATOM    145  C   UNL     1     145.917 167.192 185.979  0.00  0.00    +0.063 C 
ATOM    146  C   UNL     1     147.439 167.174 185.996  0.00  0.00    -0.000 C 
ATOM    147  H   UNL     1     147.975 168.618 187.484  0.00  0.00    +0.059 HD
ATOM    148  H   UNL     1     147.075 165.132 187.827  0.00  0.00    +0.060 HD
ATOM    149  H   UNL     1     145.137 165.219 186.481  0.00  0.00    +0.032 HD
ATOM    150  H   UNL     1     144.422 166.550 187.358  0.00  0.00    +0.032 HD
ATOM    151  H   UNL     1     145.551 168.186 186.267  0.00  0.00    +0.060 HD
ATOM    152  H   UNL     1     147.786 166.180 185.682  0.00  0.00    +0.032 HD
ATOM    153  H   UNL     1     147.867 167.871 185.266  0.00  0.00    +0.032 HD
BRANCH 141 154
ATOM    154  C   UNL     1     149.350 166.992 187.639  0.00  0.00    -0.039 C 
ATOM    155  H   UNL     1     149.992 167.156 186.769  0.00  0.00    +0.025 HD
ATOM    156  H   UNL     1     149.808 167.479 188.506  0.00  0.00    +0.025 HD
ATOM    157  H   UNL     1     149.328 165.913 187.818  0.00  0.00    +0.025 HD
ENDBRANCH 141 154
BRANCH 145 158
ATOM    158  O   UNL     1     145.392 166.851 184.692  0.00  0.00    -0.380 OA
BRANCH 158 159
ATOM    159  C   UNL     1     145.706 165.527 184.279  0.00  0.00    +0.037 C 
ATOM    160  H   UNL     1     146.592 165.571 183.639  0.00  0.00    +0.052 HD
ATOM    161  H   UNL     1     144.887 165.101 183.692  0.00  0.00    +0.052 HD
ATOM    162  H   UNL     1     145.929 164.886 185.137  0.00  0.00    +0.052 HD
ENDBRANCH 158 159
ENDBRANCH 145 158
ENDBRANCH 138 143
ENDBRANCH 135 138
ENDBRANCH 129 135
ENDBRANCH 127 129
BRANCH 127 163
ATOM    163  O   UNL     1     146.889 167.334 193.424  0.00  0.00    -0.391 OA
ATOM    164  H   UNL     1     147.186 167.035 194.300  0.00  0.00    +0.210 HD
ENDBRANCH 127 163
ENDBRANCH 121 127
ENDBRANCH   1 121
BRANCH  41 165
ATOM    165  O   UNL     1     148.883 171.272 190.585  0.00  0.00    -0.391 OA
ATOM    166  H   UNL     1     149.211 171.547 191.466  0.00  0.00    +0.210 HD
ENDBRANCH  41 165
BRANCH  39 167
ATOM    167  O   UNL     1     146.263 171.934 189.369  0.00  0.00    -0.391 OA
ATOM    168  H   UNL     1     146.528 172.328 188.515  0.00  0.00    +0.210 HD
ENDBRANCH  39 167
BRANCH  31 169
ATOM    169  O   UNL     1     141.240 162.948 188.492  0.00  0.00    -0.391 OA
ATOM    170  H   UNL     1     140.719 163.681 188.863  0.00  0.00    +0.210 HD
ENDBRANCH  31 169
BRANCH  22 171
ATOM    171  C   UNL     1     150.653 164.592 183.254  0.00  0.00    +0.020 C 
ATOM    172  H   UNL     1     151.176 164.596 182.292  0.00  0.00    +0.036 HD
BRANCH 171 173
ATOM    173  C   UNL     1     149.312 165.310 183.077  0.00  0.00    -0.057 C 
ATOM    174  H   UNL     1     149.253 166.192 183.716  0.00  0.00    +0.023 HD
ATOM    175  H   UNL     1     148.469 164.659 183.326  0.00  0.00    +0.023 HD
ATOM    176  H   UNL     1     149.159 165.631 182.044  0.00  0.00    +0.023 HD
ENDBRANCH 171 173
BRANCH 171 177
ATOM    177  C   UNL     1     151.570 165.329 184.265  0.00  0.00    +0.064 C 
ATOM    178  H   UNL     1     151.217 166.360 184.375  0.00  0.00    +0.060 HD
BRANCH 177 179
ATOM    179  O   UNL     1     151.426 164.684 185.531  0.00  0.00    -0.391 OA
ATOM    180  H   UNL     1     152.335 164.458 185.832  0.00  0.00    +0.210 HD
ENDBRANCH 177 179
BRANCH 177 181
ATOM    181  C   UNL     1     153.084 165.415 183.920  0.00  0.00    -0.017 C 
ATOM    182  H   UNL     1     153.473 166.351 184.342  0.00  0.00    +0.032 HD
BRANCH 181 183
ATOM    183  C   UNL     1     153.829 164.263 184.619  0.00  0.00    -0.060 C 
ATOM    184  H   UNL     1     153.745 164.334 185.709  0.00  0.00    +0.023 HD
ATOM    185  H   UNL     1     153.442 163.287 184.312  0.00  0.00    +0.023 HD
ATOM    186  H   UNL     1     154.890 164.274 184.368  0.00  0.00    +0.023 HD
ENDBRANCH 181 183
BRANCH 181 187
ATOM    187  C   UNL     1     153.388 165.397 182.404  0.00  0.00    -0.046 C 
ATOM    188  H   UNL     1     152.553 164.947 181.858  0.00  0.00    +0.027 HD
ATOM    189  H   UNL     1     154.266 164.768 182.214  0.00  0.00    +0.027 HD
BRANCH 187 190
ATOM    190  C   UNL     1     153.616 166.807 181.832  0.00  0.00    -0.026 C 
ATOM    191  H   UNL     1     153.167 167.547 182.500  0.00  0.00    +0.029 HD
ATOM    192  H   UNL     1     153.093 166.894 180.873  0.00  0.00    +0.029 HD
BRANCH 190 193
ATOM    193  C   UNL     1     155.105 167.138 181.624  0.00  0.00    +0.061 C 
ATOM    194  O   UNL     1     155.886 166.920 182.803  0.00  0.00    -0.373 OA
ATOM    195  C   UNL     1     155.640 167.841 183.868  0.00  0.00    +0.059 C 
ATOM    196  C   UNL     1     155.904 169.278 183.422  0.00  0.00    -0.000 C 
ATOM    197  C   UNL     1     155.090 169.619 182.174  0.00  0.00    +0.063 C 
ATOM    198  C   UNL     1     155.327 168.557 181.099  0.00  0.00    -0.000 C 
ATOM    199  H   UNL     1     155.492 166.442 180.871  0.00  0.00    +0.060 HD
ATOM    200  H   UNL     1     154.605 167.732 184.210  0.00  0.00    +0.059 HD
ATOM    201  H   UNL     1     156.970 169.417 183.197  0.00  0.00    +0.032 HD
ATOM    202  H   UNL     1     155.670 169.971 184.238  0.00  0.00    +0.032 HD
ATOM    203  H   UNL     1     154.021 169.653 182.416  0.00  0.00    +0.060 HD
ATOM    204  H   UNL     1     156.365 168.649 180.748  0.00  0.00    +0.032 HD
ATOM    205  H   UNL     1     154.699 168.760 180.222  0.00  0.00    +0.032 HD
BRANCH 195 206
ATOM    206  C   UNL     1     156.557 167.455 185.024  0.00  0.00    -0.039 C 
ATOM    207  H   UNL     1     156.284 166.468 185.413  0.00  0.00    +0.025 HD
ATOM    208  H   UNL     1     156.492 168.182 185.839  0.00  0.00    +0.025 HD
ATOM    209  H   UNL     1     157.598 167.386 184.692  0.00  0.00    +0.025 HD
ENDBRANCH 195 206
BRANCH 197 210
ATOM    210  O   UNL     1     155.482 170.881 181.618  0.00  0.00    -0.380 OA
BRANCH 210 211
ATOM    211  C   UNL     1     154.505 171.903 181.771  0.00  0.00    +0.037 C 
ATOM    212  H   UNL     1     154.226 171.948 182.829  0.00  0.00    +0.052 HD
ATOM    213  H   UNL     1     153.607 171.676 181.192  0.00  0.00    +0.052 HD
ATOM    214  H   UNL     1     154.912 172.875 181.477  0.00  0.00    +0.052 HD
ENDBRANCH 210 211
ENDBRANCH 197 210
ENDBRANCH 190 193
ENDBRANCH 187 190
ENDBRANCH 181 187
ENDBRANCH 177 181
ENDBRANCH 171 177
ENDBRANCH  22 171
BRANCH  20 215
ATOM    215  O   UNL     1     149.304 160.237 183.242  0.00  0.00    -0.391 OA
ATOM    216  H   UNL     1     148.756 160.997 182.974  0.00  0.00    +0.210 HD
ENDBRANCH  20 215
BRANCH  18 217
ATOM    217  O   UNL     1     150.144 158.238 184.788  0.00  0.00    -0.391 OA
ATOM    218  H   UNL     1     149.711 159.036 185.155  0.00  0.00    +0.210 HD
ENDBRANCH  18 217
BRANCH  10 219
ATOM    219  O   UNL     1     157.598 163.070 188.476  0.00  0.00    -0.391 OA
ATOM    220  H   UNL     1     158.451 163.519 188.620  0.00  0.00    +0.210 HD
ENDBRANCH  10 219
BRANCH  37 221
ATOM    221  O   UNL     1     142.981 170.859 189.681  0.00  0.00    -0.379 OA
BRANCH 221 222
ATOM    222  C   UNL     1     142.942 171.794 190.752  0.00  0.00    +0.037 C 
ATOM    223  H   UNL     1     142.935 172.799 190.321  0.00  0.00    +0.052 HD
ATOM    224  H   UNL     1     142.034 171.674 191.347  0.00  0.00    +0.052 HD
ATOM    225  H   UNL     1     143.827 171.694 191.388  0.00  0.00    +0.052 HD
ENDBRANCH 221 222
ENDBRANCH  37 221
BRANCH  16 226
ATOM    226  O   UNL     1     151.897 157.610 187.840  0.00  0.00    -0.379 OA
BRANCH 226 227
ATOM    227  C   UNL     1     150.544 157.581 188.276  0.00  0.00    +0.037 C 
ATOM    228  H   UNL     1     149.851 157.809 187.460  0.00  0.00    +0.052 HD
ATOM    229  H   UNL     1     150.407 158.294 189.096  0.00  0.00    +0.052 HD
ATOM    230  H   UNL     1     150.322 156.575 188.647  0.00  0.00    +0.052 HD
ENDBRANCH 226 227
ENDBRANCH  16 226
TORSDOF 40
ENDMDL
MODEL 6
REMARK VINA RESULT:      -4.2      2.413      4.234
REMARK  Name = Swinholide A_conf1
REMARK  40 active torsions:
REMARK  status: ('A' for Active; 'I' for Inactive)
REMARK    1  A    between atoms: C_1  and  C_2
REMARK    2  A    between atoms: C_4  and  C_10
REMARK    3  A    between atoms: C_6  and  O_8
REMARK    4  A    between atoms: O_8  and  C_9
REMARK    5  A    between atoms: C_10  and  C_11
REMARK    6  A    between atoms: C_11  and  C_12
REMARK    7  A    between atoms: C_12  and  C_13
REMARK    8  A    between atoms: C_12  and  C_98
REMARK    9  A    between atoms: C_13  and  O_14
REMARK   10  A    between atoms: C_13  and  C_15
REMARK   11  A    between atoms: C_15  and  C_16
REMARK   12  A    between atoms: C_15  and  C_97
REMARK   13  A    between atoms: C_22  and  C_96
REMARK   14  A    between atoms: C_25  and  O_95
REMARK   15  A    between atoms: C_31  and  O_90
REMARK   16  A    between atoms: C_32  and  C_89
REMARK   17  A    between atoms: C_33  and  O_88
REMARK   18  A    between atoms: C_35  and  O_87
REMARK   19  A    between atoms: C_36  and  C_86
REMARK   20  A    between atoms: C_37  and  C_69
REMARK   21  A    between atoms: C_43  and  C_68
REMARK   22  A    between atoms: C_46  and  O_67
REMARK   23  A    between atoms: C_52  and  O_62
REMARK   24  A    between atoms: C_53  and  C_61
REMARK   25  A    between atoms: C_54  and  O_60
REMARK   26  A    between atoms: C_56  and  O_59
REMARK   27  A    between atoms: C_57  and  C_58
REMARK   28  A    between atoms: O_62  and  C_63
REMARK   29  A    between atoms: C_69  and  C_70
REMARK   30  A    between atoms: C_69  and  C_85
REMARK   31  A    between atoms: C_70  and  O_71
REMARK   32  A    between atoms: C_70  and  C_72
REMARK   33  A    between atoms: C_72  and  C_73
REMARK   34  A    between atoms: C_72  and  C_84
REMARK   35  A    between atoms: C_73  and  C_74
REMARK   36  A    between atoms: C_74  and  C_75
REMARK   37  A    between atoms: C_77  and  C_83
REMARK   38  A    between atoms: C_79  and  O_81
REMARK   39  A    between atoms: O_81  and  C_82
REMARK   40  A    between atoms: O_90  and  C_91
REMARK                            x       y       z     vdW  Elec       q    Type
REMARK                         _______ _______ _______ _____ _____    ______ ____
ROOT
ATOM      1  C   UNL     1     149.066 166.805 191.251  0.00  0.00    +0.113 C 
ATOM      2  O   UNL     1     150.378 166.884 190.630  0.00  0.00    -0.458 OA
ATOM      3  C   UNL     1     151.443 166.791 191.473  0.00  0.00    +0.332 C 
ATOM      4  O   UNL     1     151.393 166.694 192.694  0.00  0.00    -0.246 OA
ATOM      5  C   UNL     1     152.736 166.825 190.771  0.00  0.00    +0.023 C 
ATOM      6  C   UNL     1     152.915 166.474 189.489  0.00  0.00    -0.052 C 
ATOM      7  C   UNL     1     154.213 166.375 188.830  0.00  0.00    -0.054 C 
ATOM      8  C   UNL     1     155.269 165.796 189.438  0.00  0.00    -0.079 C 
ATOM      9  C   UNL     1     156.581 165.437 188.786  0.00  0.00    -0.008 C 
ATOM     10  C   UNL     1     157.266 164.186 189.369  0.00  0.00    +0.061 C 
ATOM     11  C   UNL     1     156.411 162.936 189.618  0.00  0.00    +0.003 C 
ATOM     12  C   UNL     1     155.858 162.166 188.404  0.00  0.00    +0.080 C 
ATOM     13  O   UNL     1     155.502 160.869 188.943  0.00  0.00    -0.369 OA
ATOM     14  C   UNL     1     154.477 160.138 188.249  0.00  0.00    +0.065 C 
ATOM     15  C   UNL     1     154.975 159.658 186.869  0.00  0.00    +0.000 C 
ATOM     16  C   UNL     1     153.981 158.729 186.140  0.00  0.00    +0.066 C 
ATOM     17  C   UNL     1     154.534 158.355 184.730  0.00  0.00    +0.009 C 
ATOM     18  C   UNL     1     153.566 158.744 183.582  0.00  0.00    +0.063 C 
ATOM     19  C   UNL     1     153.379 160.270 183.434  0.00  0.00    -0.000 C 
ATOM     20  C   UNL     1     152.598 160.622 182.151  0.00  0.00    +0.064 C 
ATOM     21  C   UNL     1     152.523 162.144 181.814  0.00  0.00    +0.020 C 
ATOM     22  C   UNL     1     151.885 163.011 182.945  0.00  0.00    +0.113 C 
ATOM     23  O   UNL     1     150.533 162.521 183.148  0.00  0.00    -0.458 OA
ATOM     24  C   UNL     1     150.150 162.316 184.437  0.00  0.00    +0.332 C 
ATOM     25  O   UNL     1     150.788 162.612 185.433  0.00  0.00    -0.246 OA
ATOM     26  C   UNL     1     148.802 161.705 184.447  0.00  0.00    +0.023 C 
ATOM     27  C   UNL     1     148.239 161.382 185.621  0.00  0.00    -0.052 C 
ATOM     28  C   UNL     1     146.914 160.805 185.806  0.00  0.00    -0.054 C 
ATOM     29  C   UNL     1     145.819 161.368 185.255  0.00  0.00    -0.079 C 
ATOM     30  C   UNL     1     144.391 160.916 185.394  0.00  0.00    -0.008 C 
ATOM     31  C   UNL     1     143.522 161.781 186.338  0.00  0.00    +0.061 C 
ATOM     32  C   UNL     1     143.030 163.086 185.678  0.00  0.00    +0.003 C 
ATOM     33  C   UNL     1     141.952 163.823 186.503  0.00  0.00    +0.080 C 
ATOM     34  O   UNL     1     142.533 164.593 187.569  0.00  0.00    -0.369 OA
ATOM     35  C   UNL     1     142.733 166.002 187.320  0.00  0.00    +0.065 C 
ATOM     36  C   UNL     1     143.265 166.582 188.643  0.00  0.00    +0.000 C 
ATOM     37  C   UNL     1     143.668 168.075 188.709  0.00  0.00    +0.066 C 
ATOM     38  C   UNL     1     144.851 168.411 187.749  0.00  0.00    +0.009 C 
ATOM     39  C   UNL     1     145.989 169.233 188.416  0.00  0.00    +0.063 C 
ATOM     40  C   UNL     1     146.453 168.684 189.775  0.00  0.00    -0.000 C 
ATOM     41  C   UNL     1     147.959 168.897 190.020  0.00  0.00    +0.064 C 
ATOM     42  C   UNL     1     148.406 168.226 191.353  0.00  0.00    +0.020 C 
ATOM     43  C   UNL     1     141.428 166.677 186.876  0.00  0.00    -0.008 C 
ATOM     44  C   UNL     1     140.781 165.921 185.764  0.00  0.00    -0.083 C 
ATOM     45  C   UNL     1     141.031 164.619 185.608  0.00  0.00    -0.059 C 
ATOM     46  C   UNL     1     153.190 160.981 188.235  0.00  0.00    -0.008 C 
ATOM     47  C   UNL     1     153.459 162.339 187.676  0.00  0.00    -0.083 C 
ATOM     48  C   UNL     1     154.694 162.856 187.734  0.00  0.00    -0.059 C 
ATOM     49  H   UNL     1     149.197 166.491 192.298  0.00  0.00    +0.074 HD
ATOM     50  H   UNL     1     153.574 167.077 191.413  0.00  0.00    +0.069 HD
ATOM     51  H   UNL     1     152.070 166.190 188.865  0.00  0.00    +0.062 HD
ATOM     52  H   UNL     1     155.172 165.478 190.475  0.00  0.00    +0.058 HD
ATOM     53  H   UNL     1     156.476 165.309 187.702  0.00  0.00    +0.033 HD
ATOM     54  H   UNL     1     157.268 166.285 188.911  0.00  0.00    +0.033 HD
ATOM     55  H   UNL     1     157.686 164.482 190.339  0.00  0.00    +0.060 HD
ATOM     56  H   UNL     1     155.589 163.164 190.309  0.00  0.00    +0.032 HD
ATOM     57  H   UNL     1     157.046 162.231 190.175  0.00  0.00    +0.032 HD
ATOM     58  H   UNL     1     156.653 161.998 187.668  0.00  0.00    +0.064 HD
ATOM     59  H   UNL     1     154.285 159.253 188.868  0.00  0.00    +0.060 HD
ATOM     60  H   UNL     1     155.922 159.123 187.029  0.00  0.00    +0.032 HD
ATOM     61  H   UNL     1     155.217 160.515 186.228  0.00  0.00    +0.032 HD
ATOM     62  H   UNL     1     153.028 159.257 186.043  0.00  0.00    +0.060 HD
ATOM     63  H   UNL     1     155.456 158.927 184.549  0.00  0.00    +0.035 HD
ATOM     64  H   UNL     1     153.972 158.356 182.640  0.00  0.00    +0.060 HD
ATOM     65  H   UNL     1     152.817 160.642 184.298  0.00  0.00    +0.032 HD
ATOM     66  H   UNL     1     154.361 160.757 183.422  0.00  0.00    +0.032 HD
ATOM     67  H   UNL     1     153.075 160.117 181.301  0.00  0.00    +0.060 HD
ATOM     68  H   UNL     1     151.870 162.215 180.935  0.00  0.00    +0.036 HD
ATOM     69  H   UNL     1     152.492 162.853 183.843  0.00  0.00    +0.074 HD
ATOM     70  H   UNL     1     148.314 161.536 183.497  0.00  0.00    +0.069 HD
ATOM     71  H   UNL     1     148.797 161.552 186.543  0.00  0.00    +0.062 HD
ATOM     72  H   UNL     1     145.942 162.244 184.622  0.00  0.00    +0.058 HD
ATOM     73  H   UNL     1     143.935 160.897 184.394  0.00  0.00    +0.033 HD
ATOM     74  H   UNL     1     144.347 159.870 185.718  0.00  0.00    +0.033 HD
ATOM     75  H   UNL     1     144.062 162.015 187.263  0.00  0.00    +0.060 HD
ATOM     76  H   UNL     1     142.606 162.820 184.700  0.00  0.00    +0.032 HD
ATOM     77  H   UNL     1     143.886 163.747 185.498  0.00  0.00    +0.032 HD
ATOM     78  H   UNL     1     141.308 163.088 187.001  0.00  0.00    +0.064 HD
ATOM     79  H   UNL     1     143.494 166.093 186.539  0.00  0.00    +0.060 HD
ATOM     80  H   UNL     1     144.138 165.983 188.945  0.00  0.00    +0.032 HD
ATOM     81  H   UNL     1     142.519 166.380 189.422  0.00  0.00    +0.032 HD
ATOM     82  H   UNL     1     143.997 168.239 189.740  0.00  0.00    +0.060 HD
ATOM     83  H   UNL     1     145.324 167.464 187.466  0.00  0.00    +0.035 HD
ATOM     84  H   UNL     1     146.834 169.224 187.716  0.00  0.00    +0.060 HD
ATOM     85  H   UNL     1     145.900 169.198 190.573  0.00  0.00    +0.032 HD
ATOM     86  H   UNL     1     146.212 167.627 189.849  0.00  0.00    +0.032 HD
ATOM     87  H   UNL     1     148.551 168.506 189.188  0.00  0.00    +0.060 HD
ATOM     88  H   UNL     1     147.511 168.108 191.981  0.00  0.00    +0.036 HD
ATOM     89  H   UNL     1     141.620 167.700 186.536  0.00  0.00    +0.033 HD
ATOM     90  H   UNL     1     140.712 166.728 187.705  0.00  0.00    +0.033 HD
ATOM     91  H   UNL     1     140.077 166.437 185.119  0.00  0.00    +0.057 HD
ATOM     92  H   UNL     1     140.523 164.072 184.816  0.00  0.00    +0.059 HD
ATOM     93  H   UNL     1     152.822 161.112 189.260  0.00  0.00    +0.033 HD
ATOM     94  H   UNL     1     152.396 160.489 187.670  0.00  0.00    +0.033 HD
ATOM     95  H   UNL     1     152.646 162.888 187.210  0.00  0.00    +0.057 HD
ATOM     96  H   UNL     1     154.875 163.817 187.266  0.00  0.00    +0.059 HD
ENDROOT
BRANCH  28  97
ATOM     97  C   UNL     1     146.899 159.619 186.737  0.00  0.00    -0.040 C 
ATOM     98  H   UNL     1     145.972 159.045 186.625  0.00  0.00    +0.028 HD
ATOM     99  H   UNL     1     146.969 159.957 187.777  0.00  0.00    +0.028 HD
ATOM    100  H   UNL     1     147.719 158.918 186.558  0.00  0.00    +0.028 HD
ENDBRANCH  28  97
BRANCH  21 101
ATOM    101  C   UNL     1     153.911 162.653 181.407  0.00  0.00    -0.057 C 
ATOM    102  H   UNL     1     153.952 162.910 180.344  0.00  0.00    +0.023 HD
ATOM    103  H   UNL     1     154.682 161.900 181.602  0.00  0.00    +0.023 HD
ATOM    104  H   UNL     1     154.190 163.542 181.983  0.00  0.00    +0.023 HD
ENDBRANCH  21 101
BRANCH  42 105
ATOM    105  C   UNL     1     149.342 169.156 192.161  0.00  0.00    -0.057 C 
ATOM    106  H   UNL     1     150.391 168.988 191.895  0.00  0.00    +0.023 HD
ATOM    107  H   UNL     1     149.106 170.213 191.990  0.00  0.00    +0.023 HD
ATOM    108  H   UNL     1     149.261 168.959 193.236  0.00  0.00    +0.023 HD
ENDBRANCH  42 105
BRANCH  17 109
ATOM    109  C   UNL     1     154.924 156.875 184.606  0.00  0.00    -0.058 C 
ATOM    110  H   UNL     1     154.094 156.258 184.249  0.00  0.00    +0.023 HD
ATOM    111  H   UNL     1     155.752 156.755 183.898  0.00  0.00    +0.023 HD
ATOM    112  H   UNL     1     155.262 156.479 185.570  0.00  0.00    +0.023 HD
ENDBRANCH  17 109
BRANCH  38 113
ATOM    113  C   UNL     1     144.403 169.106 186.452  0.00  0.00    -0.058 C 
ATOM    114  H   UNL     1     145.247 169.335 185.791  0.00  0.00    +0.023 HD
ATOM    115  H   UNL     1     143.877 170.041 186.662  0.00  0.00    +0.023 HD
ATOM    116  H   UNL     1     143.718 168.463 185.886  0.00  0.00    +0.023 HD
ENDBRANCH  38 113
BRANCH   7 117
ATOM    117  C   UNL     1     154.219 166.867 187.410  0.00  0.00    -0.040 C 
ATOM    118  H   UNL     1     155.166 166.618 186.917  0.00  0.00    +0.028 HD
ATOM    119  H   UNL     1     154.087 167.950 187.385  0.00  0.00    +0.028 HD
ATOM    120  H   UNL     1     153.429 166.413 186.806  0.00  0.00    +0.028 HD
ENDBRANCH   7 117
BRANCH   1 121
ATOM    121  C   UNL     1     148.276 165.598 190.621  0.00  0.00    +0.020 C 
ATOM    122  H   UNL     1     148.894 164.720 190.870  0.00  0.00    +0.036 HD
BRANCH 121 123
ATOM    123  C   UNL     1     146.936 165.441 191.363  0.00  0.00    -0.057 C 
ATOM    124  H   UNL     1     146.397 164.555 191.020  0.00  0.00    +0.023 HD
ATOM    125  H   UNL     1     146.283 166.305 191.228  0.00  0.00    +0.023 HD
ATOM    126  H   UNL     1     147.075 165.290 192.438  0.00  0.00    +0.023 HD
ENDBRANCH 121 123
BRANCH 121 127
ATOM    127  C   UNL     1     148.147 165.563 189.060  0.00  0.00    +0.064 C 
ATOM    128  H   UNL     1     148.057 166.584 188.701  0.00  0.00    +0.060 HD
BRANCH 127 129
ATOM    129  C   UNL     1     146.986 164.738 188.409  0.00  0.00    -0.017 C 
ATOM    130  H   UNL     1     146.138 164.745 189.107  0.00  0.00    +0.032 HD
BRANCH 129 131
ATOM    131  C   UNL     1     146.450 165.255 187.075  0.00  0.00    -0.060 C 
ATOM    132  H   UNL     1     146.813 166.266 186.872  0.00  0.00    +0.023 HD
ATOM    133  H   UNL     1     146.708 164.590 186.248  0.00  0.00    +0.023 HD
ATOM    134  H   UNL     1     145.355 165.331 187.101  0.00  0.00    +0.023 HD
ENDBRANCH 129 131
BRANCH 129 135
ATOM    135  C   UNL     1     147.405 163.252 188.204  0.00  0.00    -0.046 C 
ATOM    136  H   UNL     1     148.472 163.201 187.958  0.00  0.00    +0.027 HD
ATOM    137  H   UNL     1     146.886 162.856 187.327  0.00  0.00    +0.027 HD
BRANCH 135 138
ATOM    138  C   UNL     1     147.090 162.336 189.387  0.00  0.00    -0.026 C 
ATOM    139  H   UNL     1     146.459 161.511 189.047  0.00  0.00    +0.029 HD
ATOM    140  H   UNL     1     146.499 162.879 190.128  0.00  0.00    +0.029 HD
BRANCH 138 143
ATOM    141  C   UNL     1     150.720 162.120 190.232  0.00  0.00    +0.059 C 
ATOM    142  O   UNL     1     149.505 162.429 189.533  0.00  0.00    -0.373 OA
ATOM    143  C   UNL     1     148.351 161.770 190.062  0.00  0.00    +0.061 C 
ATOM    144  C   UNL     1     148.483 160.262 189.843  0.00  0.00    -0.000 C 
ATOM    145  C   UNL     1     149.935 159.774 189.928  0.00  0.00    +0.063 C 
ATOM    146  C   UNL     1     150.741 160.708 190.818  0.00  0.00    -0.000 C 
ATOM    147  H   UNL     1     151.515 162.190 189.479  0.00  0.00    +0.059 HD
ATOM    148  H   UNL     1     148.306 161.985 191.135  0.00  0.00    +0.060 HD
ATOM    149  H   UNL     1     147.851 159.738 190.565  0.00  0.00    +0.032 HD
ATOM    150  H   UNL     1     148.104 159.978 188.854  0.00  0.00    +0.032 HD
ATOM    151  H   UNL     1     150.360 159.762 188.915  0.00  0.00    +0.060 HD
ATOM    152  H   UNL     1     150.316 160.688 191.831  0.00  0.00    +0.032 HD
ATOM    153  H   UNL     1     151.778 160.373 190.935  0.00  0.00    +0.032 HD
BRANCH 141 154
ATOM    154  C   UNL     1     150.994 163.176 191.299  0.00  0.00    -0.039 C 
ATOM    155  H   UNL     1     152.060 163.237 191.533  0.00  0.00    +0.025 HD
ATOM    156  H   UNL     1     150.653 164.163 190.969  0.00  0.00    +0.025 HD
ATOM    157  H   UNL     1     150.479 162.924 192.230  0.00  0.00    +0.025 HD
ENDBRANCH 141 154
BRANCH 145 158
ATOM    158  O   UNL     1     149.906 158.438 190.441  0.00  0.00    -0.380 OA
BRANCH 158 159
ATOM    159  C   UNL     1     149.074 157.558 189.695  0.00  0.00    +0.037 C 
ATOM    160  H   UNL     1     149.650 157.186 188.843  0.00  0.00    +0.052 HD
ATOM    161  H   UNL     1     148.200 158.089 189.306  0.00  0.00    +0.052 HD
ATOM    162  H   UNL     1     148.757 156.703 190.300  0.00  0.00    +0.052 HD
ENDBRANCH 158 159
ENDBRANCH 145 158
ENDBRANCH 138 143
ENDBRANCH 135 138
ENDBRANCH 129 135
ENDBRANCH 127 129
BRANCH 127 163
ATOM    163  O   UNL     1     149.344 165.057 188.454  0.00  0.00    -0.391 OA
ATOM    164  H   UNL     1     150.077 165.670 188.634  0.00  0.00    +0.210 HD
ENDBRANCH 127 163
ENDBRANCH 121 127
ENDBRANCH   1 121
BRANCH  41 165
ATOM    165  O   UNL     1     148.199 170.307 190.068  0.00  0.00    -0.391 OA
ATOM    166  H   UNL     1     148.350 170.575 190.998  0.00  0.00    +0.210 HD
ENDBRANCH  41 165
BRANCH  39 167
ATOM    167  O   UNL     1     145.643 170.605 188.599  0.00  0.00    -0.391 OA
ATOM    168  H   UNL     1     146.155 171.135 187.958  0.00  0.00    +0.210 HD
ENDBRANCH  39 167
BRANCH  31 169
ATOM    169  O   UNL     1     142.380 160.989 186.693  0.00  0.00    -0.391 OA
ATOM    170  H   UNL     1     142.195 160.398 185.943  0.00  0.00    +0.210 HD
ENDBRANCH  31 169
BRANCH  22 171
ATOM    171  C   UNL     1     151.849 164.553 182.647  0.00  0.00    +0.020 C 
ATOM    172  H   UNL     1     152.286 164.689 181.652  0.00  0.00    +0.036 HD
BRANCH 171 173
ATOM    173  C   UNL     1     150.419 165.098 182.625  0.00  0.00    -0.057 C 
ATOM    174  H   UNL     1     149.893 164.856 183.549  0.00  0.00    +0.023 HD
ATOM    175  H   UNL     1     149.841 164.686 181.792  0.00  0.00    +0.023 HD
ATOM    176  H   UNL     1     150.402 166.184 182.503  0.00  0.00    +0.023 HD
ENDBRANCH 171 173
BRANCH 171 177
ATOM    177  C   UNL     1     152.747 165.336 183.641  0.00  0.00    +0.064 C 
ATOM    178  H   UNL     1     152.194 166.210 184.002  0.00  0.00    +0.060 HD
BRANCH 177 179
ATOM    179  O   UNL     1     152.996 164.487 184.762  0.00  0.00    -0.391 OA
ATOM    180  H   UNL     1     152.116 164.255 185.135  0.00  0.00    +0.210 HD
ENDBRANCH 177 179
BRANCH 177 181
ATOM    181  C   UNL     1     154.108 165.865 183.105  0.00  0.00    -0.017 C 
ATOM    182  H   UNL     1     154.806 165.017 183.066  0.00  0.00    +0.032 HD
BRANCH 181 183
ATOM    183  C   UNL     1     153.924 166.361 181.659  0.00  0.00    -0.060 C 
ATOM    184  H   UNL     1     154.290 165.627 180.933  0.00  0.00    +0.023 HD
ATOM    185  H   UNL     1     152.874 166.568 181.433  0.00  0.00    +0.023 HD
ATOM    186  H   UNL     1     154.470 167.291 181.492  0.00  0.00    +0.023 HD
ENDBRANCH 181 183
BRANCH 181 187
ATOM    187  C   UNL     1     154.738 166.980 183.971  0.00  0.00    -0.046 C 
ATOM    188  H   UNL     1     154.257 167.009 184.954  0.00  0.00    +0.027 HD
ATOM    189  H   UNL     1     154.556 167.955 183.501  0.00  0.00    +0.027 HD
BRANCH 187 190
ATOM    190  C   UNL     1     156.246 166.773 184.192  0.00  0.00    -0.026 C 
ATOM    191  H   UNL     1     156.512 165.743 183.939  0.00  0.00    +0.029 HD
ATOM    192  H   UNL     1     156.473 166.902 185.257  0.00  0.00    +0.029 HD
BRANCH 190 193
ATOM    193  C   UNL     1     157.113 167.745 183.371  0.00  0.00    +0.061 C 
ATOM    194  O   UNL     1     158.499 167.670 183.715  0.00  0.00    -0.373 OA
ATOM    195  C   UNL     1     158.827 168.179 185.011  0.00  0.00    +0.059 C 
ATOM    196  C   UNL     1     158.418 169.644 185.144  0.00  0.00    -0.000 C 
ATOM    197  C   UNL     1     156.935 169.827 184.818  0.00  0.00    +0.063 C 
ATOM    198  C   UNL     1     156.624 169.192 183.462  0.00  0.00    -0.000 C 
ATOM    199  H   UNL     1     157.044 167.438 182.321  0.00  0.00    +0.060 HD
ATOM    200  H   UNL     1     158.330 167.572 185.776  0.00  0.00    +0.059 HD
ATOM    201  H   UNL     1     159.008 170.268 184.460  0.00  0.00    +0.032 HD
ATOM    202  H   UNL     1     158.639 170.003 186.155  0.00  0.00    +0.032 HD
ATOM    203  H   UNL     1     156.317 169.351 185.589  0.00  0.00    +0.060 HD
ATOM    204  H   UNL     1     157.121 169.786 182.683  0.00  0.00    +0.032 HD
ATOM    205  H   UNL     1     155.550 169.263 183.249  0.00  0.00    +0.032 HD
BRANCH 195 206
ATOM    206  C   UNL     1     160.333 168.018 185.194  0.00  0.00    -0.039 C 
ATOM    207  H   UNL     1     160.738 168.859 185.766  0.00  0.00    +0.025 HD
ATOM    208  H   UNL     1     160.845 167.971 184.228  0.00  0.00    +0.025 HD
ATOM    209  H   UNL     1     160.563 167.110 185.762  0.00  0.00    +0.025 HD
ENDBRANCH 195 206
BRANCH 197 210
ATOM    210  O   UNL     1     156.582 171.213 184.729  0.00  0.00    -0.380 OA
BRANCH 210 211
ATOM    211  C   UNL     1     157.557 172.012 184.068  0.00  0.00    +0.037 C 
ATOM    212  H   UNL     1     158.334 172.267 184.796  0.00  0.00    +0.052 HD
ATOM    213  H   UNL     1     157.116 172.942 183.701  0.00  0.00    +0.052 HD
ATOM    214  H   UNL     1     158.019 171.459 183.245  0.00  0.00    +0.052 HD
ENDBRANCH 210 211
ENDBRANCH 197 210
ENDBRANCH 190 193
ENDBRANCH 187 190
ENDBRANCH 181 187
ENDBRANCH 177 181
ENDBRANCH 171 177
ENDBRANCH  22 171
BRANCH  20 215
ATOM    215  O   UNL     1     151.289 160.045 182.256  0.00  0.00    -0.391 OA
ATOM    216  H   UNL     1     151.249 159.292 181.638  0.00  0.00    +0.210 HD
ENDBRANCH  20 215
BRANCH  18 217
ATOM    217  O   UNL     1     152.301 158.111 183.781  0.00  0.00    -0.391 OA
ATOM    218  H   UNL     1     151.795 158.235 182.951  0.00  0.00    +0.210 HD
ENDBRANCH  18 217
BRANCH  10 219
ATOM    219  O   UNL     1     158.380 163.852 188.535  0.00  0.00    -0.391 OA
ATOM    220  H   UNL     1     158.525 164.603 187.930  0.00  0.00    +0.210 HD
ENDBRANCH  10 219
BRANCH  37 221
ATOM    221  O   UNL     1     142.583 168.976 188.482  0.00  0.00    -0.379 OA
BRANCH 221 222
ATOM    222  C   UNL     1     142.225 169.762 189.611  0.00  0.00    +0.037 C 
ATOM    223  H   UNL     1     142.573 169.241 190.507  0.00  0.00    +0.052 HD
ATOM    224  H   UNL     1     142.708 170.740 189.579  0.00  0.00    +0.052 HD
ATOM    225  H   UNL     1     141.139 169.877 189.675  0.00  0.00    +0.052 HD
ENDBRANCH 221 222
ENDBRANCH  37 221
BRANCH  16 226
ATOM    226  O   UNL     1     153.814 157.572 186.975  0.00  0.00    -0.379 OA
BRANCH 226 227
ATOM    227  C   UNL     1     152.452 157.308 187.285  0.00  0.00    +0.037 C 
ATOM    228  H   UNL     1     151.907 156.924 186.417  0.00  0.00    +0.052 HD
ATOM    229  H   UNL     1     151.975 158.224 187.653  0.00  0.00    +0.052 HD
ATOM    230  H   UNL     1     152.417 156.553 188.077  0.00  0.00    +0.052 HD
ENDBRANCH 226 227
ENDBRANCH  16 226
TORSDOF 40
ENDMDL
MODEL 7
REMARK VINA RESULT:      -4.2      1.538      2.688
REMARK  Name = Swinholide A_conf1
REMARK  40 active torsions:
REMARK  status: ('A' for Active; 'I' for Inactive)
REMARK    1  A    between atoms: C_1  and  C_2
REMARK    2  A    between atoms: C_4  and  C_10
REMARK    3  A    between atoms: C_6  and  O_8
REMARK    4  A    between atoms: O_8  and  C_9
REMARK    5  A    between atoms: C_10  and  C_11
REMARK    6  A    between atoms: C_11  and  C_12
REMARK    7  A    between atoms: C_12  and  C_13
REMARK    8  A    between atoms: C_12  and  C_98
REMARK    9  A    between atoms: C_13  and  O_14
REMARK   10  A    between atoms: C_13  and  C_15
REMARK   11  A    between atoms: C_15  and  C_16
REMARK   12  A    between atoms: C_15  and  C_97
REMARK   13  A    between atoms: C_22  and  C_96
REMARK   14  A    between atoms: C_25  and  O_95
REMARK   15  A    between atoms: C_31  and  O_90
REMARK   16  A    between atoms: C_32  and  C_89
REMARK   17  A    between atoms: C_33  and  O_88
REMARK   18  A    between atoms: C_35  and  O_87
REMARK   19  A    between atoms: C_36  and  C_86
REMARK   20  A    between atoms: C_37  and  C_69
REMARK   21  A    between atoms: C_43  and  C_68
REMARK   22  A    between atoms: C_46  and  O_67
REMARK   23  A    between atoms: C_52  and  O_62
REMARK   24  A    between atoms: C_53  and  C_61
REMARK   25  A    between atoms: C_54  and  O_60
REMARK   26  A    between atoms: C_56  and  O_59
REMARK   27  A    between atoms: C_57  and  C_58
REMARK   28  A    between atoms: O_62  and  C_63
REMARK   29  A    between atoms: C_69  and  C_70
REMARK   30  A    between atoms: C_69  and  C_85
REMARK   31  A    between atoms: C_70  and  O_71
REMARK   32  A    between atoms: C_70  and  C_72
REMARK   33  A    between atoms: C_72  and  C_73
REMARK   34  A    between atoms: C_72  and  C_84
REMARK   35  A    between atoms: C_73  and  C_74
REMARK   36  A    between atoms: C_74  and  C_75
REMARK   37  A    between atoms: C_77  and  C_83
REMARK   38  A    between atoms: C_79  and  O_81
REMARK   39  A    between atoms: O_81  and  C_82
REMARK   40  A    between atoms: O_90  and  C_91
REMARK                            x       y       z     vdW  Elec       q    Type
REMARK                         _______ _______ _______ _____ _____    ______ ____
ROOT
ATOM      1  C   UNL     1     149.282 167.661 191.869  0.00  0.00    +0.113 C 
ATOM      2  O   UNL     1     150.509 167.499 191.106  0.00  0.00    -0.458 OA
ATOM      3  C   UNL     1     151.638 167.273 191.833  0.00  0.00    +0.332 C 
ATOM      4  O   UNL     1     151.716 167.239 193.056  0.00  0.00    -0.246 OA
ATOM      5  C   UNL     1     152.829 167.066 190.994  0.00  0.00    +0.023 C 
ATOM      6  C   UNL     1     152.800 166.633 189.725  0.00  0.00    -0.052 C 
ATOM      7  C   UNL     1     153.982 166.297 188.937  0.00  0.00    -0.054 C 
ATOM      8  C   UNL     1     154.999 165.583 189.462  0.00  0.00    -0.079 C 
ATOM      9  C   UNL     1     156.153 164.987 188.695  0.00  0.00    -0.008 C 
ATOM     10  C   UNL     1     156.699 163.670 189.278  0.00  0.00    +0.061 C 
ATOM     11  C   UNL     1     155.694 162.587 189.696  0.00  0.00    +0.003 C 
ATOM     12  C   UNL     1     154.891 161.863 188.599  0.00  0.00    +0.080 C 
ATOM     13  O   UNL     1     154.402 160.665 189.254  0.00  0.00    -0.369 OA
ATOM     14  C   UNL     1     153.202 160.080 188.722  0.00  0.00    +0.065 C 
ATOM     15  C   UNL     1     153.455 159.465 187.329  0.00  0.00    +0.000 C 
ATOM     16  C   UNL     1     152.251 158.677 186.772  0.00  0.00    +0.066 C 
ATOM     17  C   UNL     1     152.570 158.156 185.336  0.00  0.00    +0.009 C 
ATOM     18  C   UNL     1     151.547 158.645 184.278  0.00  0.00    +0.063 C 
ATOM     19  C   UNL     1     151.583 160.173 184.055  0.00  0.00    -0.000 C 
ATOM     20  C   UNL     1     150.722 160.589 182.845  0.00  0.00    +0.064 C 
ATOM     21  C   UNL     1     150.846 162.087 182.424  0.00  0.00    +0.020 C 
ATOM     22  C   UNL     1     150.487 163.095 183.561  0.00  0.00    +0.113 C 
ATOM     23  O   UNL     1     149.109 162.839 183.939  0.00  0.00    -0.458 OA
ATOM     24  C   UNL     1     148.852 162.757 185.272  0.00  0.00    +0.332 C 
ATOM     25  O   UNL     1     149.640 162.989 186.173  0.00  0.00    -0.246 OA
ATOM     26  C   UNL     1     147.435 162.373 185.467  0.00  0.00    +0.023 C 
ATOM     27  C   UNL     1     146.970 162.198 186.712  0.00  0.00    -0.052 C 
ATOM     28  C   UNL     1     145.602 161.851 187.076  0.00  0.00    -0.054 C 
ATOM     29  C   UNL     1     144.551 162.559 186.612  0.00  0.00    -0.079 C 
ATOM     30  C   UNL     1     143.096 162.350 186.933  0.00  0.00    -0.008 C 
ATOM     31  C   UNL     1     142.489 163.385 187.910  0.00  0.00    +0.061 C 
ATOM     32  C   UNL     1     142.132 164.722 187.226  0.00  0.00    +0.003 C 
ATOM     33  C   UNL     1     141.285 165.659 188.116  0.00  0.00    +0.080 C 
ATOM     34  O   UNL     1     142.100 166.372 189.062  0.00  0.00    -0.369 OA
ATOM     35  C   UNL     1     142.486 167.718 188.705  0.00  0.00    +0.065 C 
ATOM     36  C   UNL     1     143.253 168.263 189.924  0.00  0.00    +0.000 C 
ATOM     37  C   UNL     1     143.888 169.672 189.852  0.00  0.00    +0.066 C 
ATOM     38  C   UNL     1     144.988 169.769 188.751  0.00  0.00    +0.009 C 
ATOM     39  C   UNL     1     146.311 170.426 189.237  0.00  0.00    +0.063 C 
ATOM     40  C   UNL     1     146.839 169.870 190.570  0.00  0.00    -0.000 C 
ATOM     41  C   UNL     1     148.378 169.847 190.637  0.00  0.00    +0.064 C 
ATOM     42  C   UNL     1     148.868 169.173 191.953  0.00  0.00    +0.020 C 
ATOM     43  C   UNL     1     141.259 168.575 188.363  0.00  0.00    -0.008 C 
ATOM     44  C   UNL     1     140.377 167.884 187.377  0.00  0.00    -0.083 C 
ATOM     45  C   UNL     1     140.401 166.553 187.277  0.00  0.00    -0.059 C 
ATOM     46  C   UNL     1     152.069 161.118 188.795  0.00  0.00    -0.008 C 
ATOM     47  C   UNL     1     152.479 162.389 188.126  0.00  0.00    -0.083 C 
ATOM     48  C   UNL     1     153.777 162.701 188.018  0.00  0.00    -0.059 C 
ATOM     49  H   UNL     1     149.484 167.377 192.913  0.00  0.00    +0.074 HD
ATOM     50  H   UNL     1     153.765 167.207 191.525  0.00  0.00    +0.069 HD
ATOM     51  H   UNL     1     151.855 166.462 189.216  0.00  0.00    +0.062 HD
ATOM     52  H   UNL     1     154.975 165.331 190.521  0.00  0.00    +0.058 HD
ATOM     53  H   UNL     1     155.904 164.830 187.640  0.00  0.00    +0.033 HD
ATOM     54  H   UNL     1     156.974 165.718 188.692  0.00  0.00    +0.033 HD
ATOM     55  H   UNL     1     157.270 163.937 190.177  0.00  0.00    +0.060 HD
ATOM     56  H   UNL     1     155.005 162.975 190.457  0.00  0.00    +0.032 HD
ATOM     57  H   UNL     1     156.273 161.814 190.224  0.00  0.00    +0.032 HD
ATOM     58  H   UNL     1     155.558 161.536 187.794  0.00  0.00    +0.064 HD
ATOM     59  H   UNL     1     152.948 159.266 189.413  0.00  0.00    +0.060 HD
ATOM     60  H   UNL     1     154.319 158.791 187.419  0.00  0.00    +0.032 HD
ATOM     61  H   UNL     1     153.750 160.242 186.613  0.00  0.00    +0.032 HD
ATOM     62  H   UNL     1     151.386 159.347 186.745  0.00  0.00    +0.060 HD
ATOM     63  H   UNL     1     153.542 158.563 185.021  0.00  0.00    +0.035 HD
ATOM     64  H   UNL     1     151.775 158.154 183.324  0.00  0.00    +0.060 HD
ATOM     65  H   UNL     1     151.191 160.669 184.950  0.00  0.00    +0.032 HD
ATOM     66  H   UNL     1     152.621 160.494 183.907  0.00  0.00    +0.032 HD
ATOM     67  H   UNL     1     151.012 159.976 181.982  0.00  0.00    +0.060 HD
ATOM     68  H   UNL     1     150.113 162.223 181.618  0.00  0.00    +0.036 HD
ATOM     69  H   UNL     1     151.163 162.881 184.396  0.00  0.00    +0.074 HD
ATOM     70  H   UNL     1     146.820 162.243 184.587  0.00  0.00    +0.069 HD
ATOM     71  H   UNL     1     147.652 162.316 187.556  0.00  0.00    +0.062 HD
ATOM     72  H   UNL     1     144.734 163.374 185.916  0.00  0.00    +0.058 HD
ATOM     73  H   UNL     1     142.529 162.360 185.991  0.00  0.00    +0.033 HD
ATOM     74  H   UNL     1     142.928 161.340 187.324  0.00  0.00    +0.033 HD
ATOM     75  H   UNL     1     143.163 163.570 188.754  0.00  0.00    +0.060 HD
ATOM     76  H   UNL     1     141.561 164.484 186.318  0.00  0.00    +0.032 HD
ATOM     77  H   UNL     1     143.054 165.227 186.913  0.00  0.00    +0.032 HD
ATOM     78  H   UNL     1     140.598 165.061 188.725  0.00  0.00    +0.064 HD
ATOM     79  H   UNL     1     143.156 167.650 187.842  0.00  0.00    +0.060 HD
ATOM     80  H   UNL     1     144.051 167.544 190.166  0.00  0.00    +0.032 HD
ATOM     81  H   UNL     1     142.581 168.219 190.790  0.00  0.00    +0.032 HD
ATOM     82  H   UNL     1     144.357 169.826 190.829  0.00  0.00    +0.060 HD
ATOM     83  H   UNL     1     145.272 168.747 188.478  0.00  0.00    +0.035 HD
ATOM     84  H   UNL     1     147.057 170.249 188.452  0.00  0.00    +0.060 HD
ATOM     85  H   UNL     1     146.470 170.501 191.390  0.00  0.00    +0.032 HD
ATOM     86  H   UNL     1     146.447 168.870 190.736  0.00  0.00    +0.032 HD
ATOM     87  H   UNL     1     148.801 169.329 189.771  0.00  0.00    +0.060 HD
ATOM     88  H   UNL     1     148.045 169.229 192.681  0.00  0.00    +0.036 HD
ATOM     89  H   UNL     1     141.567 169.537 187.941  0.00  0.00    +0.033 HD
ATOM     90  H   UNL     1     140.662 168.777 189.260  0.00  0.00    +0.033 HD
ATOM     91  H   UNL     1     139.691 168.478 186.781  0.00  0.00    +0.057 HD
ATOM     92  H   UNL     1     139.726 166.061 186.580  0.00  0.00    +0.059 HD
ATOM     93  H   UNL     1     151.849 161.353 189.844  0.00  0.00    +0.033 HD
ATOM     94  H   UNL     1     151.148 160.737 188.351  0.00  0.00    +0.033 HD
ATOM     95  H   UNL     1     151.713 163.041 187.718  0.00  0.00    +0.057 HD
ATOM     96  H   UNL     1     154.050 163.598 187.474  0.00  0.00    +0.059 HD
ENDROOT
BRANCH  28  97
ATOM     97  C   UNL     1     145.512 160.726 188.075  0.00  0.00    -0.040 C 
ATOM     98  H   UNL     1     144.470 160.418 188.224  0.00  0.00    +0.028 HD
ATOM     99  H   UNL     1     145.915 161.049 189.041  0.00  0.00    +0.028 HD
ATOM    100  H   UNL     1     146.058 159.830 187.768  0.00  0.00    +0.028 HD
ENDBRANCH  28  97
BRANCH  21 101
ATOM    101  C   UNL     1     152.239 162.346 181.838  0.00  0.00    -0.057 C 
ATOM    102  H   UNL     1     152.181 162.791 180.839  0.00  0.00    +0.023 HD
ATOM    103  H   UNL     1     152.816 161.418 181.761  0.00  0.00    +0.023 HD
ATOM    104  H   UNL     1     152.817 163.021 182.478  0.00  0.00    +0.023 HD
ENDBRANCH  21 101
BRANCH  42 105
ATOM    105  C   UNL     1     150.025 169.975 192.595  0.00  0.00    -0.057 C 
ATOM    106  H   UNL     1     149.984 171.029 192.302  0.00  0.00    +0.023 HD
ATOM    107  H   UNL     1     149.997 169.918 193.689  0.00  0.00    +0.023 HD
ATOM    108  H   UNL     1     150.998 169.599 192.260  0.00  0.00    +0.023 HD
ENDBRANCH  42 105
BRANCH  17 109
ATOM    109  C   UNL     1     152.708 156.629 185.264  0.00  0.00    -0.058 C 
ATOM    110  H   UNL     1     153.669 156.282 185.656  0.00  0.00    +0.023 HD
ATOM    111  H   UNL     1     151.919 156.144 185.851  0.00  0.00    +0.023 HD
ATOM    112  H   UNL     1     152.606 156.276 184.232  0.00  0.00    +0.023 HD
ENDBRANCH  17 109
BRANCH  38 113
ATOM    113  C   UNL     1     144.506 170.469 187.469  0.00  0.00    -0.058 C 
ATOM    114  H   UNL     1     143.484 170.855 187.566  0.00  0.00    +0.023 HD
ATOM    115  H   UNL     1     144.528 169.790 186.612  0.00  0.00    +0.023 HD
ATOM    116  H   UNL     1     145.150 171.323 187.229  0.00  0.00    +0.023 HD
ENDBRANCH  38 113
BRANCH   7 117
ATOM    117  C   UNL     1     153.897 166.717 187.496  0.00  0.00    -0.040 C 
ATOM    118  H   UNL     1     154.065 167.796 187.397  0.00  0.00    +0.028 HD
ATOM    119  H   UNL     1     152.912 166.479 187.091  0.00  0.00    +0.028 HD
ATOM    120  H   UNL     1     154.650 166.230 186.872  0.00  0.00    +0.028 HD
ENDBRANCH   7 117
BRANCH   1 121
ATOM    121  C   UNL     1     148.246 166.570 191.405  0.00  0.00    +0.020 C 
ATOM    122  H   UNL     1     148.730 165.617 191.673  0.00  0.00    +0.036 HD
BRANCH 121 123
ATOM    123  C   UNL     1     146.975 166.697 192.264  0.00  0.00    -0.057 C 
ATOM    124  H   UNL     1     146.272 165.889 192.049  0.00  0.00    +0.023 HD
ATOM    125  H   UNL     1     146.458 167.645 192.103  0.00  0.00    +0.023 HD
ATOM    126  H   UNL     1     147.189 166.610 193.334  0.00  0.00    +0.023 HD
ENDBRANCH 121 123
BRANCH 121 127
ATOM    127  C   UNL     1     147.967 166.456 189.868  0.00  0.00    +0.064 C 
ATOM    128  H   UNL     1     147.115 167.086 189.627  0.00  0.00    +0.060 HD
BRANCH 127 129
ATOM    129  C   UNL     1     147.690 165.046 189.246  0.00  0.00    -0.017 C 
ATOM    130  H   UNL     1     148.460 164.857 188.486  0.00  0.00    +0.032 HD
BRANCH 129 131
ATOM    131  C   UNL     1     147.733 163.858 190.206  0.00  0.00    -0.060 C 
ATOM    132  H   UNL     1     147.077 164.025 191.065  0.00  0.00    +0.023 HD
ATOM    133  H   UNL     1     147.469 162.922 189.708  0.00  0.00    +0.023 HD
ATOM    134  H   UNL     1     148.741 163.732 190.622  0.00  0.00    +0.023 HD
ENDBRANCH 129 131
BRANCH 129 135
ATOM    135  C   UNL     1     146.310 165.017 188.523  0.00  0.00    -0.046 C 
ATOM    136  H   UNL     1     145.598 164.429 189.113  0.00  0.00    +0.027 HD
ATOM    137  H   UNL     1     146.417 164.480 187.578  0.00  0.00    +0.027 HD
BRANCH 135 138
ATOM    138  C   UNL     1     145.727 166.396 188.214  0.00  0.00    -0.026 C 
ATOM    139  H   UNL     1     146.298 167.158 188.751  0.00  0.00    +0.029 HD
ATOM    140  H   UNL     1     144.706 166.461 188.598  0.00  0.00    +0.029 HD
BRANCH 138 143
ATOM    141  C   UNL     1     145.796 165.681 184.550  0.00  0.00    +0.059 C 
ATOM    142  O   UNL     1     145.973 165.529 185.967  0.00  0.00    -0.373 OA
ATOM    143  C   UNL     1     145.724 166.725 186.711  0.00  0.00    +0.061 C 
ATOM    144  C   UNL     1     146.781 167.772 186.358  0.00  0.00    -0.000 C 
ATOM    145  C   UNL     1     147.241 167.683 184.897  0.00  0.00    +0.063 C 
ATOM    146  C   UNL     1     146.132 167.084 184.044  0.00  0.00    -0.000 C 
ATOM    147  H   UNL     1     146.499 164.974 184.092  0.00  0.00    +0.059 HD
ATOM    148  H   UNL     1     144.731 167.093 186.431  0.00  0.00    +0.060 HD
ATOM    149  H   UNL     1     146.389 168.767 186.585  0.00  0.00    +0.032 HD
ATOM    150  H   UNL     1     147.672 167.652 186.985  0.00  0.00    +0.032 HD
ATOM    151  H   UNL     1     148.135 167.047 184.850  0.00  0.00    +0.060 HD
ATOM    152  H   UNL     1     145.256 167.745 184.085  0.00  0.00    +0.032 HD
ATOM    153  H   UNL     1     146.408 167.037 182.984  0.00  0.00    +0.032 HD
BRANCH 141 154
ATOM    154  C   UNL     1     144.385 165.262 184.151  0.00  0.00    -0.039 C 
ATOM    155  H   UNL     1     144.242 164.184 184.268  0.00  0.00    +0.025 HD
ATOM    156  H   UNL     1     143.636 165.780 184.759  0.00  0.00    +0.025 HD
ATOM    157  H   UNL     1     144.198 165.493 183.098  0.00  0.00    +0.025 HD
ENDBRANCH 141 154
BRANCH 145 158
ATOM    158  O   UNL     1     147.583 169.008 184.477  0.00  0.00    -0.380 OA
BRANCH 158 159
ATOM    159  C   UNL     1     147.744 169.924 185.552  0.00  0.00    +0.037 C 
ATOM    160  H   UNL     1     148.130 170.863 185.144  0.00  0.00    +0.052 HD
ATOM    161  H   UNL     1     148.472 169.546 186.276  0.00  0.00    +0.052 HD
ATOM    162  H   UNL     1     146.790 170.127 186.048  0.00  0.00    +0.052 HD
ENDBRANCH 158 159
ENDBRANCH 145 158
ENDBRANCH 138 143
ENDBRANCH 135 138
ENDBRANCH 129 135
ENDBRANCH 127 129
BRANCH 127 163
ATOM    163  O   UNL     1     149.056 166.990 189.104  0.00  0.00    -0.391 OA
ATOM    164  H   UNL     1     149.880 166.894 189.612  0.00  0.00    +0.210 HD
ENDBRANCH 127 163
ENDBRANCH 121 127
ENDBRANCH   1 121
BRANCH  41 165
ATOM    165  O   UNL     1     148.839 171.201 190.570  0.00  0.00    -0.391 OA
ATOM    166  H   UNL     1     149.266 171.351 189.702  0.00  0.00    +0.210 HD
ENDBRANCH  41 165
BRANCH  39 167
ATOM    167  O   UNL     1     146.206 171.842 189.370  0.00  0.00    -0.391 OA
ATOM    168  H   UNL     1     145.336 172.046 189.765  0.00  0.00    +0.210 HD
ENDBRANCH  39 167
BRANCH  31 169
ATOM    169  O   UNL     1     141.286 162.805 188.435  0.00  0.00    -0.391 OA
ATOM    170  H   UNL     1     140.669 163.534 188.616  0.00  0.00    +0.210 HD
ENDBRANCH  31 169
BRANCH  22 171
ATOM    171  C   UNL     1     150.657 164.607 183.172  0.00  0.00    +0.020 C 
ATOM    172  H   UNL     1     150.969 164.628 182.123  0.00  0.00    +0.036 HD
BRANCH 171 173
ATOM    173  C   UNL     1     149.342 165.382 183.300  0.00  0.00    -0.057 C 
ATOM    174  H   UNL     1     149.053 165.823 182.345  0.00  0.00    +0.023 HD
ATOM    175  H   UNL     1     149.419 166.190 184.034  0.00  0.00    +0.023 HD
ATOM    176  H   UNL     1     148.525 164.738 183.635  0.00  0.00    +0.023 HD
ENDBRANCH 171 173
BRANCH 171 177
ATOM    177  C   UNL     1     151.796 165.271 183.990  0.00  0.00    +0.064 C 
ATOM    178  H   UNL     1     151.520 166.309 184.202  0.00  0.00    +0.060 HD
BRANCH 177 179
ATOM    179  O   UNL     1     151.890 164.584 185.240  0.00  0.00    -0.391 OA
ATOM    180  H   UNL     1     151.207 163.875 185.218  0.00  0.00    +0.210 HD
ENDBRANCH 177 179
BRANCH 177 181
ATOM    181  C   UNL     1     153.207 165.313 183.339  0.00  0.00    -0.017 C 
ATOM    182  H   UNL     1     153.542 164.277 183.195  0.00  0.00    +0.032 HD
BRANCH 181 183
ATOM    183  C   UNL     1     153.101 165.949 181.941  0.00  0.00    -0.060 C 
ATOM    184  H   UNL     1     152.581 166.912 181.977  0.00  0.00    +0.023 HD
ATOM    185  H   UNL     1     154.086 166.111 181.495  0.00  0.00    +0.023 HD
ATOM    186  H   UNL     1     152.549 165.302 181.258  0.00  0.00    +0.023 HD
ENDBRANCH 181 183
BRANCH 181 187
ATOM    187  C   UNL     1     154.269 166.059 184.179  0.00  0.00    -0.046 C 
ATOM    188  H   UNL     1     153.847 166.348 185.148  0.00  0.00    +0.027 HD
ATOM    189  H   UNL     1     154.553 166.989 183.670  0.00  0.00    +0.027 HD
BRANCH 187 190
ATOM    190  C   UNL     1     155.518 165.202 184.448  0.00  0.00    -0.026 C 
ATOM    191  H   UNL     1     155.327 164.174 184.129  0.00  0.00    +0.029 HD
ATOM    192  H   UNL     1     155.702 165.166 185.528  0.00  0.00    +0.029 HD
BRANCH 190 193
ATOM    193  C   UNL     1     156.777 165.736 183.741  0.00  0.00    +0.061 C 
ATOM    194  O   UNL     1     157.986 165.238 184.320  0.00  0.00    -0.373 OA
ATOM    195  C   UNL     1     158.280 165.740 185.627  0.00  0.00    +0.059 C 
ATOM    196  C   UNL     1     158.391 167.263 185.616  0.00  0.00    -0.000 C 
ATOM    197  C   UNL     1     157.128 167.897 185.032  0.00  0.00    +0.063 C 
ATOM    198  C   UNL     1     156.813 167.264 183.676  0.00  0.00    -0.000 C 
ATOM    199  H   UNL     1     156.757 165.362 182.711  0.00  0.00    +0.060 HD
ATOM    200  H   UNL     1     157.498 165.419 186.324  0.00  0.00    +0.059 HD
ATOM    201  H   UNL     1     159.253 167.578 185.013  0.00  0.00    +0.032 HD
ATOM    202  H   UNL     1     158.575 167.631 186.631  0.00  0.00    +0.032 HD
ATOM    203  H   UNL     1     156.278 167.739 185.708  0.00  0.00    +0.060 HD
ATOM    204  H   UNL     1     157.593 167.572 182.965  0.00  0.00    +0.032 HD
ATOM    205  H   UNL     1     155.874 167.668 183.279  0.00  0.00    +0.032 HD
BRANCH 195 206
ATOM    206  C   UNL     1     159.593 165.104 186.073  0.00  0.00    -0.039 C 
ATOM    207  H   UNL     1     159.406 164.122 186.522  0.00  0.00    +0.025 HD
ATOM    208  H   UNL     1     160.107 165.733 186.806  0.00  0.00    +0.025 HD
ATOM    209  H   UNL     1     160.258 164.939 185.218  0.00  0.00    +0.025 HD
ENDBRANCH 195 206
BRANCH 197 210
ATOM    210  O   UNL     1     157.295 169.304 184.816  0.00  0.00    -0.380 OA
BRANCH 210 211
ATOM    211  C   UNL     1     156.553 169.807 183.712  0.00  0.00    +0.037 C 
ATOM    212  H   UNL     1     155.988 168.976 183.278  0.00  0.00    +0.052 HD
ATOM    213  H   UNL     1     157.218 170.205 182.942  0.00  0.00    +0.052 HD
ATOM    214  H   UNL     1     155.846 170.576 184.038  0.00  0.00    +0.052 HD
ENDBRANCH 210 211
ENDBRANCH 197 210
ENDBRANCH 190 193
ENDBRANCH 187 190
ENDBRANCH 181 187
ENDBRANCH 177 181
ENDBRANCH 171 177
ENDBRANCH  22 171
BRANCH  20 215
ATOM    215  O   UNL     1     149.360 160.237 183.127  0.00  0.00    -0.391 OA
ATOM    216  H   UNL     1     148.797 160.971 182.820  0.00  0.00    +0.210 HD
ENDBRANCH  20 215
BRANCH  18 217
ATOM    217  O   UNL     1     150.230 158.235 184.652  0.00  0.00    -0.391 OA
ATOM    218  H   UNL     1     149.907 158.895 185.299  0.00  0.00    +0.210 HD
ENDBRANCH  18 217
BRANCH  10 219
ATOM    219  O   UNL     1     157.642 163.123 188.351  0.00  0.00    -0.391 OA
ATOM    220  H   UNL     1     157.304 162.252 188.074  0.00  0.00    +0.210 HD
ENDBRANCH  10 219
BRANCH  37 221
ATOM    221  O   UNL     1     142.938 170.725 189.687  0.00  0.00    -0.379 OA
BRANCH 221 222
ATOM    222  C   UNL     1     142.887 171.646 190.770  0.00  0.00    +0.037 C 
ATOM    223  H   UNL     1     142.609 172.624 190.368  0.00  0.00    +0.052 HD
ATOM    224  H   UNL     1     142.130 171.352 191.501  0.00  0.00    +0.052 HD
ATOM    225  H   UNL     1     143.865 171.733 191.252  0.00  0.00    +0.052 HD
ENDBRANCH 221 222
ENDBRANCH  37 221
BRANCH  16 226
ATOM    226  O   UNL     1     152.004 157.601 187.691  0.00  0.00    -0.379 OA
BRANCH 226 227
ATOM    227  C   UNL     1     150.653 157.550 188.131  0.00  0.00    +0.037 C 
ATOM    228  H   UNL     1     150.229 158.552 188.251  0.00  0.00    +0.052 HD
ATOM    229  H   UNL     1     150.596 157.003 189.078  0.00  0.00    +0.052 HD
ATOM    230  H   UNL     1     150.064 157.013 187.381  0.00  0.00    +0.052 HD
ENDBRANCH 226 227
ENDBRANCH  16 226
TORSDOF 40
ENDMDL
MODEL 8
REMARK VINA RESULT:      -4.2      2.536      8.991
REMARK  Name = Swinholide A_conf1
REMARK  40 active torsions:
REMARK  status: ('A' for Active; 'I' for Inactive)
REMARK    1  A    between atoms: C_1  and  C_2
REMARK    2  A    between atoms: C_4  and  C_10
REMARK    3  A    between atoms: C_6  and  O_8
REMARK    4  A    between atoms: O_8  and  C_9
REMARK    5  A    between atoms: C_10  and  C_11
REMARK    6  A    between atoms: C_11  and  C_12
REMARK    7  A    between atoms: C_12  and  C_13
REMARK    8  A    between atoms: C_12  and  C_98
REMARK    9  A    between atoms: C_13  and  O_14
REMARK   10  A    between atoms: C_13  and  C_15
REMARK   11  A    between atoms: C_15  and  C_16
REMARK   12  A    between atoms: C_15  and  C_97
REMARK   13  A    between atoms: C_22  and  C_96
REMARK   14  A    between atoms: C_25  and  O_95
REMARK   15  A    between atoms: C_31  and  O_90
REMARK   16  A    between atoms: C_32  and  C_89
REMARK   17  A    between atoms: C_33  and  O_88
REMARK   18  A    between atoms: C_35  and  O_87
REMARK   19  A    between atoms: C_36  and  C_86
REMARK   20  A    between atoms: C_37  and  C_69
REMARK   21  A    between atoms: C_43  and  C_68
REMARK   22  A    between atoms: C_46  and  O_67
REMARK   23  A    between atoms: C_52  and  O_62
REMARK   24  A    between atoms: C_53  and  C_61
REMARK   25  A    between atoms: C_54  and  O_60
REMARK   26  A    between atoms: C_56  and  O_59
REMARK   27  A    between atoms: C_57  and  C_58
REMARK   28  A    between atoms: O_62  and  C_63
REMARK   29  A    between atoms: C_69  and  C_70
REMARK   30  A    between atoms: C_69  and  C_85
REMARK   31  A    between atoms: C_70  and  O_71
REMARK   32  A    between atoms: C_70  and  C_72
REMARK   33  A    between atoms: C_72  and  C_73
REMARK   34  A    between atoms: C_72  and  C_84
REMARK   35  A    between atoms: C_73  and  C_74
REMARK   36  A    between atoms: C_74  and  C_75
REMARK   37  A    between atoms: C_77  and  C_83
REMARK   38  A    between atoms: C_79  and  O_81
REMARK   39  A    between atoms: O_81  and  C_82
REMARK   40  A    between atoms: O_90  and  C_91
REMARK                            x       y       z     vdW  Elec       q    Type
REMARK                         _______ _______ _______ _____ _____    ______ ____
ROOT
ATOM      1  C   UNL     1     146.464 169.042 183.400  0.00  0.00    +0.113 C 
ATOM      2  O   UNL     1     146.251 167.615 183.222  0.00  0.00    -0.458 OA
ATOM      3  C   UNL     1     146.617 167.104 182.014  0.00  0.00    +0.332 C 
ATOM      4  O   UNL     1     147.062 167.740 181.064  0.00  0.00    -0.246 OA
ATOM      5  C   UNL     1     146.424 165.649 181.923  0.00  0.00    +0.023 C 
ATOM      6  C   UNL     1     146.396 164.818 182.975  0.00  0.00    -0.052 C 
ATOM      7  C   UNL     1     146.342 163.362 182.882  0.00  0.00    -0.054 C 
ATOM      8  C   UNL     1     147.105 162.685 181.999  0.00  0.00    -0.079 C 
ATOM      9  C   UNL     1     147.302 161.189 181.963  0.00  0.00    -0.008 C 
ATOM     10  C   UNL     1     148.689 160.738 181.467  0.00  0.00    +0.061 C 
ATOM     11  C   UNL     1     149.930 161.447 182.028  0.00  0.00    +0.003 C 
ATOM     12  C   UNL     1     150.298 161.229 183.508  0.00  0.00    +0.080 C 
ATOM     13  O   UNL     1     151.684 161.646 183.591  0.00  0.00    -0.369 OA
ATOM     14  C   UNL     1     152.150 162.096 184.873  0.00  0.00    +0.065 C 
ATOM     15  C   UNL     1     152.226 160.927 185.878  0.00  0.00    +0.000 C 
ATOM     16  C   UNL     1     152.873 161.309 187.226  0.00  0.00    +0.066 C 
ATOM     17  C   UNL     1     152.841 160.091 188.200  0.00  0.00    +0.009 C 
ATOM     18  C   UNL     1     152.106 160.403 189.529  0.00  0.00    +0.063 C 
ATOM     19  C   UNL     1     150.597 160.674 189.343  0.00  0.00    -0.000 C 
ATOM     20  C   UNL     1     149.865 160.754 190.698  0.00  0.00    +0.064 C 
ATOM     21  C   UNL     1     148.309 160.835 190.609  0.00  0.00    +0.020 C 
ATOM     22  C   UNL     1     147.785 162.048 189.778  0.00  0.00    +0.113 C 
ATOM     23  O   UNL     1     148.270 163.253 190.428  0.00  0.00    -0.458 OA
ATOM     24  C   UNL     1     148.825 164.196 189.621  0.00  0.00    +0.332 C 
ATOM     25  O   UNL     1     148.851 164.176 188.402  0.00  0.00    -0.246 OA
ATOM     26  C   UNL     1     149.370 165.288 190.459  0.00  0.00    +0.023 C 
ATOM     27  C   UNL     1     150.000 166.314 189.869  0.00  0.00    -0.052 C 
ATOM     28  C   UNL     1     150.563 167.477 190.543  0.00  0.00    -0.054 C 
ATOM     29  C   UNL     1     149.830 168.214 191.403  0.00  0.00    -0.079 C 
ATOM     30  C   UNL     1     150.257 169.457 192.134  0.00  0.00    -0.008 C 
ATOM     31  C   UNL     1     149.674 170.776 191.573  0.00  0.00    +0.061 C 
ATOM     32  C   UNL     1     148.219 171.030 192.020  0.00  0.00    +0.003 C 
ATOM     33  C   UNL     1     147.718 172.456 191.696  0.00  0.00    +0.080 C 
ATOM     34  O   UNL     1     147.307 172.576 190.324  0.00  0.00    -0.369 OA
ATOM     35  C   UNL     1     145.893 172.450 190.053  0.00  0.00    +0.065 C 
ATOM     36  C   UNL     1     145.737 172.716 188.545  0.00  0.00    +0.000 C 
ATOM     37  C   UNL     1     144.341 172.582 187.892  0.00  0.00    +0.066 C 
ATOM     38  C   UNL     1     143.781 171.130 187.989  0.00  0.00    +0.009 C 
ATOM     39  C   UNL     1     143.223 170.579 186.646  0.00  0.00    +0.063 C 
ATOM     40  C   UNL     1     144.156 170.787 185.441  0.00  0.00    -0.000 C 
ATOM     41  C   UNL     1     144.071 169.637 184.418  0.00  0.00    +0.064 C 
ATOM     42  C   UNL     1     145.113 169.832 183.276  0.00  0.00    +0.020 C 
ATOM     43  C   UNL     1     145.077 173.435 190.902  0.00  0.00    -0.008 C 
ATOM     44  C   UNL     1     145.459 173.350 192.343  0.00  0.00    -0.083 C 
ATOM     45  C   UNL     1     146.668 172.901 192.687  0.00  0.00    -0.059 C 
ATOM     46  C   UNL     1     151.298 163.298 185.316  0.00  0.00    -0.008 C 
ATOM     47  C   UNL     1     149.845 162.954 185.278  0.00  0.00    -0.083 C 
ATOM     48  C   UNL     1     149.407 161.983 184.466  0.00  0.00    -0.059 C 
ATOM     49  H   UNL     1     147.070 169.409 182.559  0.00  0.00    +0.074 HD
ATOM     50  H   UNL     1     146.395 165.275 180.904  0.00  0.00    +0.069 HD
ATOM     51  H   UNL     1     146.460 165.202 183.991  0.00  0.00    +0.062 HD
ATOM     52  H   UNL     1     147.706 163.243 181.283  0.00  0.00    +0.058 HD
ATOM     53  H   UNL     1     147.108 160.728 182.937  0.00  0.00    +0.033 HD
ATOM     54  H   UNL     1     146.548 160.762 181.286  0.00  0.00    +0.033 HD
ATOM     55  H   UNL     1     148.700 160.892 180.380  0.00  0.00    +0.060 HD
ATOM     56  H   UNL     1     149.885 162.524 181.819  0.00  0.00    +0.032 HD
ATOM     57  H   UNL     1     150.785 161.091 181.435  0.00  0.00    +0.032 HD
ATOM     58  H   UNL     1     150.272 160.161 183.751  0.00  0.00    +0.064 HD
ATOM     59  H   UNL     1     153.169 162.462 184.698  0.00  0.00    +0.060 HD
ATOM     60  H   UNL     1     152.815 160.127 185.407  0.00  0.00    +0.032 HD
ATOM     61  H   UNL     1     151.229 160.505 186.054  0.00  0.00    +0.032 HD
ATOM     62  H   UNL     1     152.309 162.146 187.651  0.00  0.00    +0.060 HD
ATOM     63  H   UNL     1     152.271 159.277 187.728  0.00  0.00    +0.035 HD
ATOM     64  H   UNL     1     152.219 159.540 190.198  0.00  0.00    +0.060 HD
ATOM     65  H   UNL     1     150.473 161.630 188.822  0.00  0.00    +0.032 HD
ATOM     66  H   UNL     1     150.160 159.882 188.725  0.00  0.00    +0.032 HD
ATOM     67  H   UNL     1     150.119 159.862 191.286  0.00  0.00    +0.060 HD
ATOM     68  H   UNL     1     147.967 160.971 191.643  0.00  0.00    +0.036 HD
ATOM     69  H   UNL     1     148.215 161.951 188.775  0.00  0.00    +0.074 HD
ATOM     70  H   UNL     1     149.241 165.217 191.531  0.00  0.00    +0.069 HD
ATOM     71  H   UNL     1     150.122 166.310 188.785  0.00  0.00    +0.062 HD
ATOM     72  H   UNL     1     148.813 167.901 191.627  0.00  0.00    +0.058 HD
ATOM     73  H   UNL     1     149.972 169.352 193.191  0.00  0.00    +0.033 HD
ATOM     74  H   UNL     1     151.350 169.529 192.168  0.00  0.00    +0.033 HD
ATOM     75  H   UNL     1     149.734 170.798 190.479  0.00  0.00    +0.060 HD
ATOM     76  H   UNL     1     148.178 170.879 193.107  0.00  0.00    +0.032 HD
ATOM     77  H   UNL     1     147.562 170.284 191.557  0.00  0.00    +0.032 HD
ATOM     78  H   UNL     1     148.543 173.167 191.810  0.00  0.00    +0.064 HD
ATOM     79  H   UNL     1     145.605 171.419 190.283  0.00  0.00    +0.060 HD
ATOM     80  H   UNL     1     146.426 172.043 188.013  0.00  0.00    +0.032 HD
ATOM     81  H   UNL     1     146.132 173.719 188.339  0.00  0.00    +0.032 HD
ATOM     82  H   UNL     1     144.492 172.829 186.836  0.00  0.00    +0.060 HD
ATOM     83  H   UNL     1     144.620 170.469 188.230  0.00  0.00    +0.035 HD
ATOM     84  H   UNL     1     143.057 169.504 186.793  0.00  0.00    +0.060 HD
ATOM     85  H   UNL     1     143.877 171.720 184.932  0.00  0.00    +0.032 HD
ATOM     86  H   UNL     1     145.180 170.903 185.783  0.00  0.00    +0.032 HD
ATOM     87  H   UNL     1     144.224 168.669 184.903  0.00  0.00    +0.060 HD
ATOM     88  H   UNL     1     145.378 170.898 183.248  0.00  0.00    +0.036 HD
ATOM     89  H   UNL     1     144.006 173.224 190.813  0.00  0.00    +0.033 HD
ATOM     90  H   UNL     1     145.245 174.467 190.574  0.00  0.00    +0.033 HD
ATOM     91  H   UNL     1     144.756 173.699 193.093  0.00  0.00    +0.057 HD
ATOM     92  H   UNL     1     146.945 172.879 193.740  0.00  0.00    +0.059 HD
ATOM     93  H   UNL     1     151.457 164.138 184.628  0.00  0.00    +0.033 HD
ATOM     94  H   UNL     1     151.579 163.643 186.313  0.00  0.00    +0.033 HD
ATOM     95  H   UNL     1     149.159 163.489 185.928  0.00  0.00    +0.057 HD
ATOM     96  H   UNL     1     148.359 161.711 184.504  0.00  0.00    +0.059 HD
ENDROOT
BRANCH  28  97
ATOM     97  C   UNL     1     151.966 167.807 190.102  0.00  0.00    -0.040 C 
ATOM     98  H   UNL     1     152.698 167.171 190.615  0.00  0.00    +0.028 HD
ATOM     99  H   UNL     1     152.198 168.851 190.337  0.00  0.00    +0.028 HD
ATOM    100  H   UNL     1     152.129 167.661 189.031  0.00  0.00    +0.028 HD
ENDBRANCH  28  97
BRANCH  21 101
ATOM    101  C   UNL     1     147.749 159.500 190.103  0.00  0.00    -0.057 C 
ATOM    102  H   UNL     1     147.285 159.605 189.117  0.00  0.00    +0.023 HD
ATOM    103  H   UNL     1     146.996 159.100 190.789  0.00  0.00    +0.023 HD
ATOM    104  H   UNL     1     148.539 158.744 190.029  0.00  0.00    +0.023 HD
ENDBRANCH  21 101
BRANCH  42 105
ATOM    105  C   UNL     1     144.486 169.538 181.893  0.00  0.00    -0.057 C 
ATOM    106  H   UNL     1     143.760 168.720 181.954  0.00  0.00    +0.023 HD
ATOM    107  H   UNL     1     143.980 170.420 181.483  0.00  0.00    +0.023 HD
ATOM    108  H   UNL     1     145.249 169.219 181.174  0.00  0.00    +0.023 HD
ENDBRANCH  42 105
BRANCH  17 109
ATOM    109  C   UNL     1     154.234 159.516 188.494  0.00  0.00    -0.058 C 
ATOM    110  H   UNL     1     154.541 158.776 187.748  0.00  0.00    +0.023 HD
ATOM    111  H   UNL     1     154.986 160.314 188.495  0.00  0.00    +0.023 HD
ATOM    112  H   UNL     1     154.261 159.044 189.482  0.00  0.00    +0.023 HD
ENDBRANCH  17 109
BRANCH  38 113
ATOM    113  C   UNL     1     142.727 170.957 189.095  0.00  0.00    -0.058 C 
ATOM    114  H   UNL     1     142.910 171.618 189.950  0.00  0.00    +0.023 HD
ATOM    115  H   UNL     1     142.702 169.928 189.465  0.00  0.00    +0.023 HD
ATOM    116  H   UNL     1     141.726 171.194 188.716  0.00  0.00    +0.023 HD
ENDBRANCH  38 113
BRANCH   7 117
ATOM    117  C   UNL     1     145.461 162.714 183.913  0.00  0.00    -0.040 C 
ATOM    118  H   UNL     1     144.424 163.052 183.804  0.00  0.00    +0.028 HD
ATOM    119  H   UNL     1     145.807 162.967 184.917  0.00  0.00    +0.028 HD
ATOM    120  H   UNL     1     145.442 161.625 183.824  0.00  0.00    +0.028 HD
ENDBRANCH   7 117
BRANCH   1 121
ATOM    121  C   UNL     1     147.412 169.264 184.637  0.00  0.00    +0.020 C 
ATOM    122  H   UNL     1     148.423 169.242 184.201  0.00  0.00    +0.036 HD
BRANCH 121 123
ATOM    123  C   UNL     1     147.181 170.683 185.190  0.00  0.00    -0.057 C 
ATOM    124  H   UNL     1     146.391 171.198 184.638  0.00  0.00    +0.023 HD
ATOM    125  H   UNL     1     148.081 171.298 185.143  0.00  0.00    +0.023 HD
ATOM    126  H   UNL     1     146.838 170.669 186.230  0.00  0.00    +0.023 HD
ENDBRANCH 121 123
BRANCH 121 127
ATOM    127  C   UNL     1     147.428 168.148 185.737  0.00  0.00    +0.064 C 
ATOM    128  H   UNL     1     147.398 167.181 185.243  0.00  0.00    +0.060 HD
BRANCH 127 129
ATOM    129  C   UNL     1     146.313 168.143 186.836  0.00  0.00    -0.017 C 
ATOM    130  H   UNL     1     145.815 169.121 186.812  0.00  0.00    +0.032 HD
BRANCH 129 131
ATOM    131  C   UNL     1     145.211 167.096 186.681  0.00  0.00    -0.060 C 
ATOM    132  H   UNL     1     144.778 166.837 187.651  0.00  0.00    +0.023 HD
ATOM    133  H   UNL     1     144.427 167.427 185.996  0.00  0.00    +0.023 HD
ATOM    134  H   UNL     1     145.620 166.159 186.279  0.00  0.00    +0.023 HD
ENDBRANCH 129 131
BRANCH 129 135
ATOM    135  C   UNL     1     146.930 167.970 188.256  0.00  0.00    -0.046 C 
ATOM    136  H   UNL     1     148.016 168.109 188.204  0.00  0.00    +0.027 HD
ATOM    137  H   UNL     1     146.785 166.937 188.581  0.00  0.00    +0.027 HD
BRANCH 135 138
ATOM    138  C   UNL     1     146.329 168.886 189.323  0.00  0.00    -0.026 C 
ATOM    139  H   UNL     1     145.577 169.532 188.863  0.00  0.00    +0.029 HD
ATOM    140  H   UNL     1     147.100 169.555 189.712  0.00  0.00    +0.029 HD
BRANCH 138 143
ATOM    141  C   UNL     1     146.047 166.203 191.904  0.00  0.00    +0.059 C 
ATOM    142  O   UNL     1     146.430 166.905 190.711  0.00  0.00    -0.373 OA
ATOM    143  C   UNL     1     145.695 168.112 190.492  0.00  0.00    +0.061 C 
ATOM    144  C   UNL     1     144.230 167.772 190.217  0.00  0.00    -0.000 C 
ATOM    145  C   UNL     1     143.751 166.538 190.991  0.00  0.00    +0.063 C 
ATOM    146  C   UNL     1     144.571 166.378 192.263  0.00  0.00    -0.000 C 
ATOM    147  H   UNL     1     146.222 165.142 191.685  0.00  0.00    +0.059 HD
ATOM    148  H   UNL     1     145.769 168.719 191.401  0.00  0.00    +0.060 HD
ATOM    149  H   UNL     1     143.610 168.643 190.445  0.00  0.00    +0.032 HD
ATOM    150  H   UNL     1     144.072 167.566 189.151  0.00  0.00    +0.032 HD
ATOM    151  H   UNL     1     143.875 165.653 190.352  0.00  0.00    +0.060 HD
ATOM    152  H   UNL     1     144.416 167.260 192.899  0.00  0.00    +0.032 HD
ATOM    153  H   UNL     1     144.235 165.527 192.866  0.00  0.00    +0.032 HD
BRANCH 141 154
ATOM    154  C   UNL     1     146.958 166.598 193.061  0.00  0.00    -0.039 C 
ATOM    155  H   UNL     1     147.643 167.400 192.772  0.00  0.00    +0.025 HD
ATOM    156  H   UNL     1     146.372 166.935 193.923  0.00  0.00    +0.025 HD
ATOM    157  H   UNL     1     147.577 165.751 193.371  0.00  0.00    +0.025 HD
ENDBRANCH 141 154
BRANCH 145 158
ATOM    158  O   UNL     1     142.360 166.724 191.272  0.00  0.00    -0.380 OA
BRANCH 158 159
ATOM    159  C   UNL     1     141.979 166.304 192.576  0.00  0.00    +0.037 C 
ATOM    160  H   UNL     1     142.745 166.644 193.279  0.00  0.00    +0.052 HD
ATOM    161  H   UNL     1     141.931 165.212 192.631  0.00  0.00    +0.052 HD
ATOM    162  H   UNL     1     141.019 166.739 192.870  0.00  0.00    +0.052 HD
ENDBRANCH 158 159
ENDBRANCH 145 158
ENDBRANCH 138 143
ENDBRANCH 135 138
ENDBRANCH 129 135
ENDBRANCH 127 129
BRANCH 127 163
ATOM    163  O   UNL     1     148.664 168.160 186.465  0.00  0.00    -0.391 OA
ATOM    164  H   UNL     1     149.387 167.895 185.871  0.00  0.00    +0.210 HD
ENDBRANCH 127 163
ENDBRANCH 121 127
ENDBRANCH   1 121
BRANCH  41 165
ATOM    165  O   UNL     1     142.743 169.625 183.884  0.00  0.00    -0.391 OA
ATOM    166  H   UNL     1     142.434 168.698 183.818  0.00  0.00    +0.210 HD
ENDBRANCH  41 165
BRANCH  39 167
ATOM    167  O   UNL     1     141.952 171.133 186.309  0.00  0.00    -0.391 OA
ATOM    168  H   UNL     1     142.040 172.106 186.292  0.00  0.00    +0.210 HD
ENDBRANCH  39 167
BRANCH  31 169
ATOM    169  O   UNL     1     150.498 171.840 192.073  0.00  0.00    -0.391 OA
ATOM    170  H   UNL     1     150.076 172.677 191.815  0.00  0.00    +0.210 HD
ENDBRANCH  31 169
BRANCH  22 171
ATOM    171  C   UNL     1     146.223 162.117 189.633  0.00  0.00    +0.020 C 
ATOM    172  H   UNL     1     145.808 161.950 190.632  0.00  0.00    +0.036 HD
BRANCH 171 173
ATOM    173  C   UNL     1     145.755 163.489 189.139  0.00  0.00    -0.057 C 
ATOM    174  H   UNL     1     144.861 163.813 189.673  0.00  0.00    +0.023 HD
ATOM    175  H   UNL     1     145.521 163.476 188.070  0.00  0.00    +0.023 HD
ATOM    176  H   UNL     1     146.525 164.253 189.277  0.00  0.00    +0.023 HD
ENDBRANCH 171 173
BRANCH 171 177
ATOM    177  C   UNL     1     145.693 160.971 188.731  0.00  0.00    +0.064 C 
ATOM    178  H   UNL     1     146.415 160.148 188.746  0.00  0.00    +0.060 HD
BRANCH 177 179
ATOM    179  O   UNL     1     144.477 160.493 189.309  0.00  0.00    -0.391 OA
ATOM    180  H   UNL     1     144.318 159.602 188.923  0.00  0.00    +0.210 HD
ENDBRANCH 177 179
BRANCH 177 181
ATOM    181  C   UNL     1     145.435 161.306 187.235  0.00  0.00    -0.017 C 
ATOM    182  H   UNL     1     145.771 162.336 187.058  0.00  0.00    +0.032 HD
BRANCH 181 183
ATOM    183  C   UNL     1     146.307 160.392 186.354  0.00  0.00    -0.060 C 
ATOM    184  H   UNL     1     147.114 160.953 185.870  0.00  0.00    +0.023 HD
ATOM    185  H   UNL     1     146.757 159.582 186.934  0.00  0.00    +0.023 HD
ATOM    186  H   UNL     1     145.713 159.924 185.568  0.00  0.00    +0.023 HD
ENDBRANCH 181 183
BRANCH 181 187
ATOM    187  C   UNL     1     143.953 161.192 186.809  0.00  0.00    -0.046 C 
ATOM    188  H   UNL     1     143.434 160.466 187.443  0.00  0.00    +0.027 HD
ATOM    189  H   UNL     1     143.895 160.813 185.781  0.00  0.00    +0.027 HD
BRANCH 187 190
ATOM    190  C   UNL     1     143.204 162.532 186.920  0.00  0.00    -0.026 C 
ATOM    191  H   UNL     1     143.910 163.355 186.787  0.00  0.00    +0.029 HD
ATOM    192  H   UNL     1     142.795 162.631 187.933  0.00  0.00    +0.029 HD
BRANCH 190 193
ATOM    193  C   UNL     1     142.058 162.665 185.901  0.00  0.00    +0.061 C 
ATOM    194  O   UNL     1     142.052 163.936 185.244  0.00  0.00    -0.373 OA
ATOM    195  C   UNL     1     141.690 165.042 186.075  0.00  0.00    +0.059 C 
ATOM    196  C   UNL     1     140.298 164.847 186.671  0.00  0.00    -0.000 C 
ATOM    197  C   UNL     1     140.209 163.517 187.421  0.00  0.00    +0.063 C 
ATOM    198  C   UNL     1     140.686 162.382 186.514  0.00  0.00    -0.000 C 
ATOM    199  H   UNL     1     142.230 161.919 185.116  0.00  0.00    +0.060 HD
ATOM    200  H   UNL     1     142.434 165.157 186.871  0.00  0.00    +0.059 HD
ATOM    201  H   UNL     1     139.539 164.855 185.878  0.00  0.00    +0.032 HD
ATOM    202  H   UNL     1     140.056 165.683 187.337  0.00  0.00    +0.032 HD
ATOM    203  H   UNL     1     140.835 163.547 188.321  0.00  0.00    +0.060 HD
ATOM    204  H   UNL     1     139.952 162.257 185.705  0.00  0.00    +0.032 HD
ATOM    205  H   UNL     1     140.684 161.433 187.064  0.00  0.00    +0.032 HD
BRANCH 195 206
ATOM    206  C   UNL     1     141.737 166.296 185.208  0.00  0.00    -0.039 C 
ATOM    207  H   UNL     1     140.775 166.818 185.241  0.00  0.00    +0.025 HD
ATOM    208  H   UNL     1     141.965 166.048 184.166  0.00  0.00    +0.025 HD
ATOM    209  H   UNL     1     142.491 167.000 185.577  0.00  0.00    +0.025 HD
ENDBRANCH 195 206
BRANCH 197 210
ATOM    210  O   UNL     1     138.860 163.217 187.802  0.00  0.00    -0.380 OA
BRANCH 210 211
ATOM    211  C   UNL     1     137.880 163.909 187.038  0.00  0.00    +0.037 C 
ATOM    212  H   UNL     1     137.833 164.940 187.402  0.00  0.00    +0.052 HD
ATOM    213  H   UNL     1     136.893 163.458 187.168  0.00  0.00    +0.052 HD
ATOM    214  H   UNL     1     138.154 163.925 185.979  0.00  0.00    +0.052 HD
ENDBRANCH 210 211
ENDBRANCH 197 210
ENDBRANCH 190 193
ENDBRANCH 187 190
ENDBRANCH 181 187
ENDBRANCH 177 181
ENDBRANCH 171 177
ENDBRANCH  22 171
BRANCH  20 215
ATOM    215  O   UNL     1     150.405 161.863 191.430  0.00  0.00    -0.391 OA
ATOM    216  H   UNL     1     150.686 162.534 190.781  0.00  0.00    +0.210 HD
ENDBRANCH  20 215
BRANCH  18 217
ATOM    217  O   UNL     1     152.729 161.514 190.177  0.00  0.00    -0.391 OA
ATOM    218  H   UNL     1     152.005 162.099 190.482  0.00  0.00    +0.210 HD
ENDBRANCH  18 217
BRANCH  10 219
ATOM    219  O   UNL     1     148.804 159.327 181.672  0.00  0.00    -0.391 OA
ATOM    220  H   UNL     1     148.944 158.917 180.799  0.00  0.00    +0.210 HD
ENDBRANCH  10 219
BRANCH  37 221
ATOM    221  O   UNL     1     143.379 173.512 188.391  0.00  0.00    -0.379 OA
BRANCH 221 222
ATOM    222  C   UNL     1     142.939 174.472 187.439  0.00  0.00    +0.037 C 
ATOM    223  H   UNL     1     141.878 174.663 187.619  0.00  0.00    +0.052 HD
ATOM    224  H   UNL     1     143.478 175.414 187.553  0.00  0.00    +0.052 HD
ATOM    225  H   UNL     1     143.056 174.090 186.421  0.00  0.00    +0.052 HD
ENDBRANCH 221 222
ENDBRANCH  37 221
BRANCH  16 226
ATOM    226  O   UNL     1     154.215 161.727 186.932  0.00  0.00    -0.379 OA
BRANCH 226 227
ATOM    227  C   UNL     1     154.528 163.003 187.477  0.00  0.00    +0.037 C 
ATOM    228  H   UNL     1     154.171 163.101 188.508  0.00  0.00    +0.052 HD
ATOM    229  H   UNL     1     154.087 163.787 186.852  0.00  0.00    +0.052 HD
ATOM    230  H   UNL     1     155.616 163.124 187.475  0.00  0.00    +0.052 HD
ENDBRANCH 226 227
ENDBRANCH  16 226
TORSDOF 40
ENDMDL
MODEL 9
REMARK VINA RESULT:      -4.2      3.384     11.560
REMARK  Name = Swinholide A_conf1
REMARK  40 active torsions:
REMARK  status: ('A' for Active; 'I' for Inactive)
REMARK    1  A    between atoms: C_1  and  C_2
REMARK    2  A    between atoms: C_4  and  C_10
REMARK    3  A    between atoms: C_6  and  O_8
REMARK    4  A    between atoms: O_8  and  C_9
REMARK    5  A    between atoms: C_10  and  C_11
REMARK    6  A    between atoms: C_11  and  C_12
REMARK    7  A    between atoms: C_12  and  C_13
REMARK    8  A    between atoms: C_12  and  C_98
REMARK    9  A    between atoms: C_13  and  O_14
REMARK   10  A    between atoms: C_13  and  C_15
REMARK   11  A    between atoms: C_15  and  C_16
REMARK   12  A    between atoms: C_15  and  C_97
REMARK   13  A    between atoms: C_22  and  C_96
REMARK   14  A    between atoms: C_25  and  O_95
REMARK   15  A    between atoms: C_31  and  O_90
REMARK   16  A    between atoms: C_32  and  C_89
REMARK   17  A    between atoms: C_33  and  O_88
REMARK   18  A    between atoms: C_35  and  O_87
REMARK   19  A    between atoms: C_36  and  C_86
REMARK   20  A    between atoms: C_37  and  C_69
REMARK   21  A    between atoms: C_43  and  C_68
REMARK   22  A    between atoms: C_46  and  O_67
REMARK   23  A    between atoms: C_52  and  O_62
REMARK   24  A    between atoms: C_53  and  C_61
REMARK   25  A    between atoms: C_54  and  O_60
REMARK   26  A    between atoms: C_56  and  O_59
REMARK   27  A    between atoms: C_57  and  C_58
REMARK   28  A    between atoms: O_62  and  C_63
REMARK   29  A    between atoms: C_69  and  C_70
REMARK   30  A    between atoms: C_69  and  C_85
REMARK   31  A    between atoms: C_70  and  O_71
REMARK   32  A    between atoms: C_70  and  C_72
REMARK   33  A    between atoms: C_72  and  C_73
REMARK   34  A    between atoms: C_72  and  C_84
REMARK   35  A    between atoms: C_73  and  C_74
REMARK   36  A    between atoms: C_74  and  C_75
REMARK   37  A    between atoms: C_77  and  C_83
REMARK   38  A    between atoms: C_79  and  O_81
REMARK   39  A    between atoms: O_81  and  C_82
REMARK   40  A    between atoms: O_90  and  C_91
REMARK                            x       y       z     vdW  Elec       q    Type
REMARK                         _______ _______ _______ _____ _____    ______ ____
ROOT
ATOM      1  C   UNL     1     153.300 165.710 180.767  0.00  0.00    +0.113 C 
ATOM      2  O   UNL     1     152.013 165.814 181.436  0.00  0.00    -0.458 OA
ATOM      3  C   UNL     1     150.918 165.575 180.663  0.00  0.00    +0.332 C 
ATOM      4  O   UNL     1     150.921 165.327 179.462  0.00  0.00    -0.246 OA
ATOM      5  C   UNL     1     149.657 165.645 181.416  0.00  0.00    +0.023 C 
ATOM      6  C   UNL     1     149.549 165.450 182.738  0.00  0.00    -0.052 C 
ATOM      7  C   UNL     1     148.285 165.383 183.467  0.00  0.00    -0.054 C 
ATOM      8  C   UNL     1     147.231 164.692 182.986  0.00  0.00    -0.079 C 
ATOM      9  C   UNL     1     145.966 164.366 183.740  0.00  0.00    -0.008 C 
ATOM     10  C   UNL     1     145.314 163.026 183.348  0.00  0.00    +0.061 C 
ATOM     11  C   UNL     1     146.214 161.789 183.215  0.00  0.00    +0.003 C 
ATOM     12  C   UNL     1     146.852 161.200 184.487  0.00  0.00    +0.080 C 
ATOM     13  O   UNL     1     147.243 159.860 184.096  0.00  0.00    -0.369 OA
ATOM     14  C   UNL     1     148.329 159.263 184.824  0.00  0.00    +0.065 C 
ATOM     15  C   UNL     1     147.912 158.941 186.275  0.00  0.00    +0.000 C 
ATOM     16  C   UNL     1     148.977 158.150 187.065  0.00  0.00    +0.066 C 
ATOM     17  C   UNL     1     148.502 157.935 188.535  0.00  0.00    +0.009 C 
ATOM     18  C   UNL     1     149.500 158.502 189.578  0.00  0.00    +0.063 C 
ATOM     19  C   UNL     1     149.624 160.041 189.528  0.00  0.00    -0.000 C 
ATOM     20  C   UNL     1     150.442 160.582 190.719  0.00  0.00    +0.064 C 
ATOM     21  C   UNL     1     150.462 162.135 190.861  0.00  0.00    +0.020 C 
ATOM     22  C   UNL     1     151.012 162.879 189.603  0.00  0.00    +0.113 C 
ATOM     23  O   UNL     1     152.375 162.420 189.397  0.00  0.00    -0.458 OA
ATOM     24  C   UNL     1     152.711 162.071 188.127  0.00  0.00    +0.332 C 
ATOM     25  O   UNL     1     152.019 162.214 187.133  0.00  0.00    -0.246 OA
ATOM     26  C   UNL     1     154.084 161.518 188.127  0.00  0.00    +0.023 C 
ATOM     27  C   UNL     1     154.611 161.073 186.976  0.00  0.00    -0.052 C 
ATOM     28  C   UNL     1     155.951 160.529 186.801  0.00  0.00    -0.054 C 
ATOM     29  C   UNL     1     157.043 161.200 187.225  0.00  0.00    -0.079 C 
ATOM     30  C   UNL     1     158.482 160.791 187.075  0.00  0.00    -0.008 C 
ATOM     31  C   UNL     1     159.270 161.564 185.990  0.00  0.00    +0.061 C 
ATOM     32  C   UNL     1     159.730 162.960 186.461  0.00  0.00    +0.003 C 
ATOM     33  C   UNL     1     160.738 163.630 185.499  0.00  0.00    +0.080 C 
ATOM     34  O   UNL     1     160.078 164.236 184.376  0.00  0.00    -0.369 OA
ATOM     35  C   UNL     1     159.825 165.657 184.458  0.00  0.00    +0.065 C 
ATOM     36  C   UNL     1     159.211 166.045 183.101  0.00  0.00    +0.000 C 
ATOM     37  C   UNL     1     158.739 167.501 182.871  0.00  0.00    +0.066 C 
ATOM     38  C   UNL     1     157.584 167.907 183.838  0.00  0.00    +0.009 C 
ATOM     39  C   UNL     1     156.382 168.594 183.130  0.00  0.00    +0.063 C 
ATOM     40  C   UNL     1     155.886 167.861 181.873  0.00  0.00    -0.000 C 
ATOM     41  C   UNL     1     154.363 167.982 181.675  0.00  0.00    +0.064 C 
ATOM     42  C   UNL     1     153.890 167.132 180.458  0.00  0.00    +0.020 C 
ATOM     43  C   UNL     1     161.116 166.433 184.753  0.00  0.00    -0.008 C 
ATOM     44  C   UNL     1     161.843 165.848 185.918  0.00  0.00    -0.083 C 
ATOM     45  C   UNL     1     161.659 164.567 186.244  0.00  0.00    -0.059 C 
ATOM     46  C   UNL     1     149.576 160.151 184.673  0.00  0.00    -0.008 C 
ATOM     47  C   UNL     1     149.269 161.557 185.072  0.00  0.00    -0.083 C 
ATOM     48  C   UNL     1     148.012 162.014 185.009  0.00  0.00    -0.059 C 
ATOM     49  H   UNL     1     153.139 165.263 179.774  0.00  0.00    +0.074 HD
ATOM     50  H   UNL     1     148.782 165.781 180.789  0.00  0.00    +0.069 HD
ATOM     51  H   UNL     1     150.431 165.280 183.351  0.00  0.00    +0.062 HD
ATOM     52  H   UNL     1     147.298 164.251 181.992  0.00  0.00    +0.058 HD
ATOM     53  H   UNL     1     146.123 164.379 184.824  0.00  0.00    +0.033 HD
ATOM     54  H   UNL     1     145.237 165.164 183.544  0.00  0.00    +0.033 HD
ATOM     55  H   UNL     1     144.840 163.181 182.370  0.00  0.00    +0.060 HD
ATOM     56  H   UNL     1     146.994 161.961 182.462  0.00  0.00    +0.032 HD
ATOM     57  H   UNL     1     145.588 160.996 182.781  0.00  0.00    +0.032 HD
ATOM     58  H   UNL     1     146.098 161.094 185.275  0.00  0.00    +0.064 HD
ATOM     59  H   UNL     1     148.534 158.316 184.311  0.00  0.00    +0.060 HD
ATOM     60  H   UNL     1     146.985 158.352 186.228  0.00  0.00    +0.032 HD
ATOM     61  H   UNL     1     147.659 159.861 186.817  0.00  0.00    +0.032 HD
ATOM     62  H   UNL     1     149.909 158.723 187.050  0.00  0.00    +0.060 HD
ATOM     63  H   UNL     1     147.564 158.488 188.688  0.00  0.00    +0.035 HD
ATOM     64  H   UNL     1     149.152 158.219 190.579  0.00  0.00    +0.060 HD
ATOM     65  H   UNL     1     150.131 160.324 188.599  0.00  0.00    +0.032 HD
ATOM     66  H   UNL     1     148.622 160.486 189.527  0.00  0.00    +0.032 HD
ATOM     67  H   UNL     1     150.025 160.168 191.647  0.00  0.00    +0.060 HD
ATOM     68  H   UNL     1     151.149 162.341 191.692  0.00  0.00    +0.036 HD
ATOM     69  H   UNL     1     150.375 162.585 188.761  0.00  0.00    +0.074 HD
ATOM     70  H   UNL     1     154.619 161.488 189.067  0.00  0.00    +0.069 HD
ATOM     71  H   UNL     1     154.006 161.103 186.068  0.00  0.00    +0.062 HD
ATOM     72  H   UNL     1     156.907 162.143 187.750  0.00  0.00    +0.058 HD
ATOM     73  H   UNL     1     158.980 160.915 188.046  0.00  0.00    +0.033 HD
ATOM     74  H   UNL     1     158.560 159.715 186.881  0.00  0.00    +0.033 HD
ATOM     75  H   UNL     1     158.681 161.659 185.071  0.00  0.00    +0.060 HD
ATOM     76  H   UNL     1     160.207 162.835 187.442  0.00  0.00    +0.032 HD
ATOM     77  H   UNL     1     158.853 163.604 186.598  0.00  0.00    +0.032 HD
ATOM     78  H   UNL     1     161.392 162.865 185.066  0.00  0.00    +0.064 HD
ATOM     79  H   UNL     1     159.094 165.815 185.258  0.00  0.00    +0.060 HD
ATOM     80  H   UNL     1     158.354 165.379 182.918  0.00  0.00    +0.032 HD
ATOM     81  H   UNL     1     159.931 165.777 182.318  0.00  0.00    +0.032 HD
ATOM     82  H   UNL     1     158.359 167.521 181.845  0.00  0.00    +0.060 HD
ATOM     83  H   UNL     1     157.167 166.985 184.258  0.00  0.00    +0.035 HD
ATOM     84  H   UNL     1     155.569 168.639 183.866  0.00  0.00    +0.060 HD
ATOM     85  H   UNL     1     156.381 168.292 180.991  0.00  0.00    +0.032 HD
ATOM     86  H   UNL     1     156.171 166.814 181.918  0.00  0.00    +0.032 HD
ATOM     87  H   UNL     1     153.825 167.675 182.577  0.00  0.00    +0.060 HD
ATOM     88  H   UNL     1     154.762 166.972 179.808  0.00  0.00    +0.036 HD
ATOM     89  H   UNL     1     160.892 167.482 184.973  0.00  0.00    +0.033 HD
ATOM     90  H   UNL     1     161.793 166.408 183.891  0.00  0.00    +0.033 HD
ATOM     91  H   UNL     1     162.550 166.469 186.460  0.00  0.00    +0.057 HD
ATOM     92  H   UNL     1     162.224 164.145 187.073  0.00  0.00    +0.059 HD
ATOM     93  H   UNL     1     149.893 160.168 183.622  0.00  0.00    +0.033 HD
ATOM     94  H   UNL     1     150.415 159.766 185.255  0.00  0.00    +0.033 HD
ATOM     95  H   UNL     1     150.076 162.192 185.427  0.00  0.00    +0.057 HD
ATOM     96  H   UNL     1     147.807 163.017 185.364  0.00  0.00    +0.059 HD
ENDROOT
BRANCH  28  97
ATOM     97  C   UNL     1     155.980 159.237 186.024  0.00  0.00    -0.040 C 
ATOM     98  H   UNL     1     156.772 159.254 185.266  0.00  0.00    +0.028 HD
ATOM     99  H   UNL     1     155.022 159.086 185.514  0.00  0.00    +0.028 HD
ATOM    100  H   UNL     1     156.168 158.361 186.648  0.00  0.00    +0.028 HD
ENDBRANCH  28  97
BRANCH  21 101
ATOM    101  C   UNL     1     149.072 162.636 191.269  0.00  0.00    -0.057 C 
ATOM    102  H   UNL     1     148.312 162.367 190.527  0.00  0.00    +0.023 HD
ATOM    103  H   UNL     1     149.060 163.724 191.384  0.00  0.00    +0.023 HD
ATOM    104  H   UNL     1     148.768 162.216 192.234  0.00  0.00    +0.023 HD
ENDBRANCH  21 101
BRANCH  42 105
ATOM    105  C   UNL     1     152.880 167.916 179.588  0.00  0.00    -0.057 C 
ATOM    106  H   UNL     1     151.919 167.393 179.531  0.00  0.00    +0.023 HD
ATOM    107  H   UNL     1     152.703 168.923 179.982  0.00  0.00    +0.023 HD
ATOM    108  H   UNL     1     153.239 168.013 178.557  0.00  0.00    +0.023 HD
ENDBRANCH  42 105
BRANCH  17 109
ATOM    109  C   UNL     1     148.185 156.468 188.859  0.00  0.00    -0.058 C 
ATOM    110  H   UNL     1     147.239 156.143 188.417  0.00  0.00    +0.023 HD
ATOM    111  H   UNL     1     148.972 155.811 188.471  0.00  0.00    +0.023 HD
ATOM    112  H   UNL     1     148.135 156.309 189.941  0.00  0.00    +0.023 HD
ENDBRANCH  17 109
BRANCH  38 113
ATOM    113  C   UNL     1     158.055 168.776 185.016  0.00  0.00    -0.058 C 
ATOM    114  H   UNL     1     159.095 168.571 185.294  0.00  0.00    +0.023 HD
ATOM    115  H   UNL     1     157.433 168.617 185.902  0.00  0.00    +0.023 HD
ATOM    116  H   UNL     1     157.995 169.841 184.759  0.00  0.00    +0.023 HD
ENDBRANCH  38 113
BRANCH   7 117
ATOM    117  C   UNL     1     148.318 166.049 184.814  0.00  0.00    -0.040 C 
ATOM    118  H   UNL     1     147.917 165.382 185.585  0.00  0.00    +0.028 HD
ATOM    119  H   UNL     1     147.721 166.963 184.798  0.00  0.00    +0.028 HD
ATOM    120  H   UNL     1     149.332 166.309 185.128  0.00  0.00    +0.028 HD
ENDBRANCH   7 117
BRANCH   1 121
ATOM    121  C   UNL     1     154.169 164.623 181.502  0.00  0.00    +0.020 C 
ATOM    122  H   UNL     1     153.630 163.682 181.312  0.00  0.00    +0.036 HD
BRANCH 121 123
ATOM    123  C   UNL     1     155.535 164.520 180.797  0.00  0.00    -0.057 C 
ATOM    124  H   UNL     1     155.835 163.478 180.670  0.00  0.00    +0.023 HD
ATOM    125  H   UNL     1     156.325 165.034 181.347  0.00  0.00    +0.023 HD
ATOM    126  H   UNL     1     155.508 164.934 179.784  0.00  0.00    +0.023 HD
ENDBRANCH 121 123
BRANCH 121 127
ATOM    127  C   UNL     1     154.266 164.719 183.063  0.00  0.00    +0.064 C 
ATOM    128  H   UNL     1     155.112 165.351 183.316  0.00  0.00    +0.060 HD
BRANCH 127 129
ATOM    129  C   UNL     1     154.404 163.403 183.901  0.00  0.00    -0.017 C 
ATOM    130  H   UNL     1     153.850 163.543 184.839  0.00  0.00    +0.032 HD
BRANCH 129 131
ATOM    131  C   UNL     1     153.852 162.130 183.263  0.00  0.00    -0.060 C 
ATOM    132  H   UNL     1     152.759 162.128 183.274  0.00  0.00    +0.023 HD
ATOM    133  H   UNL     1     154.217 161.995 182.242  0.00  0.00    +0.023 HD
ATOM    134  H   UNL     1     154.157 161.245 183.837  0.00  0.00    +0.023 HD
ENDBRANCH 129 131
BRANCH 129 135
ATOM    135  C   UNL     1     155.892 163.135 184.276  0.00  0.00    -0.046 C 
ATOM    136  H   UNL     1     156.434 162.775 183.395  0.00  0.00    +0.027 HD
ATOM    137  H   UNL     1     155.932 162.314 184.996  0.00  0.00    +0.027 HD
BRANCH 135 138
ATOM    138  C   UNL     1     156.616 164.333 184.891  0.00  0.00    -0.026 C 
ATOM    139  H   UNL     1     156.673 165.138 184.154  0.00  0.00    +0.029 HD
ATOM    140  H   UNL     1     157.650 164.063 185.119  0.00  0.00    +0.029 HD
BRANCH 138 143
ATOM    141  C   UNL     1     154.682 166.722 187.010  0.00  0.00    +0.059 C 
ATOM    142  O   UNL     1     155.503 166.202 185.953  0.00  0.00    -0.373 OA
ATOM    143  C   UNL     1     155.938 164.856 186.168  0.00  0.00    +0.061 C 
ATOM    144  C   UNL     1     156.882 164.814 187.370  0.00  0.00    -0.000 C 
ATOM    145  C   UNL     1     156.518 165.841 188.449  0.00  0.00    +0.063 C 
ATOM    146  C   UNL     1     155.029 166.149 188.385  0.00  0.00    -0.000 C 
ATOM    147  H   UNL     1     154.881 167.800 187.029  0.00  0.00    +0.059 HD
ATOM    148  H   UNL     1     155.051 164.247 186.374  0.00  0.00    +0.060 HD
ATOM    149  H   UNL     1     156.894 163.801 187.781  0.00  0.00    +0.032 HD
ATOM    150  H   UNL     1     157.914 165.022 187.061  0.00  0.00    +0.032 HD
ATOM    151  H   UNL     1     157.098 166.757 188.271  0.00  0.00    +0.060 HD
ATOM    152  H   UNL     1     154.466 165.228 188.588  0.00  0.00    +0.032 HD
ATOM    153  H   UNL     1     154.720 166.853 189.166  0.00  0.00    +0.032 HD
BRANCH 141 154
ATOM    154  C   UNL     1     153.208 166.524 186.674  0.00  0.00    -0.039 C 
ATOM    155  H   UNL     1     152.900 167.165 185.844  0.00  0.00    +0.025 HD
ATOM    156  H   UNL     1     153.004 165.483 186.403  0.00  0.00    +0.025 HD
ATOM    157  H   UNL     1     152.579 166.789 187.529  0.00  0.00    +0.025 HD
ENDBRANCH 141 154
BRANCH 145 158
ATOM    158  O   UNL     1     156.895 165.284 189.713  0.00  0.00    -0.380 OA
BRANCH 158 159
ATOM    159  C   UNL     1     157.286 163.918 189.640  0.00  0.00    +0.037 C 
ATOM    160  H   UNL     1     158.339 163.881 189.349  0.00  0.00    +0.052 HD
ATOM    161  H   UNL     1     156.706 163.391 188.877  0.00  0.00    +0.052 HD
ATOM    162  H   UNL     1     157.175 163.421 190.608  0.00  0.00    +0.052 HD
ENDBRANCH 158 159
ENDBRANCH 145 158
ENDBRANCH 138 143
ENDBRANCH 135 138
ENDBRANCH 129 135
ENDBRANCH 127 129
BRANCH 127 163
ATOM    163  O   UNL     1     153.122 165.388 183.611  0.00  0.00    -0.391 OA
ATOM    164  H   UNL     1     152.746 164.846 184.325  0.00  0.00    +0.210 HD
ENDBRANCH 127 163
ENDBRANCH 121 127
ENDBRANCH   1 121
BRANCH  41 165
ATOM    165  O   UNL     1     154.058 169.365 181.466  0.00  0.00    -0.391 OA
ATOM    166  H   UNL     1     153.229 169.435 180.948  0.00  0.00    +0.210 HD
ENDBRANCH  41 165
BRANCH  39 167
ATOM    167  O   UNL     1     156.658 169.945 182.763  0.00  0.00    -0.391 OA
ATOM    168  H   UNL     1     156.115 170.164 181.982  0.00  0.00    +0.210 HD
ENDBRANCH  39 167
BRANCH  31 169
ATOM    169  O   UNL     1     160.431 160.779 185.682  0.00  0.00    -0.391 OA
ATOM    170  H   UNL     1     160.238 159.863 185.946  0.00  0.00    +0.210 HD
ENDBRANCH  31 169
BRANCH  22 171
ATOM    171  C   UNL     1     150.991 164.445 189.707  0.00  0.00    +0.020 C 
ATOM    172  H   UNL     1     150.370 164.693 190.574  0.00  0.00    +0.036 HD
BRANCH 171 173
ATOM    173  C   UNL     1     152.391 165.022 189.934  0.00  0.00    -0.057 C 
ATOM    174  H   UNL     1     152.594 165.149 190.998  0.00  0.00    +0.023 HD
ATOM    175  H   UNL     1     152.510 165.997 189.451  0.00  0.00    +0.023 HD
ATOM    176  H   UNL     1     153.167 164.375 189.518  0.00  0.00    +0.023 HD
ENDBRANCH 171 173
BRANCH 171 177
ATOM    177  C   UNL     1     150.303 165.079 188.469  0.00  0.00    +0.064 C 
ATOM    178  H   UNL     1     151.050 165.641 187.898  0.00  0.00    +0.060 HD
BRANCH 177 179
ATOM    179  O   UNL     1     149.836 164.014 187.639  0.00  0.00    -0.391 OA
ATOM    180  H   UNL     1     148.863 164.132 187.558  0.00  0.00    +0.210 HD
ENDBRANCH 177 179
BRANCH 177 181
ATOM    181  C   UNL     1     149.123 166.057 188.734  0.00  0.00    -0.017 C 
ATOM    182  H   UNL     1     148.971 166.655 187.826  0.00  0.00    +0.032 HD
BRANCH 181 183
ATOM    183  C   UNL     1     147.834 165.245 188.959  0.00  0.00    -0.060 C 
ATOM    184  H   UNL     1     147.118 165.396 188.144  0.00  0.00    +0.023 HD
ATOM    185  H   UNL     1     148.040 164.174 189.036  0.00  0.00    +0.023 HD
ATOM    186  H   UNL     1     147.344 165.539 189.888  0.00  0.00    +0.023 HD
ENDBRANCH 181 183
BRANCH 181 187
ATOM    187  C   UNL     1     149.355 167.019 189.922  0.00  0.00    -0.046 C 
ATOM    188  H   UNL     1     148.930 168.003 189.697  0.00  0.00    +0.027 HD
ATOM    189  H   UNL     1     150.433 167.167 190.068  0.00  0.00    +0.027 HD
BRANCH 187 190
ATOM    190  C   UNL     1     148.710 166.515 191.224  0.00  0.00    -0.026 C 
ATOM    191  H   UNL     1     149.074 165.509 191.444  0.00  0.00    +0.029 HD
ATOM    192  H   UNL     1     147.626 166.430 191.077  0.00  0.00    +0.029 HD
BRANCH 190 193
ATOM    193  C   UNL     1     148.983 167.437 192.426  0.00  0.00    +0.061 C 
ATOM    194  O   UNL     1     150.357 167.826 192.519  0.00  0.00    -0.373 OA
ATOM    195  C   UNL     1     151.257 166.776 192.882  0.00  0.00    +0.059 C 
ATOM    196  C   UNL     1     150.877 166.171 194.232  0.00  0.00    -0.000 C 
ATOM    197  C   UNL     1     149.423 165.698 194.227  0.00  0.00    +0.063 C 
ATOM    198  C   UNL     1     148.515 166.833 193.751  0.00  0.00    -0.000 C 
ATOM    199  H   UNL     1     148.417 168.361 192.265  0.00  0.00    +0.060 HD
ATOM    200  H   UNL     1     151.250 166.005 192.103  0.00  0.00    +0.059 HD
ATOM    201  H   UNL     1     151.004 166.913 195.031  0.00  0.00    +0.032 HD
ATOM    202  H   UNL     1     151.552 165.342 194.473  0.00  0.00    +0.032 HD
ATOM    203  H   UNL     1     149.307 164.839 193.556  0.00  0.00    +0.060 HD
ATOM    204  H   UNL     1     148.515 167.618 194.521  0.00  0.00    +0.032 HD
ATOM    205  H   UNL     1     147.477 166.484 193.685  0.00  0.00    +0.032 HD
BRANCH 195 206
ATOM    206  C   UNL     1     152.658 167.376 192.933  0.00  0.00    -0.039 C 
ATOM    207  H   UNL     1     152.833 167.853 193.903  0.00  0.00    +0.025 HD
ATOM    208  H   UNL     1     152.796 168.124 192.145  0.00  0.00    +0.025 HD
ATOM    209  H   UNL     1     153.422 166.599 192.820  0.00  0.00    +0.025 HD
ENDBRANCH 195 206
BRANCH 197 210
ATOM    210  O   UNL     1     148.985 165.326 195.540  0.00  0.00    -0.380 OA
BRANCH 210 211
ATOM    211  C   UNL     1     148.583 166.429 196.345  0.00  0.00    +0.037 C 
ATOM    212  H   UNL     1     147.595 166.753 196.003  0.00  0.00    +0.052 HD
ATOM    213  H   UNL     1     149.274 167.268 196.232  0.00  0.00    +0.052 HD
ATOM    214  H   UNL     1     148.508 166.135 197.396  0.00  0.00    +0.052 HD
ENDBRANCH 210 211
ENDBRANCH 197 210
ENDBRANCH 190 193
ENDBRANCH 187 190
ENDBRANCH 181 187
ENDBRANCH 177 181
ENDBRANCH 171 177
ENDBRANCH  22 171
BRANCH  20 215
ATOM    215  O   UNL     1     151.771 160.048 190.623  0.00  0.00    -0.391 OA
ATOM    216  H   UNL     1     152.062 159.821 191.525  0.00  0.00    +0.210 HD
ENDBRANCH  20 215
BRANCH  18 217
ATOM    217  O   UNL     1     150.783 157.900 189.398  0.00  0.00    -0.391 OA
ATOM    218  H   UNL     1     151.214 157.897 190.278  0.00  0.00    +0.210 HD
ENDBRANCH  18 217
BRANCH  10 219
ATOM    219  O   UNL     1     144.253 162.755 184.269  0.00  0.00    -0.391 OA
ATOM    220  H   UNL     1     143.424 163.056 183.854  0.00  0.00    +0.210 HD
ENDBRANCH  10 219
BRANCH  37 221
ATOM    221  O   UNL     1     159.790 168.465 182.933  0.00  0.00    -0.379 OA
BRANCH 221 222
ATOM    222  C   UNL     1     159.995 169.190 181.728  0.00  0.00    +0.037 C 
ATOM    223  H   UNL     1     159.871 168.496 180.892  0.00  0.00    +0.052 HD
ATOM    224  H   UNL     1     159.257 169.988 181.618  0.00  0.00    +0.052 HD
ATOM    225  H   UNL     1     161.007 169.603 181.690  0.00  0.00    +0.052 HD
ENDBRANCH 221 222
ENDBRANCH  37 221
BRANCH  16 226
ATOM    226  O   UNL     1     149.160 156.906 186.372  0.00  0.00    -0.379 OA
BRANCH 226 227
ATOM    227  C   UNL     1     150.525 156.635 186.076  0.00  0.00    +0.037 C 
ATOM    228  H   UNL     1     150.634 155.744 185.450  0.00  0.00    +0.052 HD
ATOM    229  H   UNL     1     151.085 156.509 187.010  0.00  0.00    +0.052 HD
ATOM    230  H   UNL     1     150.938 157.491 185.534  0.00  0.00    +0.052 HD
ENDBRANCH 226 227
ENDBRANCH  16 226
TORSDOF 40
ENDMDL
MODEL 10
REMARK VINA RESULT:      -4.1      2.814     10.654
REMARK  Name = Swinholide A_conf1
REMARK  40 active torsions:
REMARK  status: ('A' for Active; 'I' for Inactive)
REMARK    1  A    between atoms: C_1  and  C_2
REMARK    2  A    between atoms: C_4  and  C_10
REMARK    3  A    between atoms: C_6  and  O_8
REMARK    4  A    between atoms: O_8  and  C_9
REMARK    5  A    between atoms: C_10  and  C_11
REMARK    6  A    between atoms: C_11  and  C_12
REMARK    7  A    between atoms: C_12  and  C_13
REMARK    8  A    between atoms: C_12  and  C_98
REMARK    9  A    between atoms: C_13  and  O_14
REMARK   10  A    between atoms: C_13  and  C_15
REMARK   11  A    between atoms: C_15  and  C_16
REMARK   12  A    between atoms: C_15  and  C_97
REMARK   13  A    between atoms: C_22  and  C_96
REMARK   14  A    between atoms: C_25  and  O_95
REMARK   15  A    between atoms: C_31  and  O_90
REMARK   16  A    between atoms: C_32  and  C_89
REMARK   17  A    between atoms: C_33  and  O_88
REMARK   18  A    between atoms: C_35  and  O_87
REMARK   19  A    between atoms: C_36  and  C_86
REMARK   20  A    between atoms: C_37  and  C_69
REMARK   21  A    between atoms: C_43  and  C_68
REMARK   22  A    between atoms: C_46  and  O_67
REMARK   23  A    between atoms: C_52  and  O_62
REMARK   24  A    between atoms: C_53  and  C_61
REMARK   25  A    between atoms: C_54  and  O_60
REMARK   26  A    between atoms: C_56  and  O_59
REMARK   27  A    between atoms: C_57  and  C_58
REMARK   28  A    between atoms: O_62  and  C_63
REMARK   29  A    between atoms: C_69  and  C_70
REMARK   30  A    between atoms: C_69  and  C_85
REMARK   31  A    between atoms: C_70  and  O_71
REMARK   32  A    between atoms: C_70  and  C_72
REMARK   33  A    between atoms: C_72  and  C_73
REMARK   34  A    between atoms: C_72  and  C_84
REMARK   35  A    between atoms: C_73  and  C_74
REMARK   36  A    between atoms: C_74  and  C_75
REMARK   37  A    between atoms: C_77  and  C_83
REMARK   38  A    between atoms: C_79  and  O_81
REMARK   39  A    between atoms: O_81  and  C_82
REMARK   40  A    between atoms: O_90  and  C_91
REMARK                            x       y       z     vdW  Elec       q    Type
REMARK                         _______ _______ _______ _____ _____    ______ ____
ROOT
ATOM      1  C   UNL     1     150.393 166.086 190.506  0.00  0.00    +0.113 C 
ATOM      2  O   UNL     1     149.137 166.806 190.647  0.00  0.00    -0.458 OA
ATOM      3  C   UNL     1     149.220 168.046 191.205  0.00  0.00    +0.332 C 
ATOM      4  O   UNL     1     150.237 168.580 191.632  0.00  0.00    -0.246 OA
ATOM      5  C   UNL     1     147.922 168.736 191.266  0.00  0.00    +0.023 C 
ATOM      6  C   UNL     1     146.884 168.477 190.458  0.00  0.00    -0.052 C 
ATOM      7  C   UNL     1     145.646 169.249 190.425  0.00  0.00    -0.054 C 
ATOM      8  C   UNL     1     145.657 170.598 190.459  0.00  0.00    -0.079 C 
ATOM      9  C   UNL     1     144.474 171.500 190.207  0.00  0.00    -0.008 C 
ATOM     10  C   UNL     1     144.826 172.850 189.553  0.00  0.00    +0.061 C 
ATOM     11  C   UNL     1     145.789 172.851 188.357  0.00  0.00    +0.003 C 
ATOM     12  C   UNL     1     145.313 172.239 187.026  0.00  0.00    +0.080 C 
ATOM     13  O   UNL     1     146.233 172.776 186.043  0.00  0.00    -0.369 OA
ATOM     14  C   UNL     1     146.429 172.003 184.848  0.00  0.00    +0.065 C 
ATOM     15  C   UNL     1     145.160 172.008 183.969  0.00  0.00    +0.000 C 
ATOM     16  C   UNL     1     145.355 171.333 182.594  0.00  0.00    +0.066 C 
ATOM     17  C   UNL     1     144.008 171.320 181.808  0.00  0.00    +0.009 C 
ATOM     18  C   UNL     1     143.562 169.892 181.401  0.00  0.00    +0.063 C 
ATOM     19  C   UNL     1     143.210 168.996 182.610  0.00  0.00    -0.000 C 
ATOM     20  C   UNL     1     142.560 167.671 182.161  0.00  0.00    +0.064 C 
ATOM     21  C   UNL     1     141.996 166.783 183.314  0.00  0.00    +0.020 C 
ATOM     22  C   UNL     1     143.060 166.386 184.385  0.00  0.00    +0.113 C 
ATOM     23  O   UNL     1     144.099 165.639 183.698  0.00  0.00    -0.458 OA
ATOM     24  C   UNL     1     145.383 165.991 183.976  0.00  0.00    +0.332 C 
ATOM     25  O   UNL     1     145.743 166.789 184.824  0.00  0.00    -0.246 OA
ATOM     26  C   UNL     1     146.294 165.216 183.103  0.00  0.00    +0.023 C 
ATOM     27  C   UNL     1     147.616 165.431 183.182  0.00  0.00    -0.052 C 
ATOM     28  C   UNL     1     148.644 164.736 182.419  0.00  0.00    -0.054 C 
ATOM     29  C   UNL     1     148.705 163.388 182.387  0.00  0.00    -0.079 C 
ATOM     30  C   UNL     1     149.727 162.536 181.686  0.00  0.00    -0.008 C 
ATOM     31  C   UNL     1     150.776 161.879 182.616  0.00  0.00    +0.061 C 
ATOM     32  C   UNL     1     150.241 160.622 183.334  0.00  0.00    +0.003 C 
ATOM     33  C   UNL     1     151.343 159.808 184.047  0.00  0.00    +0.080 C 
ATOM     34  O   UNL     1     151.685 160.379 185.322  0.00  0.00    -0.369 OA
ATOM     35  C   UNL     1     151.059 159.794 186.486  0.00  0.00    +0.065 C 
ATOM     36  C   UNL     1     151.674 160.524 187.694  0.00  0.00    +0.000 C 
ATOM     37  C   UNL     1     151.164 160.197 189.118  0.00  0.00    +0.066 C 
ATOM     38  C   UNL     1     149.657 160.553 189.301  0.00  0.00    +0.009 C 
ATOM     39  C   UNL     1     149.354 161.362 190.594  0.00  0.00    +0.063 C 
ATOM     40  C   UNL     1     150.289 162.561 190.822  0.00  0.00    -0.000 C 
ATOM     41  C   UNL     1     149.580 163.749 191.502  0.00  0.00    +0.064 C 
ATOM     42  C   UNL     1     150.532 164.977 191.609  0.00  0.00    +0.020 C 
ATOM     43  C   UNL     1     151.298 158.279 186.542  0.00  0.00    -0.008 C 
ATOM     44  C   UNL     1     150.954 157.631 185.242  0.00  0.00    -0.083 C 
ATOM     45  C   UNL     1     150.980 158.343 184.113  0.00  0.00    -0.059 C 
ATOM     46  C   UNL     1     146.961 170.613 185.238  0.00  0.00    -0.008 C 
ATOM     47  C   UNL     1     146.062 169.971 186.243  0.00  0.00    -0.083 C 
ATOM     48  C   UNL     1     145.291 170.728 187.034  0.00  0.00    -0.059 C 
ATOM     49  H   UNL     1     151.217 166.784 190.719  0.00  0.00    +0.074 HD
ATOM     50  H   UNL     1     147.898 169.556 191.977  0.00  0.00    +0.069 HD
ATOM     51  H   UNL     1     146.933 167.674 189.726  0.00  0.00    +0.062 HD
ATOM     52  H   UNL     1     146.604 171.115 190.604  0.00  0.00    +0.058 HD
ATOM     53  H   UNL     1     143.704 171.006 189.604  0.00  0.00    +0.033 HD
ATOM     54  H   UNL     1     143.993 171.711 191.172  0.00  0.00    +0.033 HD
ATOM     55  H   UNL     1     145.290 173.467 190.334  0.00  0.00    +0.060 HD
ATOM     56  H   UNL     1     146.752 172.407 188.639  0.00  0.00    +0.032 HD
ATOM     57  H   UNL     1     146.026 173.906 188.150  0.00  0.00    +0.032 HD
ATOM     58  H   UNL     1     144.317 172.615 186.770  0.00  0.00    +0.064 HD
ATOM     59  H   UNL     1     147.226 172.519 184.298  0.00  0.00    +0.060 HD
ATOM     60  H   UNL     1     144.868 173.058 183.819  0.00  0.00    +0.032 HD
ATOM     61  H   UNL     1     144.324 171.534 184.497  0.00  0.00    +0.032 HD
ATOM     62  H   UNL     1     145.702 170.309 182.763  0.00  0.00    +0.060 HD
ATOM     63  H   UNL     1     143.212 171.705 182.464  0.00  0.00    +0.035 HD
ATOM     64  H   UNL     1     142.672 169.974 180.765  0.00  0.00    +0.060 HD
ATOM     65  H   UNL     1     144.131 168.765 183.157  0.00  0.00    +0.032 HD
ATOM     66  H   UNL     1     142.534 169.539 183.279  0.00  0.00    +0.032 HD
ATOM     67  H   UNL     1     141.729 167.902 181.482  0.00  0.00    +0.060 HD
ATOM     68  H   UNL     1     141.656 165.860 182.828  0.00  0.00    +0.036 HD
ATOM     69  H   UNL     1     143.462 167.321 184.791  0.00  0.00    +0.074 HD
ATOM     70  H   UNL     1     145.856 164.499 182.423  0.00  0.00    +0.069 HD
ATOM     71  H   UNL     1     147.991 166.191 183.869  0.00  0.00    +0.062 HD
ATOM     72  H   UNL     1     147.938 162.817 182.905  0.00  0.00    +0.058 HD
ATOM     73  H   UNL     1     149.198 161.755 181.122  0.00  0.00    +0.033 HD
ATOM     74  H   UNL     1     150.242 163.112 180.909  0.00  0.00    +0.033 HD
ATOM     75  H   UNL     1     151.149 162.597 183.355  0.00  0.00    +0.060 HD
ATOM     76  H   UNL     1     149.767 159.986 182.574  0.00  0.00    +0.032 HD
ATOM     77  H   UNL     1     149.464 160.916 184.050  0.00  0.00    +0.032 HD
ATOM     78  H   UNL     1     152.267 159.851 183.459  0.00  0.00    +0.064 HD
ATOM     79  H   UNL     1     149.987 160.009 186.426  0.00  0.00    +0.060 HD
ATOM     80  H   UNL     1     151.551 161.605 187.530  0.00  0.00    +0.032 HD
ATOM     81  H   UNL     1     152.760 160.370 187.661  0.00  0.00    +0.032 HD
ATOM     82  H   UNL     1     151.757 160.828 189.787  0.00  0.00    +0.060 HD
ATOM     83  H   UNL     1     149.375 161.225 188.483  0.00  0.00    +0.035 HD
ATOM     84  H   UNL     1     148.321 161.723 190.504  0.00  0.00    +0.060 HD
ATOM     85  H   UNL     1     151.121 162.245 191.467  0.00  0.00    +0.032 HD
ATOM     86  H   UNL     1     150.721 162.879 189.878  0.00  0.00    +0.032 HD
ATOM     87  H   UNL     1     148.672 164.025 190.959  0.00  0.00    +0.060 HD
ATOM     88  H   UNL     1     151.564 164.604 191.546  0.00  0.00    +0.036 HD
ATOM     89  H   UNL     1     150.691 157.823 187.330  0.00  0.00    +0.033 HD
ATOM     90  H   UNL     1     152.350 158.056 186.756  0.00  0.00    +0.033 HD
ATOM     91  H   UNL     1     150.728 156.569 185.230  0.00  0.00    +0.057 HD
ATOM     92  H   UNL     1     150.762 157.848 183.169  0.00  0.00    +0.059 HD
ATOM     93  H   UNL     1     147.953 170.712 185.697  0.00  0.00    +0.033 HD
ATOM     94  H   UNL     1     147.075 169.968 184.365  0.00  0.00    +0.033 HD
ATOM     95  H   UNL     1     146.033 168.887 186.308  0.00  0.00    +0.057 HD
ATOM     96  H   UNL     1     144.603 170.236 187.711  0.00  0.00    +0.059 HD
ENDROOT
BRANCH  28  97
ATOM     97  C   UNL     1     149.654 165.661 181.790  0.00  0.00    -0.040 C 
ATOM     98  H   UNL     1     149.268 166.082 180.854  0.00  0.00    +0.028 HD
ATOM     99  H   UNL     1     150.575 165.112 181.563  0.00  0.00    +0.028 HD
ATOM    100  H   UNL     1     149.919 166.510 182.424  0.00  0.00    +0.028 HD
ENDBRANCH  28  97
BRANCH  21 101
ATOM    101  C   UNL     1     140.771 167.462 183.938  0.00  0.00    -0.057 C 
ATOM    102  H   UNL     1     140.652 168.490 183.579  0.00  0.00    +0.023 HD
ATOM    103  H   UNL     1     140.848 167.493 185.029  0.00  0.00    +0.023 HD
ATOM    104  H   UNL     1     139.853 166.912 183.704  0.00  0.00    +0.023 HD
ENDBRANCH  21 101
BRANCH  42 105
ATOM    105  C   UNL     1     150.432 165.641 193.003  0.00  0.00    -0.057 C 
ATOM    106  H   UNL     1     149.433 165.507 193.433  0.00  0.00    +0.023 HD
ATOM    107  H   UNL     1     151.168 165.227 193.701  0.00  0.00    +0.023 HD
ATOM    108  H   UNL     1     150.596 166.723 192.937  0.00  0.00    +0.023 HD
ENDBRANCH  42 105
BRANCH  17 109
ATOM    109  C   UNL     1     144.019 172.236 180.575  0.00  0.00    -0.058 C 
ATOM    110  H   UNL     1     144.406 171.727 179.687  0.00  0.00    +0.023 HD
ATOM    111  H   UNL     1     143.004 172.577 180.342  0.00  0.00    +0.023 HD
ATOM    112  H   UNL     1     144.627 173.128 180.757  0.00  0.00    +0.023 HD
ENDBRANCH  17 109
BRANCH  38 113
ATOM    113  C   UNL     1     148.729 159.328 189.230  0.00  0.00    -0.058 C 
ATOM    114  H   UNL     1     149.176 158.441 189.693  0.00  0.00    +0.023 HD
ATOM    115  H   UNL     1     148.480 159.077 188.195  0.00  0.00    +0.023 HD
ATOM    116  H   UNL     1     147.788 159.526 189.756  0.00  0.00    +0.023 HD
ENDBRANCH  38 113
BRANCH   7 117
ATOM    117  C   UNL     1     144.408 168.416 190.242  0.00  0.00    -0.040 C 
ATOM    118  H   UNL     1     143.751 168.860 189.486  0.00  0.00    +0.028 HD
ATOM    119  H   UNL     1     143.859 168.344 191.183  0.00  0.00    +0.028 HD
ATOM    120  H   UNL     1     144.632 167.403 189.900  0.00  0.00    +0.028 HD
ENDBRANCH   7 117
BRANCH   1 121
ATOM    121  C   UNL     1     150.612 165.738 188.987  0.00  0.00    +0.020 C 
ATOM    122  H   UNL     1     150.495 166.707 188.476  0.00  0.00    +0.036 HD
BRANCH 121 123
ATOM    123  C   UNL     1     152.071 165.287 188.788  0.00  0.00    -0.057 C 
ATOM    124  H   UNL     1     152.661 165.449 189.692  0.00  0.00    +0.023 HD
ATOM    125  H   UNL     1     152.560 165.815 187.967  0.00  0.00    +0.023 HD
ATOM    126  H   UNL     1     152.147 164.214 188.587  0.00  0.00    +0.023 HD
ENDBRANCH 121 123
BRANCH 121 127
ATOM    127  C   UNL     1     149.558 164.799 188.308  0.00  0.00    +0.064 C 
ATOM    128  H   UNL     1     149.791 163.773 188.575  0.00  0.00    +0.060 HD
BRANCH 127 129
ATOM    129  C   UNL     1     149.386 164.845 186.752  0.00  0.00    -0.017 C 
ATOM    130  H   UNL     1     148.388 164.452 186.513  0.00  0.00    +0.032 HD
BRANCH 129 131
ATOM    131  C   UNL     1     149.473 166.223 186.099  0.00  0.00    -0.060 C 
ATOM    132  H   UNL     1     148.500 166.721 186.103  0.00  0.00    +0.023 HD
ATOM    133  H   UNL     1     150.221 166.856 186.582  0.00  0.00    +0.023 HD
ATOM    134  H   UNL     1     149.757 166.134 185.041  0.00  0.00    +0.023 HD
ENDBRANCH 129 131
BRANCH 129 135
ATOM    135  C   UNL     1     150.427 163.925 186.049  0.00  0.00    -0.046 C 
ATOM    136  H   UNL     1     149.927 163.027 185.667  0.00  0.00    +0.027 HD
ATOM    137  H   UNL     1     151.140 163.564 186.794  0.00  0.00    +0.027 HD
BRANCH 135 138
ATOM    138  C   UNL     1     151.221 164.603 184.932  0.00  0.00    -0.026 C 
ATOM    139  H   UNL     1     150.970 165.666 184.905  0.00  0.00    +0.029 HD
ATOM    140  H   UNL     1     150.915 164.199 183.963  0.00  0.00    +0.029 HD
BRANCH 138 143
ATOM    141  C   UNL     1     154.392 163.066 186.164  0.00  0.00    +0.059 C 
ATOM    142  O   UNL     1     153.009 163.440 186.077  0.00  0.00    -0.373 OA
ATOM    143  C   UNL     1     152.743 164.440 185.090  0.00  0.00    +0.061 C 
ATOM    144  C   UNL     1     153.413 165.751 185.501  0.00  0.00    -0.000 C 
ATOM    145  C   UNL     1     154.734 165.534 186.249  0.00  0.00    +0.063 C 
ATOM    146  C   UNL     1     155.352 164.208 185.829  0.00  0.00    -0.000 C 
ATOM    147  H   UNL     1     154.551 162.782 187.212  0.00  0.00    +0.059 HD
ATOM    148  H   UNL     1     153.163 164.092 184.140  0.00  0.00    +0.060 HD
ATOM    149  H   UNL     1     153.563 166.371 184.613  0.00  0.00    +0.032 HD
ATOM    150  H   UNL     1     152.759 166.331 186.162  0.00  0.00    +0.032 HD
ATOM    151  H   UNL     1     154.529 165.526 187.328  0.00  0.00    +0.060 HD
ATOM    152  H   UNL     1     155.572 164.244 184.753  0.00  0.00    +0.032 HD
ATOM    153  H   UNL     1     156.318 164.032 186.315  0.00  0.00    +0.032 HD
BRANCH 141 154
ATOM    154  C   UNL     1     154.658 161.837 185.301  0.00  0.00    -0.039 C 
ATOM    155  H   UNL     1     154.432 160.914 185.843  0.00  0.00    +0.025 HD
ATOM    156  H   UNL     1     154.053 161.861 184.389  0.00  0.00    +0.025 HD
ATOM    157  H   UNL     1     155.713 161.787 185.016  0.00  0.00    +0.025 HD
ENDBRANCH 141 154
BRANCH 145 158
ATOM    158  O   UNL     1     155.586 166.643 185.941  0.00  0.00    -0.380 OA
BRANCH 158 159
ATOM    159  C   UNL     1     156.972 166.327 185.988  0.00  0.00    +0.037 C 
ATOM    160  H   UNL     1     157.118 165.361 185.498  0.00  0.00    +0.052 HD
ATOM    161  H   UNL     1     157.312 166.235 187.024  0.00  0.00    +0.052 HD
ATOM    162  H   UNL     1     157.568 167.078 185.461  0.00  0.00    +0.052 HD
ENDBRANCH 158 159
ENDBRANCH 145 158
ENDBRANCH 138 143
ENDBRANCH 135 138
ENDBRANCH 129 135
ENDBRANCH 127 129
BRANCH 127 163
ATOM    163  O   UNL     1     148.244 165.034 188.832  0.00  0.00    -0.391 OA
ATOM    164  H   UNL     1     148.142 165.981 189.027  0.00  0.00    +0.210 HD
ENDBRANCH 127 163
ENDBRANCH 121 127
ENDBRANCH   1 121
BRANCH  41 165
ATOM    165  O   UNL     1     149.166 163.323 192.805  0.00  0.00    -0.391 OA
ATOM    166  H   UNL     1     148.189 163.352 192.855  0.00  0.00    +0.210 HD
ENDBRANCH  41 165
BRANCH  39 167
ATOM    167  O   UNL     1     149.389 160.555 191.770  0.00  0.00    -0.391 OA
ATOM    168  H   UNL     1     149.775 161.088 192.492  0.00  0.00    +0.210 HD
ENDBRANCH  39 167
BRANCH  31 169
ATOM    169  O   UNL     1     151.883 161.497 181.787  0.00  0.00    -0.391 OA
ATOM    170  H   UNL     1     152.664 161.977 182.111  0.00  0.00    +0.210 HD
ENDBRANCH  31 169
BRANCH  22 171
ATOM    171  C   UNL     1     142.500 165.537 185.581  0.00  0.00    +0.020 C 
ATOM    172  H   UNL     1     141.415 165.680 185.585  0.00  0.00    +0.036 HD
BRANCH 171 173
ATOM    173  C   UNL     1     142.791 164.044 185.408  0.00  0.00    -0.057 C 
ATOM    174  H   UNL     1     141.893 163.502 185.106  0.00  0.00    +0.023 HD
ATOM    175  H   UNL     1     143.159 163.593 186.334  0.00  0.00    +0.023 HD
ATOM    176  H   UNL     1     143.560 163.867 184.652  0.00  0.00    +0.023 HD
ENDBRANCH 171 173
BRANCH 171 177
ATOM    177  C   UNL     1     143.026 166.069 186.940  0.00  0.00    +0.064 C 
ATOM    178  H   UNL     1     143.295 167.125 186.826  0.00  0.00    +0.060 HD
BRANCH 177 179
ATOM    179  O   UNL     1     141.951 165.995 187.879  0.00  0.00    -0.391 OA
ATOM    180  H   UNL     1     141.265 165.421 187.470  0.00  0.00    +0.210 HD
ENDBRANCH 177 179
BRANCH 177 181
ATOM    181  C   UNL     1     144.268 165.359 187.549  0.00  0.00    -0.017 C 
ATOM    182  H   UNL     1     144.615 164.609 186.826  0.00  0.00    +0.032 HD
BRANCH 181 183
ATOM    183  C   UNL     1     145.406 166.383 187.714  0.00  0.00    -0.060 C 
ATOM    184  H   UNL     1     145.323 166.927 188.662  0.00  0.00    +0.023 HD
ATOM    185  H   UNL     1     146.389 165.904 187.684  0.00  0.00    +0.023 HD
ATOM    186  H   UNL     1     145.390 167.119 186.909  0.00  0.00    +0.023 HD
ENDBRANCH 181 183
BRANCH 181 187
ATOM    187  C   UNL     1     143.994 164.652 188.897  0.00  0.00    -0.046 C 
ATOM    188  H   UNL     1     143.003 164.928 189.271  0.00  0.00    +0.027 HD
ATOM    189  H   UNL     1     144.720 164.995 189.645  0.00  0.00    +0.027 HD
BRANCH 187 190
ATOM    190  C   UNL     1     144.042 163.119 188.778  0.00  0.00    -0.026 C 
ATOM    191  H   UNL     1     143.657 162.819 187.800  0.00  0.00    +0.029 HD
ATOM    192  H   UNL     1     143.371 162.681 189.526  0.00  0.00    +0.029 HD
BRANCH 190 193
ATOM    193  C   UNL     1     145.457 162.545 188.974  0.00  0.00    +0.061 C 
ATOM    194  O   UNL     1     146.306 162.779 187.847  0.00  0.00    -0.373 OA
ATOM    195  C   UNL     1     145.967 162.036 186.673  0.00  0.00    +0.059 C 
ATOM    196  C   UNL     1     145.998 160.534 186.947  0.00  0.00    -0.000 C 
ATOM    197  C   UNL     1     145.096 160.176 188.128  0.00  0.00    +0.063 C 
ATOM    198  C   UNL     1     145.446 161.057 189.328  0.00  0.00    -0.000 C 
ATOM    199  H   UNL     1     145.914 163.081 189.814  0.00  0.00    +0.060 HD
ATOM    200  H   UNL     1     144.972 162.340 186.326  0.00  0.00    +0.059 HD
ATOM    201  H   UNL     1     147.022 160.210 187.175  0.00  0.00    +0.032 HD
ATOM    202  H   UNL     1     145.695 159.984 186.048  0.00  0.00    +0.032 HD
ATOM    203  H   UNL     1     144.044 160.333 187.861  0.00  0.00    +0.060 HD
ATOM    204  H   UNL     1     146.444 160.768 189.686  0.00  0.00    +0.032 HD
ATOM    205  H   UNL     1     144.762 160.851 190.161  0.00  0.00    +0.032 HD
BRANCH 195 206
ATOM    206  C   UNL     1     146.974 162.411 185.591  0.00  0.00    -0.039 C 
ATOM    207  H   UNL     1     146.673 161.987 184.627  0.00  0.00    +0.025 HD
ATOM    208  H   UNL     1     147.975 162.044 185.839  0.00  0.00    +0.025 HD
ATOM    209  H   UNL     1     147.019 163.498 185.458  0.00  0.00    +0.025 HD
ENDBRANCH 195 206
BRANCH 197 210
ATOM    210  O   UNL     1     145.275 158.814 188.535  0.00  0.00    -0.380 OA
BRANCH 210 211
ATOM    211  C   UNL     1     145.074 158.599 189.926  0.00  0.00    +0.037 C 
ATOM    212  H   UNL     1     145.253 159.546 190.444  0.00  0.00    +0.052 HD
ATOM    213  H   UNL     1     145.782 157.862 190.315  0.00  0.00    +0.052 HD
ATOM    214  H   UNL     1     144.047 158.281 190.125  0.00  0.00    +0.052 HD
ENDBRANCH 210 211
ENDBRANCH 197 210
ENDBRANCH 190 193
ENDBRANCH 187 190
ENDBRANCH 181 187
ENDBRANCH 177 181
ENDBRANCH 171 177
ENDBRANCH  22 171
BRANCH  20 215
ATOM    215  O   UNL     1     143.516 166.953 181.368  0.00  0.00    -0.391 OA
ATOM    216  H   UNL     1     143.051 166.618 180.580  0.00  0.00    +0.210 HD
ENDBRANCH  20 215
BRANCH  18 217
ATOM    217  O   UNL     1     144.581 169.273 180.612  0.00  0.00    -0.391 OA
ATOM    218  H   UNL     1     144.256 168.376 180.393  0.00  0.00    +0.210 HD
ENDBRANCH  18 217
BRANCH  10 219
ATOM    219  O   UNL     1     143.608 173.508 189.193  0.00  0.00    -0.391 OA
ATOM    220  H   UNL     1     143.090 173.628 190.011  0.00  0.00    +0.210 HD
ENDBRANCH  10 219
BRANCH  37 221
ATOM    221  O   UNL     1     151.399 158.846 189.519  0.00  0.00    -0.379 OA
BRANCH 221 222
ATOM    222  C   UNL     1     152.130 158.712 190.731  0.00  0.00    +0.037 C 
ATOM    223  H   UNL     1     152.245 159.709 191.167  0.00  0.00    +0.052 HD
ATOM    224  H   UNL     1     151.593 158.089 191.448  0.00  0.00    +0.052 HD
ATOM    225  H   UNL     1     153.125 158.299 190.541  0.00  0.00    +0.052 HD
ENDBRANCH 221 222
ENDBRANCH  37 221
BRANCH  16 226
ATOM    226  O   UNL     1     146.370 172.084 181.909  0.00  0.00    -0.379 OA
BRANCH 226 227
ATOM    227  C   UNL     1     147.326 171.255 181.261  0.00  0.00    +0.037 C 
ATOM    228  H   UNL     1     147.633 170.419 181.896  0.00  0.00    +0.052 HD
ATOM    229  H   UNL     1     148.200 171.853 180.979  0.00  0.00    +0.052 HD
ATOM    230  H   UNL     1     146.872 170.849 180.351  0.00  0.00    +0.052 HD
ENDBRANCH 226 227
ENDBRANCH  16 226
TORSDOF 40
ENDMDL
