MODEL 1
REMARK VINA RESULT:      -6.6      0.000      0.000
REMARK  Name = Swinholide A_conf3
REMARK  40 active torsions:
REMARK  status: ('A' for Active; 'I' for Inactive)
REMARK    1  A    between atoms: C_1  and  C_2
REMARK    2  A    between atoms: C_4  and  C_10
REMARK    3  A    between atoms: C_6  and  O_8
REMARK    4  A    between atoms: O_8  and  C_9
REMARK    5  A    between atoms: C_10  and  C_11
REMARK    6  A    between atoms: C_11  and  C_12
REMARK    7  A    between atoms: C_12  and  C_13
REMARK    8  A    between atoms: C_12  and  C_98
REMARK    9  A    between atoms: C_13  and  O_14
REMARK   10  A    between atoms: C_13  and  C_15
REMARK   11  A    between atoms: C_15  and  C_16
REMARK   12  A    between atoms: C_15  and  C_97
REMARK   13  A    between atoms: C_22  and  C_96
REMARK   14  A    between atoms: C_25  and  O_95
REMARK   15  A    between atoms: C_31  and  O_90
REMARK   16  A    between atoms: C_32  and  C_89
REMARK   17  A    between atoms: C_33  and  O_88
REMARK   18  A    between atoms: C_35  and  O_87
REMARK   19  A    between atoms: C_36  and  C_86
REMARK   20  A    between atoms: C_37  and  C_69
REMARK   21  A    between atoms: C_43  and  C_68
REMARK   22  A    between atoms: C_46  and  O_67
REMARK   23  A    between atoms: C_52  and  O_62
REMARK   24  A    between atoms: C_53  and  C_61
REMARK   25  A    between atoms: C_54  and  O_60
REMARK   26  A    between atoms: C_56  and  O_59
REMARK   27  A    between atoms: C_57  and  C_58
REMARK   28  A    between atoms: O_62  and  C_63
REMARK   29  A    between atoms: C_69  and  C_70
REMARK   30  A    between atoms: C_69  and  C_85
REMARK   31  A    between atoms: C_70  and  O_71
REMARK   32  A    between atoms: C_70  and  C_72
REMARK   33  A    between atoms: C_72  and  C_73
REMARK   34  A    between atoms: C_72  and  C_84
REMARK   35  A    between atoms: C_73  and  C_74
REMARK   36  A    between atoms: C_74  and  C_75
REMARK   37  A    between atoms: C_77  and  C_83
REMARK   38  A    between atoms: C_79  and  O_81
REMARK   39  A    between atoms: O_81  and  C_82
REMARK   40  A    between atoms: O_90  and  C_91
REMARK                            x       y       z     vdW  Elec       q    Type
REMARK                         _______ _______ _______ _____ _____    ______ ____
ROOT
ATOM      1  C   UNL     1     159.692 161.211 190.732  0.00  0.00    +0.113 C 
ATOM      2  O   UNL     1     158.882 162.290 190.196  0.00  0.00    -0.458 OA
ATOM      3  C   UNL     1     157.548 162.165 190.426  0.00  0.00    +0.332 C 
ATOM      4  O   UNL     1     157.015 161.306 191.116  0.00  0.00    -0.246 OA
ATOM      5  C   UNL     1     156.727 163.163 189.734  0.00  0.00    +0.023 C 
ATOM      6  C   UNL     1     157.115 164.378 189.321  0.00  0.00    -0.052 C 
ATOM      7  C   UNL     1     156.163 165.330 188.755  0.00  0.00    -0.054 C 
ATOM      8  C   UNL     1     154.965 165.517 189.346  0.00  0.00    -0.079 C 
ATOM      9  C   UNL     1     153.822 166.374 188.891  0.00  0.00    -0.008 C 
ATOM     10  C   UNL     1     152.937 165.813 187.755  0.00  0.00    +0.061 C 
ATOM     11  C   UNL     1     152.946 164.298 187.518  0.00  0.00    +0.003 C 
ATOM     12  C   UNL     1     152.092 163.386 188.415  0.00  0.00    +0.080 C 
ATOM     13  O   UNL     1     152.371 162.061 187.916  0.00  0.00    -0.369 OA
ATOM     14  C   UNL     1     151.999 160.970 188.777  0.00  0.00    +0.065 C 
ATOM     15  C   UNL     1     150.466 160.875 188.872  0.00  0.00    +0.000 C 
ATOM     16  C   UNL     1     149.918 159.590 189.522  0.00  0.00    +0.066 C 
ATOM     17  C   UNL     1     148.368 159.538 189.378  0.00  0.00    +0.009 C 
ATOM     18  C   UNL     1     147.581 160.389 190.418  0.00  0.00    +0.063 C 
ATOM     19  C   UNL     1     146.328 161.077 189.825  0.00  0.00    -0.000 C 
ATOM     20  C   UNL     1     146.684 162.121 188.742  0.00  0.00    +0.064 C 
ATOM     21  C   UNL     1     145.892 163.449 188.886  0.00  0.00    +0.020 C 
ATOM     22  C   UNL     1     146.658 164.712 188.349  0.00  0.00    +0.113 C 
ATOM     23  O   UNL     1     147.795 164.346 187.545  0.00  0.00    -0.458 OA
ATOM     24  C   UNL     1     147.569 164.123 186.227  0.00  0.00    +0.332 C 
ATOM     25  O   UNL     1     146.562 164.408 185.599  0.00  0.00    -0.246 OA
ATOM     26  C   UNL     1     148.762 163.446 185.678  0.00  0.00    +0.023 C 
ATOM     27  C   UNL     1     148.782 163.055 184.395  0.00  0.00    -0.052 C 
ATOM     28  C   UNL     1     149.882 162.342 183.760  0.00  0.00    -0.054 C 
ATOM     29  C   UNL     1     150.507 161.318 184.377  0.00  0.00    -0.079 C 
ATOM     30  C   UNL     1     151.609 160.457 183.817  0.00  0.00    -0.008 C 
ATOM     31  C   UNL     1     153.007 161.004 184.164  0.00  0.00    +0.061 C 
ATOM     32  C   UNL     1     153.700 160.173 185.255  0.00  0.00    +0.003 C 
ATOM     33  C   UNL     1     154.955 160.855 185.829  0.00  0.00    +0.080 C 
ATOM     34  O   UNL     1     155.279 160.297 187.120  0.00  0.00    -0.369 OA
ATOM     35  C   UNL     1     156.081 159.101 187.078  0.00  0.00    +0.065 C 
ATOM     36  C   UNL     1     156.235 158.625 188.538  0.00  0.00    +0.000 C 
ATOM     37  C   UNL     1     157.125 157.379 188.730  0.00  0.00    +0.066 C 
ATOM     38  C   UNL     1     157.278 156.985 190.231  0.00  0.00    +0.009 C 
ATOM     39  C   UNL     1     157.968 158.038 191.143  0.00  0.00    +0.063 C 
ATOM     40  C   UNL     1     159.507 158.095 191.248  0.00  0.00    -0.000 C 
ATOM     41  C   UNL     1     160.312 158.743 190.112  0.00  0.00    +0.064 C 
ATOM     42  C   UNL     1     159.820 160.123 189.620  0.00  0.00    +0.020 C 
ATOM     43  C   UNL     1     157.438 159.435 186.438  0.00  0.00    -0.008 C 
ATOM     44  C   UNL     1     157.279 160.187 185.158  0.00  0.00    -0.083 C 
ATOM     45  C   UNL     1     156.140 160.835 184.893  0.00  0.00    -0.059 C 
ATOM     46  C   UNL     1     152.746 161.090 190.113  0.00  0.00    -0.008 C 
ATOM     47  C   UNL     1     152.646 162.467 190.685  0.00  0.00    -0.083 C 
ATOM     48  C   UNL     1     152.335 163.506 189.896  0.00  0.00    -0.059 C 
ATOM     49  H   UNL     1     159.139 160.749 191.557  0.00  0.00    +0.074 HD
ATOM     50  H   UNL     1     155.691 162.846 189.640  0.00  0.00    +0.069 HD
ATOM     51  H   UNL     1     158.151 164.696 189.401  0.00  0.00    +0.062 HD
ATOM     52  H   UNL     1     154.755 164.979 190.270  0.00  0.00    +0.058 HD
ATOM     53  H   UNL     1     154.195 167.362 188.593  0.00  0.00    +0.033 HD
ATOM     54  H   UNL     1     153.197 166.585 189.768  0.00  0.00    +0.033 HD
ATOM     55  H   UNL     1     153.296 166.274 186.824  0.00  0.00    +0.060 HD
ATOM     56  H   UNL     1     153.974 163.918 187.473  0.00  0.00    +0.032 HD
ATOM     57  H   UNL     1     152.570 164.135 186.495  0.00  0.00    +0.032 HD
ATOM     58  H   UNL     1     151.035 163.597 188.221  0.00  0.00    +0.064 HD
ATOM     59  H   UNL     1     152.366 160.068 188.276  0.00  0.00    +0.060 HD
ATOM     60  H   UNL     1     150.084 160.944 187.845  0.00  0.00    +0.032 HD
ATOM     61  H   UNL     1     150.074 161.754 189.384  0.00  0.00    +0.032 HD
ATOM     62  H   UNL     1     150.197 159.544 190.582  0.00  0.00    +0.060 HD
ATOM     63  H   UNL     1     148.137 159.895 188.368  0.00  0.00    +0.035 HD
ATOM     64  H   UNL     1     147.246 159.723 191.224  0.00  0.00    +0.060 HD
ATOM     65  H   UNL     1     145.817 161.572 190.659  0.00  0.00    +0.032 HD
ATOM     66  H   UNL     1     145.646 160.318 189.424  0.00  0.00    +0.032 HD
ATOM     67  H   UNL     1     147.749 162.334 188.815  0.00  0.00    +0.060 HD
ATOM     68  H   UNL     1     145.702 163.613 189.952  0.00  0.00    +0.036 HD
ATOM     69  H   UNL     1     145.983 165.303 187.715  0.00  0.00    +0.074 HD
ATOM     70  H   UNL     1     149.576 163.249 186.362  0.00  0.00    +0.069 HD
ATOM     71  H   UNL     1     147.928 163.277 183.755  0.00  0.00    +0.062 HD
ATOM     72  H   UNL     1     150.197 161.032 185.383  0.00  0.00    +0.058 HD
ATOM     73  H   UNL     1     151.480 159.441 184.215  0.00  0.00    +0.033 HD
ATOM     74  H   UNL     1     151.485 160.347 182.734  0.00  0.00    +0.033 HD
ATOM     75  H   UNL     1     152.941 162.050 184.488  0.00  0.00    +0.060 HD
ATOM     76  H   UNL     1     152.997 159.988 186.073  0.00  0.00    +0.032 HD
ATOM     77  H   UNL     1     153.971 159.186 184.855  0.00  0.00    +0.032 HD
ATOM     78  H   UNL     1     154.715 161.905 186.034  0.00  0.00    +0.064 HD
ATOM     79  H   UNL     1     155.550 158.337 186.496  0.00  0.00    +0.060 HD
ATOM     80  H   UNL     1     156.602 159.468 189.129  0.00  0.00    +0.032 HD
ATOM     81  H   UNL     1     155.227 158.416 188.925  0.00  0.00    +0.032 HD
ATOM     82  H   UNL     1     158.107 157.556 188.292  0.00  0.00    +0.060 HD
ATOM     83  H   UNL     1     156.251 156.865 190.610  0.00  0.00    +0.035 HD
ATOM     84  H   UNL     1     157.587 159.029 190.920  0.00  0.00    +0.060 HD
ATOM     85  H   UNL     1     159.889 157.081 191.421  0.00  0.00    +0.032 HD
ATOM     86  H   UNL     1     159.756 158.634 192.174  0.00  0.00    +0.032 HD
ATOM     87  H   UNL     1     161.348 158.839 190.460  0.00  0.00    +0.060 HD
ATOM     88  H   UNL     1     158.805 159.968 189.239  0.00  0.00    +0.036 HD
ATOM     89  H   UNL     1     158.011 158.523 186.246  0.00  0.00    +0.033 HD
ATOM     90  H   UNL     1     158.023 160.069 187.107  0.00  0.00    +0.033 HD
ATOM     91  H   UNL     1     158.110 160.217 184.458  0.00  0.00    +0.057 HD
ATOM     92  H   UNL     1     156.045 161.377 183.956  0.00  0.00    +0.059 HD
ATOM     93  H   UNL     1     153.811 160.876 189.954  0.00  0.00    +0.033 HD
ATOM     94  H   UNL     1     152.375 160.356 190.833  0.00  0.00    +0.033 HD
ATOM     95  H   UNL     1     152.809 162.604 191.749  0.00  0.00    +0.057 HD
ATOM     96  H   UNL     1     152.188 164.482 190.344  0.00  0.00    +0.059 HD
ENDROOT
BRANCH  28  97
ATOM     97  C   UNL     1     150.194 162.828 182.370  0.00  0.00    -0.040 C 
ATOM     98  H   UNL     1     149.469 163.554 181.995  0.00  0.00    +0.028 HD
ATOM     99  H   UNL     1     151.183 163.299 182.341  0.00  0.00    +0.028 HD
ATOM    100  H   UNL     1     150.190 161.988 181.666  0.00  0.00    +0.028 HD
ENDBRANCH  28  97
BRANCH  21 101
ATOM    101  C   UNL     1     144.496 163.374 188.248  0.00  0.00    -0.057 C 
ATOM    102  H   UNL     1     143.791 162.815 188.872  0.00  0.00    +0.023 HD
ATOM    103  H   UNL     1     144.544 162.874 187.275  0.00  0.00    +0.023 HD
ATOM    104  H   UNL     1     144.087 164.376 188.080  0.00  0.00    +0.023 HD
ENDBRANCH  21 101
BRANCH  42 105
ATOM    105  C   UNL     1     160.591 160.581 188.371  0.00  0.00    -0.057 C 
ATOM    106  H   UNL     1     161.556 161.016 188.655  0.00  0.00    +0.023 HD
ATOM    107  H   UNL     1     160.800 159.748 187.691  0.00  0.00    +0.023 HD
ATOM    108  H   UNL     1     160.060 161.365 187.828  0.00  0.00    +0.023 HD
ENDBRANCH  42 105
BRANCH  17 109
ATOM    109  C   UNL     1     147.815 158.102 189.405  0.00  0.00    -0.058 C 
ATOM    110  H   UNL     1     146.743 158.093 189.620  0.00  0.00    +0.023 HD
ATOM    111  H   UNL     1     148.323 157.491 190.158  0.00  0.00    +0.023 HD
ATOM    112  H   UNL     1     147.970 157.605 188.440  0.00  0.00    +0.023 HD
ENDBRANCH  17 109
BRANCH  38 113
ATOM    113  C   UNL     1     157.907 155.595 190.410  0.00  0.00    -0.058 C 
ATOM    114  H   UNL     1     158.492 155.535 191.332  0.00  0.00    +0.023 HD
ATOM    115  H   UNL     1     157.138 154.814 190.438  0.00  0.00    +0.023 HD
ATOM    116  H   UNL     1     158.569 155.352 189.572  0.00  0.00    +0.023 HD
ENDBRANCH  38 113
BRANCH   7 117
ATOM    117  C   UNL     1     156.614 166.028 187.506  0.00  0.00    -0.040 C 
ATOM    118  H   UNL     1     155.891 166.796 187.223  0.00  0.00    +0.028 HD
ATOM    119  H   UNL     1     156.716 165.346 186.658  0.00  0.00    +0.028 HD
ATOM    120  H   UNL     1     157.589 166.506 187.654  0.00  0.00    +0.028 HD
ENDBRANCH   7 117
BRANCH   1 121
ATOM    121  C   UNL     1     160.979 161.757 191.421  0.00  0.00    +0.020 C 
ATOM    122  H   UNL     1     161.800 161.108 191.094  0.00  0.00    +0.036 HD
BRANCH 121 123
ATOM    123  C   UNL     1     161.399 163.172 191.031  0.00  0.00    -0.057 C 
ATOM    124  H   UNL     1     161.893 163.199 190.057  0.00  0.00    +0.023 HD
ATOM    125  H   UNL     1     160.535 163.843 191.008  0.00  0.00    +0.023 HD
ATOM    126  H   UNL     1     162.065 163.608 191.777  0.00  0.00    +0.023 HD
ENDBRANCH 121 123
BRANCH 121 127
ATOM    127  C   UNL     1     160.878 161.597 192.974  0.00  0.00    +0.064 C 
ATOM    128  H   UNL     1     161.901 161.666 193.364  0.00  0.00    +0.060 HD
BRANCH 127 129
ATOM    129  C   UNL     1     160.205 160.293 193.519  0.00  0.00    -0.017 C 
ATOM    130  H   UNL     1     160.091 159.585 192.694  0.00  0.00    +0.032 HD
BRANCH 129 131
ATOM    131  C   UNL     1     161.155 159.631 194.531  0.00  0.00    -0.060 C 
ATOM    132  H   UNL     1     161.388 158.600 194.244  0.00  0.00    +0.023 HD
ATOM    133  H   UNL     1     160.708 159.609 195.531  0.00  0.00    +0.023 HD
ATOM    134  H   UNL     1     162.097 160.183 194.615  0.00  0.00    +0.023 HD
ENDBRANCH 129 131
BRANCH 129 135
ATOM    135  C   UNL     1     158.824 160.526 194.177  0.00  0.00    -0.046 C 
ATOM    136  H   UNL     1     158.026 160.160 193.525  0.00  0.00    +0.027 HD
ATOM    137  H   UNL     1     158.649 161.605 194.283  0.00  0.00    +0.027 HD
BRANCH 135 138
ATOM    138  C   UNL     1     158.621 159.895 195.565  0.00  0.00    -0.026 C 
ATOM    139  H   UNL     1     159.488 159.241 195.740  0.00  0.00    +0.029 HD
ATOM    140  H   UNL     1     157.742 159.239 195.557  0.00  0.00    +0.029 HD
BRANCH 138 143
ATOM    141  C   UNL     1     159.299 163.109 197.332  0.00  0.00    +0.059 C 
ATOM    142  O   UNL     1     159.023 162.155 196.299  0.00  0.00    -0.373 OA
ATOM    143  C   UNL     1     158.520 160.890 196.732  0.00  0.00    +0.061 C 
ATOM    144  C   UNL     1     159.305 160.373 197.940  0.00  0.00    -0.000 C 
ATOM    145  C   UNL     1     159.237 161.356 199.116  0.00  0.00    +0.063 C 
ATOM    146  C   UNL     1     158.709 162.722 198.682  0.00  0.00    -0.000 C 
ATOM    147  H   UNL     1     160.391 163.175 197.417  0.00  0.00    +0.059 HD
ATOM    148  H   UNL     1     157.465 161.008 197.003  0.00  0.00    +0.060 HD
ATOM    149  H   UNL     1     158.945 159.378 198.222  0.00  0.00    +0.032 HD
ATOM    150  H   UNL     1     160.360 160.272 197.653  0.00  0.00    +0.032 HD
ATOM    151  H   UNL     1     160.243 161.488 199.538  0.00  0.00    +0.060 HD
ATOM    152  H   UNL     1     158.949 163.470 199.448  0.00  0.00    +0.032 HD
ATOM    153  H   UNL     1     157.615 162.697 198.622  0.00  0.00    +0.032 HD
BRANCH 141 154
ATOM    154  C   UNL     1     158.774 164.461 196.870  0.00  0.00    -0.039 C 
ATOM    155  H   UNL     1     158.706 164.509 195.778  0.00  0.00    +0.025 HD
ATOM    156  H   UNL     1     157.781 164.653 197.289  0.00  0.00    +0.025 HD
ATOM    157  H   UNL     1     159.425 165.272 197.213  0.00  0.00    +0.025 HD
ENDBRANCH 141 154
BRANCH 145 158
ATOM    158  O   UNL     1     158.364 160.869 200.143  0.00  0.00    -0.380 OA
BRANCH 158 159
ATOM    159  C   UNL     1     158.368 159.451 200.258  0.00  0.00    +0.037 C 
ATOM    160  H   UNL     1     157.373 159.085 199.984  0.00  0.00    +0.052 HD
ATOM    161  H   UNL     1     159.101 158.997 199.585  0.00  0.00    +0.052 HD
ATOM    162  H   UNL     1     158.574 159.156 201.291  0.00  0.00    +0.052 HD
ENDBRANCH 158 159
ENDBRANCH 145 158
ENDBRANCH 138 143
ENDBRANCH 135 138
ENDBRANCH 129 135
ENDBRANCH 127 129
BRANCH 127 163
ATOM    163  O   UNL     1     160.202 162.754 193.485  0.00  0.00    -0.391 OA
ATOM    164  H   UNL     1     159.784 162.495 194.325  0.00  0.00    +0.210 HD
ENDBRANCH 127 163
ENDBRANCH 121 127
ENDBRANCH   1 121
BRANCH  41 165
ATOM    165  O   UNL     1     160.341 157.822 189.018  0.00  0.00    -0.391 OA
ATOM    166  H   UNL     1     159.428 157.529 188.861  0.00  0.00    +0.210 HD
ENDBRANCH  41 165
BRANCH  39 167
ATOM    167  O   UNL     1     157.521 157.770 192.494  0.00  0.00    -0.391 OA
ATOM    168  H   UNL     1     157.620 156.812 192.634  0.00  0.00    +0.210 HD
ENDBRANCH  39 167
BRANCH  31 169
ATOM    169  O   UNL     1     153.802 160.992 182.974  0.00  0.00    -0.391 OA
ATOM    170  H   UNL     1     154.332 160.173 182.989  0.00  0.00    +0.210 HD
ENDBRANCH  31 169
BRANCH  22 171
ATOM    171  C   UNL     1     147.125 165.685 189.498  0.00  0.00    +0.020 C 
ATOM    172  H   UNL     1     146.239 165.872 190.119  0.00  0.00    +0.036 HD
BRANCH 171 173
ATOM    173  C   UNL     1     148.168 164.926 190.346  0.00  0.00    -0.057 C 
ATOM    174  H   UNL     1     149.191 165.198 190.067  0.00  0.00    +0.023 HD
ATOM    175  H   UNL     1     148.049 165.132 191.414  0.00  0.00    +0.023 HD
ATOM    176  H   UNL     1     148.115 163.847 190.201  0.00  0.00    +0.023 HD
ENDBRANCH 171 173
BRANCH 171 177
ATOM    177  C   UNL     1     147.649 167.077 189.009  0.00  0.00    +0.064 C 
ATOM    178  H   UNL     1     148.744 167.034 188.949  0.00  0.00    +0.060 HD
BRANCH 177 179
ATOM    179  O   UNL     1     147.157 167.300 187.688  0.00  0.00    -0.391 OA
ATOM    180  H   UNL     1     147.362 166.517 187.136  0.00  0.00    +0.210 HD
ENDBRANCH 177 179
BRANCH 177 181
ATOM    181  C   UNL     1     147.253 168.346 189.830  0.00  0.00    -0.017 C 
ATOM    182  H   UNL     1     147.052 169.160 189.119  0.00  0.00    +0.032 HD
BRANCH 181 183
ATOM    183  C   UNL     1     146.005 168.175 190.694  0.00  0.00    -0.060 C 
ATOM    184  H   UNL     1     145.168 167.818 190.088  0.00  0.00    +0.023 HD
ATOM    185  H   UNL     1     145.652 169.123 191.110  0.00  0.00    +0.023 HD
ATOM    186  H   UNL     1     146.183 167.486 191.525  0.00  0.00    +0.023 HD
ENDBRANCH 181 183
BRANCH 181 187
ATOM    187  C   UNL     1     148.476 168.802 190.683  0.00  0.00    -0.046 C 
ATOM    188  H   UNL     1     148.637 169.876 190.527  0.00  0.00    +0.027 HD
ATOM    189  H   UNL     1     149.379 168.294 190.319  0.00  0.00    +0.027 HD
BRANCH 187 190
ATOM    190  C   UNL     1     148.340 168.552 192.192  0.00  0.00    -0.026 C 
ATOM    191  H   UNL     1     148.304 169.509 192.726  0.00  0.00    +0.029 HD
ATOM    192  H   UNL     1     147.391 168.029 192.370  0.00  0.00    +0.029 HD
BRANCH 190 193
ATOM    193  C   UNL     1     149.478 167.694 192.764  0.00  0.00    +0.061 C 
ATOM    194  O   UNL     1     150.281 167.221 191.677  0.00  0.00    -0.373 OA
ATOM    195  C   UNL     1     151.397 166.419 192.075  0.00  0.00    +0.059 C 
ATOM    196  C   UNL     1     150.944 165.208 192.897  0.00  0.00    -0.000 C 
ATOM    197  C   UNL     1     150.001 165.577 194.044  0.00  0.00    +0.063 C 
ATOM    198  C   UNL     1     148.899 166.508 193.540  0.00  0.00    -0.000 C 
ATOM    199  H   UNL     1     150.084 168.326 193.423  0.00  0.00    +0.060 HD
ATOM    200  H   UNL     1     151.827 166.032 191.142  0.00  0.00    +0.059 HD
ATOM    201  H   UNL     1     151.816 164.653 193.253  0.00  0.00    +0.032 HD
ATOM    202  H   UNL     1     150.389 164.540 192.225  0.00  0.00    +0.032 HD
ATOM    203  H   UNL     1     149.528 164.670 194.442  0.00  0.00    +0.060 HD
ATOM    204  H   UNL     1     148.300 166.874 194.382  0.00  0.00    +0.032 HD
ATOM    205  H   UNL     1     148.238 165.929 192.882  0.00  0.00    +0.032 HD
BRANCH 195 206
ATOM    206  C   UNL     1     152.493 167.252 192.735  0.00  0.00    -0.039 C 
ATOM    207  H   UNL     1     153.330 166.608 193.029  0.00  0.00    +0.025 HD
ATOM    208  H   UNL     1     152.113 167.757 193.629  0.00  0.00    +0.025 HD
ATOM    209  H   UNL     1     152.911 168.012 192.071  0.00  0.00    +0.025 HD
ENDBRANCH 195 206
BRANCH 197 210
ATOM    210  O   UNL     1     150.689 166.242 195.108  0.00  0.00    -0.380 OA
BRANCH 210 211
ATOM    211  C   UNL     1     149.994 166.200 196.347  0.00  0.00    +0.037 C 
ATOM    212  H   UNL     1     149.762 165.156 196.573  0.00  0.00    +0.052 HD
ATOM    213  H   UNL     1     150.623 166.596 197.150  0.00  0.00    +0.052 HD
ATOM    214  H   UNL     1     149.056 166.758 196.295  0.00  0.00    +0.052 HD
ENDBRANCH 210 211
ENDBRANCH 197 210
ENDBRANCH 190 193
ENDBRANCH 187 190
ENDBRANCH 181 187
ENDBRANCH 177 181
ENDBRANCH 171 177
ENDBRANCH  22 171
BRANCH  20 215
ATOM    215  O   UNL     1     146.500 161.537 187.451  0.00  0.00    -0.391 OA
ATOM    216  H   UNL     1     146.080 160.667 187.550  0.00  0.00    +0.210 HD
ENDBRANCH  20 215
BRANCH  18 217
ATOM    217  O   UNL     1     148.378 161.389 191.058  0.00  0.00    -0.391 OA
ATOM    218  H   UNL     1     148.822 160.957 191.812  0.00  0.00    +0.210 HD
ENDBRANCH  18 217
BRANCH  10 219
ATOM    219  O   UNL     1     151.603 166.290 187.945  0.00  0.00    -0.391 OA
ATOM    220  H   UNL     1     151.077 165.575 188.342  0.00  0.00    +0.210 HD
ENDBRANCH  10 219
BRANCH  37 221
ATOM    221  O   UNL     1     156.456 156.306 188.041  0.00  0.00    -0.379 OA
BRANCH 221 222
ATOM    222  C   UNL     1     157.229 155.737 186.992  0.00  0.00    +0.037 C 
ATOM    223  H   UNL     1     158.146 155.332 187.427  0.00  0.00    +0.052 HD
ATOM    224  H   UNL     1     156.680 154.917 186.523  0.00  0.00    +0.052 HD
ATOM    225  H   UNL     1     157.499 156.485 186.241  0.00  0.00    +0.052 HD
ENDBRANCH 221 222
ENDBRANCH  37 221
BRANCH  16 226
ATOM    226  O   UNL     1     150.488 158.484 188.801  0.00  0.00    -0.379 OA
BRANCH 226 227
ATOM    227  C   UNL     1     151.312 157.650 189.607  0.00  0.00    +0.037 C 
ATOM    228  H   UNL     1     150.677 157.141 190.338  0.00  0.00    +0.052 HD
ATOM    229  H   UNL     1     151.810 156.893 188.994  0.00  0.00    +0.052 HD
ATOM    230  H   UNL     1     152.056 158.244 190.146  0.00  0.00    +0.052 HD
ENDBRANCH 226 227
ENDBRANCH  16 226
TORSDOF 40
ENDMDL
MODEL 2
REMARK VINA RESULT:      -6.5      0.845      1.347
REMARK  Name = Swinholide A_conf3
REMARK  40 active torsions:
REMARK  status: ('A' for Active; 'I' for Inactive)
REMARK    1  A    between atoms: C_1  and  C_2
REMARK    2  A    between atoms: C_4  and  C_10
REMARK    3  A    between atoms: C_6  and  O_8
REMARK    4  A    between atoms: O_8  and  C_9
REMARK    5  A    between atoms: C_10  and  C_11
REMARK    6  A    between atoms: C_11  and  C_12
REMARK    7  A    between atoms: C_12  and  C_13
REMARK    8  A    between atoms: C_12  and  C_98
REMARK    9  A    between atoms: C_13  and  O_14
REMARK   10  A    between atoms: C_13  and  C_15
REMARK   11  A    between atoms: C_15  and  C_16
REMARK   12  A    between atoms: C_15  and  C_97
REMARK   13  A    between atoms: C_22  and  C_96
REMARK   14  A    between atoms: C_25  and  O_95
REMARK   15  A    between atoms: C_31  and  O_90
REMARK   16  A    between atoms: C_32  and  C_89
REMARK   17  A    between atoms: C_33  and  O_88
REMARK   18  A    between atoms: C_35  and  O_87
REMARK   19  A    between atoms: C_36  and  C_86
REMARK   20  A    between atoms: C_37  and  C_69
REMARK   21  A    between atoms: C_43  and  C_68
REMARK   22  A    between atoms: C_46  and  O_67
REMARK   23  A    between atoms: C_52  and  O_62
REMARK   24  A    between atoms: C_53  and  C_61
REMARK   25  A    between atoms: C_54  and  O_60
REMARK   26  A    between atoms: C_56  and  O_59
REMARK   27  A    between atoms: C_57  and  C_58
REMARK   28  A    between atoms: O_62  and  C_63
REMARK   29  A    between atoms: C_69  and  C_70
REMARK   30  A    between atoms: C_69  and  C_85
REMARK   31  A    between atoms: C_70  and  O_71
REMARK   32  A    between atoms: C_70  and  C_72
REMARK   33  A    between atoms: C_72  and  C_73
REMARK   34  A    between atoms: C_72  and  C_84
REMARK   35  A    between atoms: C_73  and  C_74
REMARK   36  A    between atoms: C_74  and  C_75
REMARK   37  A    between atoms: C_77  and  C_83
REMARK   38  A    between atoms: C_79  and  O_81
REMARK   39  A    between atoms: O_81  and  C_82
REMARK   40  A    between atoms: O_90  and  C_91
REMARK                            x       y       z     vdW  Elec       q    Type
REMARK                         _______ _______ _______ _____ _____    ______ ____
ROOT
ATOM      1  C   UNL     1     159.743 161.016 190.788  0.00  0.00    +0.113 C 
ATOM      2  O   UNL     1     159.027 162.119 190.171  0.00  0.00    -0.458 OA
ATOM      3  C   UNL     1     157.681 162.098 190.363  0.00  0.00    +0.332 C 
ATOM      4  O   UNL     1     157.069 161.315 191.078  0.00  0.00    -0.246 OA
ATOM      5  C   UNL     1     156.953 163.112 189.595  0.00  0.00    +0.023 C 
ATOM      6  C   UNL     1     157.438 164.274 189.134  0.00  0.00    -0.052 C 
ATOM      7  C   UNL     1     156.573 165.258 188.490  0.00  0.00    -0.054 C 
ATOM      8  C   UNL     1     155.374 165.558 189.030  0.00  0.00    -0.079 C 
ATOM      9  C   UNL     1     154.308 166.466 188.495  0.00  0.00    -0.008 C 
ATOM     10  C   UNL     1     153.420 165.909 187.359  0.00  0.00    +0.061 C 
ATOM     11  C   UNL     1     153.329 164.386 187.200  0.00  0.00    +0.003 C 
ATOM     12  C   UNL     1     152.387 163.583 188.113  0.00  0.00    +0.080 C 
ATOM     13  O   UNL     1     152.586 162.218 187.692  0.00  0.00    -0.369 OA
ATOM     14  C   UNL     1     152.113 161.202 188.594  0.00  0.00    +0.065 C 
ATOM     15  C   UNL     1     150.576 161.218 188.642  0.00  0.00    +0.000 C 
ATOM     16  C   UNL     1     149.919 160.010 189.337  0.00  0.00    +0.066 C 
ATOM     17  C   UNL     1     148.375 160.057 189.145  0.00  0.00    +0.009 C 
ATOM     18  C   UNL     1     147.619 161.013 190.114  0.00  0.00    +0.063 C 
ATOM     19  C   UNL     1     146.435 161.754 189.445  0.00  0.00    -0.000 C 
ATOM     20  C   UNL     1     146.896 162.713 188.324  0.00  0.00    +0.064 C 
ATOM     21  C   UNL     1     146.195 164.098 188.373  0.00  0.00    +0.020 C 
ATOM     22  C   UNL     1     147.064 165.275 187.799  0.00  0.00    +0.113 C 
ATOM     23  O   UNL     1     148.196 164.790 187.053  0.00  0.00    -0.458 OA
ATOM     24  C   UNL     1     147.994 164.514 185.742  0.00  0.00    +0.332 C 
ATOM     25  O   UNL     1     147.029 164.834 185.067  0.00  0.00    -0.246 OA
ATOM     26  C   UNL     1     149.152 163.728 185.268  0.00  0.00    +0.023 C 
ATOM     27  C   UNL     1     149.183 163.270 184.008  0.00  0.00    -0.052 C 
ATOM     28  C   UNL     1     150.248 162.450 183.446  0.00  0.00    -0.054 C 
ATOM     29  C   UNL     1     150.780 161.420 184.134  0.00  0.00    -0.079 C 
ATOM     30  C   UNL     1     151.835 160.457 183.656  0.00  0.00    -0.008 C 
ATOM     31  C   UNL     1     153.257 160.924 184.020  0.00  0.00    +0.061 C 
ATOM     32  C   UNL     1     153.858 160.106 185.174  0.00  0.00    +0.003 C 
ATOM     33  C   UNL     1     155.140 160.729 185.755  0.00  0.00    +0.080 C 
ATOM     34  O   UNL     1     155.386 160.219 187.082  0.00  0.00    -0.369 OA
ATOM     35  C   UNL     1     156.103 158.970 187.127  0.00  0.00    +0.065 C 
ATOM     36  C   UNL     1     156.179 158.562 188.613  0.00  0.00    +0.000 C 
ATOM     37  C   UNL     1     156.973 157.269 188.898  0.00  0.00    +0.066 C 
ATOM     38  C   UNL     1     157.053 156.946 190.421  0.00  0.00    +0.009 C 
ATOM     39  C   UNL     1     157.788 157.995 191.301  0.00  0.00    +0.063 C 
ATOM     40  C   UNL     1     159.324 157.952 191.455  0.00  0.00    -0.000 C 
ATOM     41  C   UNL     1     160.206 158.482 190.314  0.00  0.00    +0.064 C 
ATOM     42  C   UNL     1     159.827 159.865 189.737  0.00  0.00    +0.020 C 
ATOM     43  C   UNL     1     157.497 159.175 186.516  0.00  0.00    -0.008 C 
ATOM     44  C   UNL     1     157.431 159.868 185.195  0.00  0.00    -0.083 C 
ATOM     45  C   UNL     1     156.348 160.579 184.860  0.00  0.00    -0.059 C 
ATOM     46  C   UNL     1     152.827 161.340 189.946  0.00  0.00    -0.008 C 
ATOM     47  C   UNL     1     152.807 162.750 190.443  0.00  0.00    -0.083 C 
ATOM     48  C   UNL     1     152.594 163.764 189.593  0.00  0.00    -0.059 C 
ATOM     49  H   UNL     1     159.134 160.637 191.616  0.00  0.00    +0.074 HD
ATOM     50  H   UNL     1     155.901 162.863 189.483  0.00  0.00    +0.069 HD
ATOM     51  H   UNL     1     158.491 164.525 189.233  0.00  0.00    +0.062 HD
ATOM     52  H   UNL     1     155.099 165.085 189.973  0.00  0.00    +0.058 HD
ATOM     53  H   UNL     1     154.759 167.410 188.161  0.00  0.00    +0.033 HD
ATOM     54  H   UNL     1     153.673 166.766 189.339  0.00  0.00    +0.033 HD
ATOM     55  H   UNL     1     153.838 166.294 186.420  0.00  0.00    +0.060 HD
ATOM     56  H   UNL     1     154.329 163.935 187.208  0.00  0.00    +0.032 HD
ATOM     57  H   UNL     1     152.973 164.196 186.175  0.00  0.00    +0.032 HD
ATOM     58  H   UNL     1     151.354 163.857 187.874  0.00  0.00    +0.064 HD
ATOM     59  H   UNL     1     152.430 160.252 188.151  0.00  0.00    +0.060 HD
ATOM     60  H   UNL     1     150.230 161.259 187.600  0.00  0.00    +0.032 HD
ATOM     61  H   UNL     1     150.231 162.148 189.096  0.00  0.00    +0.032 HD
ATOM     62  H   UNL     1     150.163 160.000 190.407  0.00  0.00    +0.060 HD
ATOM     63  H   UNL     1     148.199 160.375 188.111  0.00  0.00    +0.035 HD
ATOM     64  H   UNL     1     147.214 160.416 190.941  0.00  0.00    +0.060 HD
ATOM     65  H   UNL     1     145.936 162.326 190.236  0.00  0.00    +0.032 HD
ATOM     66  H   UNL     1     145.714 161.023 189.061  0.00  0.00    +0.032 HD
ATOM     67  H   UNL     1     147.970 162.855 188.421  0.00  0.00    +0.060 HD
ATOM     68  H   UNL     1     145.986 164.330 189.423  0.00  0.00    +0.036 HD
ATOM     69  H   UNL     1     146.451 165.877 187.115  0.00  0.00    +0.074 HD
ATOM     70  H   UNL     1     149.929 163.512 185.987  0.00  0.00    +0.069 HD
ATOM     71  H   UNL     1     148.365 163.516 183.328  0.00  0.00    +0.062 HD
ATOM     72  H   UNL     1     150.422 161.210 185.143  0.00  0.00    +0.058 HD
ATOM     73  H   UNL     1     151.623 159.475 184.100  0.00  0.00    +0.033 HD
ATOM     74  H   UNL     1     151.737 160.299 182.575  0.00  0.00    +0.033 HD
ATOM     75  H   UNL     1     153.256 161.987 184.289  0.00  0.00    +0.060 HD
ATOM     76  H   UNL     1     153.120 160.013 185.976  0.00  0.00    +0.032 HD
ATOM     77  H   UNL     1     154.070 159.083 184.834  0.00  0.00    +0.032 HD
ATOM     78  H   UNL     1     154.969 161.803 185.898  0.00  0.00    +0.064 HD
ATOM     79  H   UNL     1     155.537 158.215 186.567  0.00  0.00    +0.060 HD
ATOM     80  H   UNL     1     156.586 159.408 189.173  0.00  0.00    +0.032 HD
ATOM     81  H   UNL     1     155.148 158.443 188.976  0.00  0.00    +0.032 HD
ATOM     82  H   UNL     1     157.978 157.356 188.484  0.00  0.00    +0.060 HD
ATOM     83  H   UNL     1     156.010 156.917 190.771  0.00  0.00    +0.035 HD
ATOM     84  H   UNL     1     157.485 158.997 191.015  0.00  0.00    +0.060 HD
ATOM     85  H   UNL     1     159.628 156.924 191.690  0.00  0.00    +0.032 HD
ATOM     86  H   UNL     1     159.582 158.520 192.359  0.00  0.00    +0.032 HD
ATOM     87  H   UNL     1     161.236 158.525 190.691  0.00  0.00    +0.060 HD
ATOM     88  H   UNL     1     158.816 159.761 189.331  0.00  0.00    +0.036 HD
ATOM     89  H   UNL     1     158.010 158.218 186.390  0.00  0.00    +0.033 HD
ATOM     90  H   UNL     1     158.105 159.802 187.172  0.00  0.00    +0.033 HD
ATOM     91  H   UNL     1     158.281 159.805 184.523  0.00  0.00    +0.057 HD
ATOM     92  H   UNL     1     156.319 161.076 183.895  0.00  0.00    +0.059 HD
ATOM     93  H   UNL     1     153.878 161.046 189.832  0.00  0.00    +0.033 HD
ATOM     94  H   UNL     1     152.385 160.672 190.688  0.00  0.00    +0.033 HD
ATOM     95  H   UNL     1     152.948 162.931 191.504  0.00  0.00    +0.057 HD
ATOM     96  H   UNL     1     152.503 164.771 189.986  0.00  0.00    +0.059 HD
ENDROOT
BRANCH  28  97
ATOM     97  C   UNL     1     150.635 162.840 182.045  0.00  0.00    -0.040 C 
ATOM     98  H   UNL     1     151.184 163.784 181.996  0.00  0.00    +0.028 HD
ATOM     99  H   UNL     1     151.261 162.066 181.589  0.00  0.00    +0.028 HD
ATOM    100  H   UNL     1     149.738 162.968 181.427  0.00  0.00    +0.028 HD
ENDBRANCH  28  97
BRANCH  21 101
ATOM    101  C   UNL     1     144.817 164.085 187.695  0.00  0.00    -0.057 C 
ATOM    102  H   UNL     1     144.198 163.252 188.041  0.00  0.00    +0.023 HD
ATOM    103  H   UNL     1     144.924 163.988 186.609  0.00  0.00    +0.023 HD
ATOM    104  H   UNL     1     144.277 165.018 187.887  0.00  0.00    +0.023 HD
ENDBRANCH  21 101
BRANCH  42 105
ATOM    105  C   UNL     1     160.665 160.203 188.493  0.00  0.00    -0.057 C 
ATOM    106  H   UNL     1     160.249 159.710 187.607  0.00  0.00    +0.023 HD
ATOM    107  H   UNL     1     160.676 161.279 188.288  0.00  0.00    +0.023 HD
ATOM    108  H   UNL     1     161.691 159.842 188.580  0.00  0.00    +0.023 HD
ENDBRANCH  42 105
BRANCH  17 109
ATOM    109  C   UNL     1     147.721 158.666 189.225  0.00  0.00    -0.058 C 
ATOM    110  H   UNL     1     147.293 158.372 188.263  0.00  0.00    +0.023 HD
ATOM    111  H   UNL     1     146.927 158.639 189.978  0.00  0.00    +0.023 HD
ATOM    112  H   UNL     1     148.455 157.905 189.514  0.00  0.00    +0.023 HD
ENDBRANCH  17 109
BRANCH  38 113
ATOM    113  C   UNL     1     157.578 155.527 190.690  0.00  0.00    -0.058 C 
ATOM    114  H   UNL     1     158.156 155.145 189.844  0.00  0.00    +0.023 HD
ATOM    115  H   UNL     1     158.216 155.505 191.581  0.00  0.00    +0.023 HD
ATOM    116  H   UNL     1     156.753 154.832 190.879  0.00  0.00    +0.023 HD
ENDBRANCH  38 113
BRANCH   7 117
ATOM    117  C   UNL     1     157.109 165.857 187.223  0.00  0.00    -0.040 C 
ATOM    118  H   UNL     1     156.551 165.478 186.363  0.00  0.00    +0.028 HD
ATOM    119  H   UNL     1     158.163 165.619 187.059  0.00  0.00    +0.028 HD
ATOM    120  H   UNL     1     157.022 166.949 187.238  0.00  0.00    +0.028 HD
ENDBRANCH   7 117
BRANCH   1 121
ATOM    121  C   UNL     1     161.044 161.508 191.491  0.00  0.00    +0.020 C 
ATOM    122  H   UNL     1     161.829 160.794 191.215  0.00  0.00    +0.036 HD
BRANCH 121 123
ATOM    123  C   UNL     1     161.566 162.875 191.055  0.00  0.00    -0.057 C 
ATOM    124  H   UNL     1     162.494 163.141 191.564  0.00  0.00    +0.023 HD
ATOM    125  H   UNL     1     161.735 162.901 189.974  0.00  0.00    +0.023 HD
ATOM    126  H   UNL     1     160.827 163.657 191.236  0.00  0.00    +0.023 HD
ENDBRANCH 121 123
BRANCH 121 127
ATOM    127  C   UNL     1     160.892 161.422 193.046  0.00  0.00    +0.064 C 
ATOM    128  H   UNL     1     161.904 161.486 193.464  0.00  0.00    +0.060 HD
BRANCH 127 129
ATOM    129  C   UNL     1     160.172 160.160 193.627  0.00  0.00    -0.017 C 
ATOM    130  H   UNL     1     160.049 159.425 192.828  0.00  0.00    +0.032 HD
BRANCH 129 131
ATOM    131  C   UNL     1     161.085 159.510 194.680  0.00  0.00    -0.060 C 
ATOM    132  H   UNL     1     161.357 158.488 194.394  0.00  0.00    +0.023 HD
ATOM    133  H   UNL     1     160.588 159.465 195.656  0.00  0.00    +0.023 HD
ATOM    134  H   UNL     1     162.007 160.084 194.819  0.00  0.00    +0.023 HD
ENDBRANCH 129 131
BRANCH 129 135
ATOM    135  C   UNL     1     158.788 160.459 194.253  0.00  0.00    -0.046 C 
ATOM    136  H   UNL     1     157.989 160.115 193.590  0.00  0.00    +0.027 HD
ATOM    137  H   UNL     1     158.654 161.546 194.338  0.00  0.00    +0.027 HD
BRANCH 135 138
ATOM    138  C   UNL     1     158.531 159.859 195.647  0.00  0.00    -0.026 C 
ATOM    139  H   UNL     1     159.362 159.168 195.845  0.00  0.00    +0.029 HD
ATOM    140  H   UNL     1     157.622 159.247 195.632  0.00  0.00    +0.029 HD
BRANCH 138 143
ATOM    141  C   UNL     1     159.268 163.099 197.342  0.00  0.00    +0.059 C 
ATOM    142  O   UNL     1     158.965 162.129 196.332  0.00  0.00    -0.373 OA
ATOM    143  C   UNL     1     158.460 160.877 196.797  0.00  0.00    +0.061 C 
ATOM    144  C   UNL     1     159.262 160.374 198.000  0.00  0.00    -0.000 C 
ATOM    145  C   UNL     1     159.223 161.378 199.159  0.00  0.00    +0.063 C 
ATOM    146  C   UNL     1     158.699 162.742 198.710  0.00  0.00    -0.000 C 
ATOM    147  H   UNL     1     160.361 163.157 197.407  0.00  0.00    +0.059 HD
ATOM    148  H   UNL     1     157.411 161.009 197.084  0.00  0.00    +0.060 HD
ATOM    149  H   UNL     1     158.898 159.387 198.306  0.00  0.00    +0.032 HD
ATOM    150  H   UNL     1     160.311 160.259 197.695  0.00  0.00    +0.032 HD
ATOM    151  H   UNL     1     160.238 161.510 199.560  0.00  0.00    +0.060 HD
ATOM    152  H   UNL     1     158.959 163.501 199.457  0.00  0.00    +0.032 HD
ATOM    153  H   UNL     1     157.604 162.725 198.670  0.00  0.00    +0.032 HD
BRANCH 141 154
ATOM    154  C   UNL     1     158.746 164.447 196.866  0.00  0.00    -0.039 C 
ATOM    155  H   UNL     1     158.243 164.358 195.897  0.00  0.00    +0.025 HD
ATOM    156  H   UNL     1     158.037 164.864 197.589  0.00  0.00    +0.025 HD
ATOM    157  H   UNL     1     159.562 165.171 196.768  0.00  0.00    +0.025 HD
ENDBRANCH 141 154
BRANCH 145 158
ATOM    158  O   UNL     1     158.365 160.917 200.209  0.00  0.00    -0.380 OA
BRANCH 158 159
ATOM    159  C   UNL     1     158.370 159.503 200.359  0.00  0.00    +0.037 C 
ATOM    160  H   UNL     1     157.345 159.144 200.227  0.00  0.00    +0.052 HD
ATOM    161  H   UNL     1     159.005 159.024 199.609  0.00  0.00    +0.052 HD
ATOM    162  H   UNL     1     158.707 159.231 201.364  0.00  0.00    +0.052 HD
ENDBRANCH 158 159
ENDBRANCH 145 158
ENDBRANCH 138 143
ENDBRANCH 135 138
ENDBRANCH 129 135
ENDBRANCH 127 129
BRANCH 127 163
ATOM    163  O   UNL     1     160.229 162.617 193.482  0.00  0.00    -0.391 OA
ATOM    164  H   UNL     1     160.796 163.368 193.231  0.00  0.00    +0.210 HD
ENDBRANCH 127 163
ENDBRANCH 121 127
ENDBRANCH   1 121
BRANCH  41 165
ATOM    165  O   UNL     1     160.202 157.505 189.270  0.00  0.00    -0.391 OA
ATOM    166  H   UNL     1     160.606 156.696 189.626  0.00  0.00    +0.210 HD
ENDBRANCH  41 165
BRANCH  39 167
ATOM    167  O   UNL     1     157.284 157.830 192.649  0.00  0.00    -0.391 OA
ATOM    168  H   UNL     1     157.499 158.650 193.127  0.00  0.00    +0.210 HD
ENDBRANCH  39 167
BRANCH  31 169
ATOM    169  O   UNL     1     154.085 160.795 182.859  0.00  0.00    -0.391 OA
ATOM    170  H   UNL     1     153.674 160.122 182.286  0.00  0.00    +0.210 HD
ENDBRANCH  31 169
BRANCH  22 171
ATOM    171  C   UNL     1     147.564 166.273 188.913  0.00  0.00    +0.020 C 
ATOM    172  H   UNL     1     147.141 167.253 188.657  0.00  0.00    +0.036 HD
BRANCH 171 173
ATOM    173  C   UNL     1     146.954 165.809 190.252  0.00  0.00    -0.057 C 
ATOM    174  H   UNL     1     146.489 164.822 190.164  0.00  0.00    +0.023 HD
ATOM    175  H   UNL     1     147.708 165.750 191.043  0.00  0.00    +0.023 HD
ATOM    176  H   UNL     1     146.155 166.466 190.595  0.00  0.00    +0.023 HD
ENDBRANCH 171 173
BRANCH 171 177
ATOM    177  C   UNL     1     149.118 166.446 188.991  0.00  0.00    +0.064 C 
ATOM    178  H   UNL     1     149.587 165.485 188.748  0.00  0.00    +0.060 HD
BRANCH 177 179
ATOM    179  O   UNL     1     149.514 167.382 187.988  0.00  0.00    -0.391 OA
ATOM    180  H   UNL     1     150.490 167.368 187.908  0.00  0.00    +0.210 HD
ENDBRANCH 177 179
BRANCH 177 181
ATOM    181  C   UNL     1     149.737 166.968 190.328  0.00  0.00    -0.017 C 
ATOM    182  H   UNL     1     149.408 166.301 191.136  0.00  0.00    +0.032 HD
BRANCH 181 183
ATOM    183  C   UNL     1     151.265 166.993 190.349  0.00  0.00    -0.060 C 
ATOM    184  H   UNL     1     151.651 167.487 189.454  0.00  0.00    +0.023 HD
ATOM    185  H   UNL     1     151.699 165.989 190.312  0.00  0.00    +0.023 HD
ATOM    186  H   UNL     1     151.646 167.494 191.243  0.00  0.00    +0.023 HD
ENDBRANCH 181 183
BRANCH 181 187
ATOM    187  C   UNL     1     149.143 168.373 190.649  0.00  0.00    -0.046 C 
ATOM    188  H   UNL     1     148.141 168.444 190.208  0.00  0.00    +0.027 HD
ATOM    189  H   UNL     1     149.754 169.144 190.161  0.00  0.00    +0.027 HD
BRANCH 187 190
ATOM    190  C   UNL     1     149.031 168.701 192.145  0.00  0.00    -0.026 C 
ATOM    191  H   UNL     1     149.949 169.191 192.488  0.00  0.00    +0.029 HD
ATOM    192  H   UNL     1     148.200 169.405 192.282  0.00  0.00    +0.029 HD
BRANCH 190 193
ATOM    193  C   UNL     1     148.760 167.462 193.013  0.00  0.00    +0.061 C 
ATOM    194  O   UNL     1     147.752 167.792 193.974  0.00  0.00    -0.373 OA
ATOM    195  C   UNL     1     147.388 166.713 194.840  0.00  0.00    +0.059 C 
ATOM    196  C   UNL     1     148.607 166.170 195.591  0.00  0.00    -0.000 C 
ATOM    197  C   UNL     1     149.792 165.862 194.675  0.00  0.00    +0.063 C 
ATOM    198  C   UNL     1     150.044 167.034 193.727  0.00  0.00    -0.000 C 
ATOM    199  H   UNL     1     148.398 166.661 192.358  0.00  0.00    +0.060 HD
ATOM    200  H   UNL     1     146.716 167.152 195.589  0.00  0.00    +0.059 HD
ATOM    201  H   UNL     1     148.320 165.300 196.188  0.00  0.00    +0.032 HD
ATOM    202  H   UNL     1     148.936 166.948 196.295  0.00  0.00    +0.032 HD
ATOM    203  H   UNL     1     150.697 165.707 195.277  0.00  0.00    +0.060 HD
ATOM    204  H   UNL     1     150.807 166.764 192.988  0.00  0.00    +0.032 HD
ATOM    205  H   UNL     1     150.429 167.874 194.319  0.00  0.00    +0.032 HD
BRANCH 195 206
ATOM    206  C   UNL     1     146.573 165.647 194.111  0.00  0.00    -0.039 C 
ATOM    207  H   UNL     1     146.433 165.932 193.062  0.00  0.00    +0.025 HD
ATOM    208  H   UNL     1     145.588 165.526 194.573  0.00  0.00    +0.025 HD
ATOM    209  H   UNL     1     147.061 164.669 194.099  0.00  0.00    +0.025 HD
ENDBRANCH 195 206
BRANCH 197 210
ATOM    210  O   UNL     1     149.563 164.693 193.881  0.00  0.00    -0.380 OA
BRANCH 210 211
ATOM    211  C   UNL     1     150.645 164.373 193.017  0.00  0.00    +0.037 C 
ATOM    212  H   UNL     1     150.500 163.353 192.653  0.00  0.00    +0.052 HD
ATOM    213  H   UNL     1     150.658 165.049 192.157  0.00  0.00    +0.052 HD
ATOM    214  H   UNL     1     151.601 164.417 193.544  0.00  0.00    +0.052 HD
ENDBRANCH 210 211
ENDBRANCH 197 210
ENDBRANCH 190 193
ENDBRANCH 187 190
ENDBRANCH 181 187
ENDBRANCH 177 181
ENDBRANCH 171 177
ENDBRANCH  22 171
BRANCH  20 215
ATOM    215  O   UNL     1     146.709 162.076 187.058  0.00  0.00    -0.391 OA
ATOM    216  H   UNL     1     146.093 162.602 186.522  0.00  0.00    +0.210 HD
ENDBRANCH  20 215
BRANCH  18 217
ATOM    217  O   UNL     1     148.465 161.989 190.728  0.00  0.00    -0.391 OA
ATOM    218  H   UNL     1     148.607 161.700 191.649  0.00  0.00    +0.210 HD
ENDBRANCH  18 217
BRANCH  10 219
ATOM    219  O   UNL     1     152.118 166.486 187.481  0.00  0.00    -0.391 OA
ATOM    220  H   UNL     1     152.216 167.451 187.546  0.00  0.00    +0.210 HD
ENDBRANCH  10 219
BRANCH  37 221
ATOM    221  O   UNL     1     156.250 156.210 188.242  0.00  0.00    -0.379 OA
BRANCH 221 222
ATOM    222  C   UNL     1     157.012 155.536 187.249  0.00  0.00    +0.037 C 
ATOM    223  H   UNL     1     156.524 154.581 187.037  0.00  0.00    +0.052 HD
ATOM    224  H   UNL     1     157.032 156.123 186.327  0.00  0.00    +0.052 HD
ATOM    225  H   UNL     1     158.033 155.338 187.590  0.00  0.00    +0.052 HD
ENDBRANCH 221 222
ENDBRANCH  37 221
BRANCH  16 226
ATOM    226  O   UNL     1     150.431 158.830 188.692  0.00  0.00    -0.379 OA
BRANCH 226 227
ATOM    227  C   UNL     1     151.120 157.957 189.579  0.00  0.00    +0.037 C 
ATOM    228  H   UNL     1     152.045 157.632 189.094  0.00  0.00    +0.052 HD
ATOM    229  H   UNL     1     151.379 158.475 190.507  0.00  0.00    +0.052 HD
ATOM    230  H   UNL     1     150.514 157.073 189.801  0.00  0.00    +0.052 HD
ENDBRANCH 226 227
ENDBRANCH  16 226
TORSDOF 40
ENDMDL
MODEL 3
REMARK VINA RESULT:      -6.2      1.287      2.451
REMARK  Name = Swinholide A_conf3
REMARK  40 active torsions:
REMARK  status: ('A' for Active; 'I' for Inactive)
REMARK    1  A    between atoms: C_1  and  C_2
REMARK    2  A    between atoms: C_4  and  C_10
REMARK    3  A    between atoms: C_6  and  O_8
REMARK    4  A    between atoms: O_8  and  C_9
REMARK    5  A    between atoms: C_10  and  C_11
REMARK    6  A    between atoms: C_11  and  C_12
REMARK    7  A    between atoms: C_12  and  C_13
REMARK    8  A    between atoms: C_12  and  C_98
REMARK    9  A    between atoms: C_13  and  O_14
REMARK   10  A    between atoms: C_13  and  C_15
REMARK   11  A    between atoms: C_15  and  C_16
REMARK   12  A    between atoms: C_15  and  C_97
REMARK   13  A    between atoms: C_22  and  C_96
REMARK   14  A    between atoms: C_25  and  O_95
REMARK   15  A    between atoms: C_31  and  O_90
REMARK   16  A    between atoms: C_32  and  C_89
REMARK   17  A    between atoms: C_33  and  O_88
REMARK   18  A    between atoms: C_35  and  O_87
REMARK   19  A    between atoms: C_36  and  C_86
REMARK   20  A    between atoms: C_37  and  C_69
REMARK   21  A    between atoms: C_43  and  C_68
REMARK   22  A    between atoms: C_46  and  O_67
REMARK   23  A    between atoms: C_52  and  O_62
REMARK   24  A    between atoms: C_53  and  C_61
REMARK   25  A    between atoms: C_54  and  O_60
REMARK   26  A    between atoms: C_56  and  O_59
REMARK   27  A    between atoms: C_57  and  C_58
REMARK   28  A    between atoms: O_62  and  C_63
REMARK   29  A    between atoms: C_69  and  C_70
REMARK   30  A    between atoms: C_69  and  C_85
REMARK   31  A    between atoms: C_70  and  O_71
REMARK   32  A    between atoms: C_70  and  C_72
REMARK   33  A    between atoms: C_72  and  C_73
REMARK   34  A    between atoms: C_72  and  C_84
REMARK   35  A    between atoms: C_73  and  C_74
REMARK   36  A    between atoms: C_74  and  C_75
REMARK   37  A    between atoms: C_77  and  C_83
REMARK   38  A    between atoms: C_79  and  O_81
REMARK   39  A    between atoms: O_81  and  C_82
REMARK   40  A    between atoms: O_90  and  C_91
REMARK                            x       y       z     vdW  Elec       q    Type
REMARK                         _______ _______ _______ _____ _____    ______ ____
ROOT
ATOM      1  C   UNL     1     159.671 161.049 190.747  0.00  0.00    +0.113 C 
ATOM      2  O   UNL     1     158.942 162.171 190.183  0.00  0.00    -0.458 OA
ATOM      3  C   UNL     1     157.598 162.134 190.389  0.00  0.00    +0.332 C 
ATOM      4  O   UNL     1     156.999 161.321 191.079  0.00  0.00    -0.246 OA
ATOM      5  C   UNL     1     156.856 163.173 189.670  0.00  0.00    +0.023 C 
ATOM      6  C   UNL     1     157.329 164.355 189.250  0.00  0.00    -0.052 C 
ATOM      7  C   UNL     1     156.451 165.359 188.655  0.00  0.00    -0.054 C 
ATOM      8  C   UNL     1     155.257 165.630 189.221  0.00  0.00    -0.079 C 
ATOM      9  C   UNL     1     154.179 166.552 188.734  0.00  0.00    -0.008 C 
ATOM     10  C   UNL     1     153.281 166.035 187.587  0.00  0.00    +0.061 C 
ATOM     11  C   UNL     1     153.196 164.519 187.370  0.00  0.00    +0.003 C 
ATOM     12  C   UNL     1     152.270 163.675 188.261  0.00  0.00    +0.080 C 
ATOM     13  O   UNL     1     152.472 162.329 187.783  0.00  0.00    -0.369 OA
ATOM     14  C   UNL     1     152.015 161.276 188.650  0.00  0.00    +0.065 C 
ATOM     15  C   UNL     1     150.478 161.281 188.716  0.00  0.00    +0.000 C 
ATOM     16  C   UNL     1     149.837 160.041 189.371  0.00  0.00    +0.066 C 
ATOM     17  C   UNL     1     148.290 160.087 189.199  0.00  0.00    +0.009 C 
ATOM     18  C   UNL     1     147.540 161.000 190.213  0.00  0.00    +0.063 C 
ATOM     19  C   UNL     1     146.345 161.759 189.588  0.00  0.00    -0.000 C 
ATOM     20  C   UNL     1     146.786 162.764 188.500  0.00  0.00    +0.064 C 
ATOM     21  C   UNL     1     146.079 164.142 188.612  0.00  0.00    +0.020 C 
ATOM     22  C   UNL     1     146.934 165.345 188.075  0.00  0.00    +0.113 C 
ATOM     23  O   UNL     1     148.060 164.897 187.297  0.00  0.00    -0.458 OA
ATOM     24  C   UNL     1     147.844 164.672 185.978  0.00  0.00    +0.332 C 
ATOM     25  O   UNL     1     146.869 165.012 185.328  0.00  0.00    -0.246 OA
ATOM     26  C   UNL     1     149.001 163.913 185.460  0.00  0.00    +0.023 C 
ATOM     27  C   UNL     1     149.020 163.505 184.183  0.00  0.00    -0.052 C 
ATOM     28  C   UNL     1     150.083 162.714 183.577  0.00  0.00    -0.054 C 
ATOM     29  C   UNL     1     150.629 161.661 184.218  0.00  0.00    -0.079 C 
ATOM     30  C   UNL     1     151.683 160.724 183.690  0.00  0.00    -0.008 C 
ATOM     31  C   UNL     1     153.107 161.185 184.056  0.00  0.00    +0.061 C 
ATOM     32  C   UNL     1     153.726 160.325 185.170  0.00  0.00    +0.003 C 
ATOM     33  C   UNL     1     155.011 160.933 185.760  0.00  0.00    +0.080 C 
ATOM     34  O   UNL     1     155.275 160.373 187.063  0.00  0.00    -0.369 OA
ATOM     35  C   UNL     1     156.000 159.127 187.051  0.00  0.00    +0.065 C 
ATOM     36  C   UNL     1     156.095 158.661 188.519  0.00  0.00    +0.000 C 
ATOM     37  C   UNL     1     156.900 157.363 188.743  0.00  0.00    +0.066 C 
ATOM     38  C   UNL     1     157.000 156.981 190.251  0.00  0.00    +0.009 C 
ATOM     39  C   UNL     1     157.739 157.999 191.163  0.00  0.00    +0.063 C 
ATOM     40  C   UNL     1     159.277 157.959 191.297  0.00  0.00    -0.000 C 
ATOM     41  C   UNL     1     160.143 158.538 190.169  0.00  0.00    +0.064 C 
ATOM     42  C   UNL     1     159.749 159.940 189.651  0.00  0.00    +0.020 C 
ATOM     43  C   UNL     1     157.386 159.365 186.432  0.00  0.00    -0.008 C 
ATOM     44  C   UNL     1     157.300 160.109 185.141  0.00  0.00    -0.083 C 
ATOM     45  C   UNL     1     156.209 160.825 184.846  0.00  0.00    -0.059 C 
ATOM     46  C   UNL     1     152.744 161.365 189.998  0.00  0.00    -0.008 C 
ATOM     47  C   UNL     1     152.722 162.753 190.551  0.00  0.00    -0.083 C 
ATOM     48  C   UNL     1     152.493 163.799 189.744  0.00  0.00    -0.059 C 
ATOM     49  H   UNL     1     159.074 160.634 191.567  0.00  0.00    +0.074 HD
ATOM     50  H   UNL     1     155.804 162.923 189.560  0.00  0.00    +0.069 HD
ATOM     51  H   UNL     1     158.381 164.608 189.346  0.00  0.00    +0.062 HD
ATOM     52  H   UNL     1     154.995 165.119 190.147  0.00  0.00    +0.058 HD
ATOM     53  H   UNL     1     154.621 167.511 188.432  0.00  0.00    +0.033 HD
ATOM     54  H   UNL     1     153.553 166.815 189.596  0.00  0.00    +0.033 HD
ATOM     55  H   UNL     1     153.686 166.460 186.659  0.00  0.00    +0.060 HD
ATOM     56  H   UNL     1     154.199 164.074 187.348  0.00  0.00    +0.032 HD
ATOM     57  H   UNL     1     152.830 164.367 186.342  0.00  0.00    +0.032 HD
ATOM     58  H   UNL     1     151.233 163.952 188.044  0.00  0.00    +0.064 HD
ATOM     59  H   UNL     1     152.332 160.346 188.167  0.00  0.00    +0.060 HD
ATOM     60  H   UNL     1     150.120 161.360 187.681  0.00  0.00    +0.032 HD
ATOM     61  H   UNL     1     150.134 162.189 189.210  0.00  0.00    +0.032 HD
ATOM     62  H   UNL     1     150.093 159.991 190.437  0.00  0.00    +0.060 HD
ATOM     63  H   UNL     1     148.100 160.444 188.180  0.00  0.00    +0.035 HD
ATOM     64  H   UNL     1     147.148 160.368 191.020  0.00  0.00    +0.060 HD
ATOM     65  H   UNL     1     145.852 162.297 190.406  0.00  0.00    +0.032 HD
ATOM     66  H   UNL     1     145.623 161.040 189.183  0.00  0.00    +0.032 HD
ATOM     67  H   UNL     1     147.861 162.909 188.590  0.00  0.00    +0.060 HD
ATOM     68  H   UNL     1     145.881 164.331 189.672  0.00  0.00    +0.036 HD
ATOM     69  H   UNL     1     146.310 165.971 187.422  0.00  0.00    +0.074 HD
ATOM     70  H   UNL     1     149.788 163.673 186.162  0.00  0.00    +0.069 HD
ATOM     71  H   UNL     1     148.193 163.773 183.523  0.00  0.00    +0.062 HD
ATOM     72  H   UNL     1     150.283 161.409 185.222  0.00  0.00    +0.058 HD
ATOM     73  H   UNL     1     151.482 159.724 184.097  0.00  0.00    +0.033 HD
ATOM     74  H   UNL     1     151.573 160.608 182.605  0.00  0.00    +0.033 HD
ATOM     75  H   UNL     1     153.103 162.236 184.367  0.00  0.00    +0.060 HD
ATOM     76  H   UNL     1     152.998 160.197 185.976  0.00  0.00    +0.032 HD
ATOM     77  H   UNL     1     153.940 159.318 184.787  0.00  0.00    +0.032 HD
ATOM     78  H   UNL     1     154.835 161.999 185.948  0.00  0.00    +0.064 HD
ATOM     79  H   UNL     1     155.431 158.391 186.468  0.00  0.00    +0.060 HD
ATOM     80  H   UNL     1     156.505 159.486 189.106  0.00  0.00    +0.032 HD
ATOM     81  H   UNL     1     155.069 158.522 188.889  0.00  0.00    +0.032 HD
ATOM     82  H   UNL     1     157.900 157.472 188.322  0.00  0.00    +0.060 HD
ATOM     83  H   UNL     1     155.960 156.932 190.611  0.00  0.00    +0.035 HD
ATOM     84  H   UNL     1     157.427 159.009 190.921  0.00  0.00    +0.060 HD
ATOM     85  H   UNL     1     159.589 156.924 191.489  0.00  0.00    +0.032 HD
ATOM     86  H   UNL     1     159.543 158.492 192.221  0.00  0.00    +0.032 HD
ATOM     87  H   UNL     1     161.176 158.573 190.535  0.00  0.00    +0.060 HD
ATOM     88  H   UNL     1     158.734 159.846 189.253  0.00  0.00    +0.036 HD
ATOM     89  H   UNL     1     157.903 158.416 186.263  0.00  0.00    +0.033 HD
ATOM     90  H   UNL     1     157.998 159.969 187.106  0.00  0.00    +0.033 HD
ATOM     91  H   UNL     1     158.143 160.077 184.457  0.00  0.00    +0.057 HD
ATOM     92  H   UNL     1     156.166 161.359 183.902  0.00  0.00    +0.059 HD
ATOM     93  H   UNL     1     153.795 161.082 189.861  0.00  0.00    +0.033 HD
ATOM     94  H   UNL     1     152.314 160.665 190.719  0.00  0.00    +0.033 HD
ATOM     95  H   UNL     1     152.874 162.893 191.617  0.00  0.00    +0.057 HD
ATOM     96  H   UNL     1     152.401 164.789 190.177  0.00  0.00    +0.059 HD
ENDROOT
BRANCH  28  97
ATOM     97  C   UNL     1     150.451 163.161 182.188  0.00  0.00    -0.040 C 
ATOM     98  H   UNL     1     150.562 164.245 182.099  0.00  0.00    +0.028 HD
ATOM     99  H   UNL     1     151.395 162.702 181.873  0.00  0.00    +0.028 HD
ATOM    100  H   UNL     1     149.669 162.868 181.477  0.00  0.00    +0.028 HD
ENDBRANCH  28  97
BRANCH  21 101
ATOM    101  C   UNL     1     144.693 164.148 187.950  0.00  0.00    -0.057 C 
ATOM    102  H   UNL     1     143.999 164.823 188.458  0.00  0.00    +0.023 HD
ATOM    103  H   UNL     1     144.253 163.145 187.971  0.00  0.00    +0.023 HD
ATOM    104  H   UNL     1     144.762 164.452 186.900  0.00  0.00    +0.023 HD
ENDBRANCH  21 101
BRANCH  42 105
ATOM    105  C   UNL     1     160.570 160.332 188.412  0.00  0.00    -0.057 C 
ATOM    106  H   UNL     1     161.023 161.320 188.550  0.00  0.00    +0.023 HD
ATOM    107  H   UNL     1     161.386 159.627 188.222  0.00  0.00    +0.023 HD
ATOM    108  H   UNL     1     159.949 160.413 187.518  0.00  0.00    +0.023 HD
ENDBRANCH  42 105
BRANCH  17 109
ATOM    109  C   UNL     1     147.645 158.690 189.231  0.00  0.00    -0.058 C 
ATOM    110  H   UNL     1     147.043 158.509 188.337  0.00  0.00    +0.023 HD
ATOM    111  H   UNL     1     147.004 158.565 190.110  0.00  0.00    +0.023 HD
ATOM    112  H   UNL     1     148.410 157.907 189.286  0.00  0.00    +0.023 HD
ENDBRANCH  17 109
BRANCH  38 113
ATOM    113  C   UNL     1     157.535 155.555 190.458  0.00  0.00    -0.058 C 
ATOM    114  H   UNL     1     156.957 154.822 189.889  0.00  0.00    +0.023 HD
ATOM    115  H   UNL     1     158.585 155.479 190.150  0.00  0.00    +0.023 HD
ATOM    116  H   UNL     1     157.497 155.270 191.515  0.00  0.00    +0.023 HD
ENDBRANCH  38 113
BRANCH   7 117
ATOM    117  C   UNL     1     156.968 166.010 187.406  0.00  0.00    -0.040 C 
ATOM    118  H   UNL     1     157.991 166.361 187.562  0.00  0.00    +0.028 HD
ATOM    119  H   UNL     1     156.369 166.873 187.103  0.00  0.00    +0.028 HD
ATOM    120  H   UNL     1     156.968 165.305 186.568  0.00  0.00    +0.028 HD
ENDBRANCH   7 117
BRANCH   1 121
ATOM    121  C   UNL     1     160.977 161.521 191.454  0.00  0.00    +0.020 C 
ATOM    122  H   UNL     1     161.761 160.815 191.151  0.00  0.00    +0.036 HD
BRANCH 121 123
ATOM    123  C   UNL     1     161.495 162.900 191.054  0.00  0.00    -0.057 C 
ATOM    124  H   UNL     1     161.348 163.101 189.991  0.00  0.00    +0.023 HD
ATOM    125  H   UNL     1     161.002 163.685 191.635  0.00  0.00    +0.023 HD
ATOM    126  H   UNL     1     162.555 163.009 191.290  0.00  0.00    +0.023 HD
ENDBRANCH 121 123
BRANCH 121 127
ATOM    127  C   UNL     1     160.838 161.389 193.007  0.00  0.00    +0.064 C 
ATOM    128  H   UNL     1     161.855 161.423 193.417  0.00  0.00    +0.060 HD
BRANCH 127 129
ATOM    129  C   UNL     1     160.102 160.121 193.556  0.00  0.00    -0.017 C 
ATOM    130  H   UNL     1     159.943 159.422 192.732  0.00  0.00    +0.032 HD
BRANCH 129 131
ATOM    131  C   UNL     1     161.024 159.409 194.559  0.00  0.00    -0.060 C 
ATOM    132  H   UNL     1     160.446 158.845 195.300  0.00  0.00    +0.023 HD
ATOM    133  H   UNL     1     161.649 160.131 195.098  0.00  0.00    +0.023 HD
ATOM    134  H   UNL     1     161.703 158.715 194.054  0.00  0.00    +0.023 HD
ENDBRANCH 129 131
BRANCH 129 135
ATOM    135  C   UNL     1     158.741 160.426 194.226  0.00  0.00    -0.046 C 
ATOM    136  H   UNL     1     157.919 160.093 193.587  0.00  0.00    +0.027 HD
ATOM    137  H   UNL     1     158.618 161.513 194.323  0.00  0.00    +0.027 HD
BRANCH 135 138
ATOM    138  C   UNL     1     158.523 159.819 195.623  0.00  0.00    -0.026 C 
ATOM    139  H   UNL     1     159.366 159.136 195.800  0.00  0.00    +0.029 HD
ATOM    140  H   UNL     1     157.620 159.196 195.627  0.00  0.00    +0.029 HD
BRANCH 138 143
ATOM    141  C   UNL     1     159.308 163.038 197.336  0.00  0.00    +0.059 C 
ATOM    142  O   UNL     1     158.991 162.078 196.320  0.00  0.00    -0.373 OA
ATOM    143  C   UNL     1     158.467 160.831 196.779  0.00  0.00    +0.061 C 
ATOM    144  C   UNL     1     159.262 160.310 197.979  0.00  0.00    -0.000 C 
ATOM    145  C   UNL     1     159.237 161.308 199.143  0.00  0.00    +0.063 C 
ATOM    146  C   UNL     1     158.734 162.682 198.701  0.00  0.00    -0.000 C 
ATOM    147  H   UNL     1     160.402 163.079 197.400  0.00  0.00    +0.059 HD
ATOM    148  H   UNL     1     157.420 160.977 197.067  0.00  0.00    +0.060 HD
ATOM    149  H   UNL     1     158.883 159.327 198.280  0.00  0.00    +0.032 HD
ATOM    150  H   UNL     1     160.308 160.181 197.674  0.00  0.00    +0.032 HD
ATOM    151  H   UNL     1     160.254 161.422 199.545  0.00  0.00    +0.060 HD
ATOM    152  H   UNL     1     159.005 163.433 199.453  0.00  0.00    +0.032 HD
ATOM    153  H   UNL     1     157.639 162.682 198.661  0.00  0.00    +0.032 HD
BRANCH 141 154
ATOM    154  C   UNL     1     158.806 164.396 196.866  0.00  0.00    -0.039 C 
ATOM    155  H   UNL     1     158.464 165.006 197.709  0.00  0.00    +0.025 HD
ATOM    156  H   UNL     1     159.598 164.940 196.341  0.00  0.00    +0.025 HD
ATOM    157  H   UNL     1     157.977 164.283 196.160  0.00  0.00    +0.025 HD
ENDBRANCH 141 154
BRANCH 145 158
ATOM    158  O   UNL     1     158.373 160.855 200.192  0.00  0.00    -0.380 OA
BRANCH 158 159
ATOM    159  C   UNL     1     158.351 159.439 200.329  0.00  0.00    +0.037 C 
ATOM    160  H   UNL     1     159.064 159.017 199.614  0.00  0.00    +0.052 HD
ATOM    161  H   UNL     1     158.646 159.131 201.335  0.00  0.00    +0.052 HD
ATOM    162  H   UNL     1     157.355 159.053 200.094  0.00  0.00    +0.052 HD
ENDBRANCH 158 159
ENDBRANCH 145 158
ENDBRANCH 138 143
ENDBRANCH 135 138
ENDBRANCH 129 135
ENDBRANCH 127 129
BRANCH 127 163
ATOM    163  O   UNL     1     160.199 162.580 193.486  0.00  0.00    -0.391 OA
ATOM    164  H   UNL     1     159.517 162.304 194.123  0.00  0.00    +0.210 HD
ENDBRANCH 127 163
ENDBRANCH 121 127
ENDBRANCH   1 121
BRANCH  41 165
ATOM    165  O   UNL     1     160.132 157.603 189.087  0.00  0.00    -0.391 OA
ATOM    166  H   UNL     1     159.764 158.060 188.312  0.00  0.00    +0.210 HD
ENDBRANCH  41 165
BRANCH  39 167
ATOM    167  O   UNL     1     157.252 157.778 192.509  0.00  0.00    -0.391 OA
ATOM    168  H   UNL     1     156.312 157.540 192.428  0.00  0.00    +0.210 HD
ENDBRANCH  39 167
BRANCH  31 169
ATOM    169  O   UNL     1     153.922 161.106 182.882  0.00  0.00    -0.391 OA
ATOM    170  H   UNL     1     153.941 161.996 182.484  0.00  0.00    +0.210 HD
ENDBRANCH  31 169
BRANCH  22 171
ATOM    171  C   UNL     1     147.442 166.302 189.222  0.00  0.00    +0.020 C 
ATOM    172  H   UNL     1     147.069 167.304 188.970  0.00  0.00    +0.036 HD
BRANCH 171 173
ATOM    173  C   UNL     1     146.771 165.842 190.533  0.00  0.00    -0.057 C 
ATOM    174  H   UNL     1     147.193 164.898 190.893  0.00  0.00    +0.023 HD
ATOM    175  H   UNL     1     146.889 166.583 191.330  0.00  0.00    +0.023 HD
ATOM    176  H   UNL     1     145.707 165.645 190.408  0.00  0.00    +0.023 HD
ENDBRANCH 171 173
BRANCH 171 177
ATOM    177  C   UNL     1     148.999 166.407 189.349  0.00  0.00    +0.064 C 
ATOM    178  H   UNL     1     149.435 165.436 189.084  0.00  0.00    +0.060 HD
BRANCH 177 179
ATOM    179  O   UNL     1     149.462 167.360 188.393  0.00  0.00    -0.391 OA
ATOM    180  H   UNL     1     148.736 167.986 188.191  0.00  0.00    +0.210 HD
ENDBRANCH 177 179
BRANCH 177 181
ATOM    181  C   UNL     1     149.599 166.856 190.721  0.00  0.00    -0.017 C 
ATOM    182  H   UNL     1     148.933 166.494 191.516  0.00  0.00    +0.032 HD
BRANCH 181 183
ATOM    183  C   UNL     1     150.995 166.306 191.009  0.00  0.00    -0.060 C 
ATOM    184  H   UNL     1     151.760 167.021 190.693  0.00  0.00    +0.023 HD
ATOM    185  H   UNL     1     151.215 165.403 190.433  0.00  0.00    +0.023 HD
ATOM    186  H   UNL     1     151.123 166.070 192.069  0.00  0.00    +0.023 HD
ENDBRANCH 181 183
BRANCH 181 187
ATOM    187  C   UNL     1     149.574 168.413 190.802  0.00  0.00    -0.046 C 
ATOM    188  H   UNL     1     149.355 168.817 189.806  0.00  0.00    +0.027 HD
ATOM    189  H   UNL     1     150.574 168.776 191.074  0.00  0.00    +0.027 HD
BRANCH 187 190
ATOM    190  C   UNL     1     148.550 168.992 191.789  0.00  0.00    -0.026 C 
ATOM    191  H   UNL     1     147.817 168.222 192.058  0.00  0.00    +0.029 HD
ATOM    192  H   UNL     1     149.082 169.288 192.702  0.00  0.00    +0.029 HD
BRANCH 190 193
ATOM    193  C   UNL     1     147.815 170.224 191.238  0.00  0.00    +0.061 C 
ATOM    194  O   UNL     1     147.573 171.130 192.320  0.00  0.00    -0.373 OA
ATOM    195  C   UNL     1     146.908 172.337 191.939  0.00  0.00    +0.059 C 
ATOM    196  C   UNL     1     145.569 172.040 191.254  0.00  0.00    -0.000 C 
ATOM    197  C   UNL     1     145.683 171.009 190.130  0.00  0.00    +0.063 C 
ATOM    198  C   UNL     1     146.488 169.800 190.604  0.00  0.00    -0.000 C 
ATOM    199  H   UNL     1     148.462 170.701 190.494  0.00  0.00    +0.060 HD
ATOM    200  H   UNL     1     146.681 172.856 192.879  0.00  0.00    +0.059 HD
ATOM    201  H   UNL     1     145.115 172.971 190.906  0.00  0.00    +0.032 HD
ATOM    202  H   UNL     1     144.896 171.618 192.013  0.00  0.00    +0.032 HD
ATOM    203  H   UNL     1     144.682 170.664 189.841  0.00  0.00    +0.060 HD
ATOM    204  H   UNL     1     146.678 169.121 189.765  0.00  0.00    +0.032 HD
ATOM    205  H   UNL     1     145.886 169.259 191.346  0.00  0.00    +0.032 HD
BRANCH 195 206
ATOM    206  C   UNL     1     147.824 173.269 191.149  0.00  0.00    -0.039 C 
ATOM    207  H   UNL     1     148.496 172.684 190.511  0.00  0.00    +0.025 HD
ATOM    208  H   UNL     1     148.430 173.882 191.823  0.00  0.00    +0.025 HD
ATOM    209  H   UNL     1     147.278 173.942 190.482  0.00  0.00    +0.025 HD
ENDBRANCH 195 206
BRANCH 197 210
ATOM    210  O   UNL     1     146.335 171.549 188.976  0.00  0.00    -0.380 OA
BRANCH 210 211
ATOM    211  C   UNL     1     145.550 172.504 188.275  0.00  0.00    +0.037 C 
ATOM    212  H   UNL     1     144.542 172.493 188.697  0.00  0.00    +0.052 HD
ATOM    213  H   UNL     1     145.967 173.507 188.403  0.00  0.00    +0.052 HD
ATOM    214  H   UNL     1     145.481 172.259 187.212  0.00  0.00    +0.052 HD
ENDBRANCH 210 211
ENDBRANCH 197 210
ENDBRANCH 190 193
ENDBRANCH 187 190
ENDBRANCH 181 187
ENDBRANCH 177 181
ENDBRANCH 171 177
ENDBRANCH  22 171
BRANCH  20 215
ATOM    215  O   UNL     1     146.589 162.176 187.212  0.00  0.00    -0.391 OA
ATOM    216  H   UNL     1     147.069 161.333 187.168  0.00  0.00    +0.210 HD
ENDBRANCH  20 215
BRANCH  18 217
ATOM    217  O   UNL     1     148.388 161.955 190.856  0.00  0.00    -0.391 OA
ATOM    218  H   UNL     1     148.667 161.561 191.703  0.00  0.00    +0.210 HD
ENDBRANCH  18 217
BRANCH  10 219
ATOM    219  O   UNL     1     151.977 166.599 187.747  0.00  0.00    -0.391 OA
ATOM    220  H   UNL     1     151.456 166.007 188.316  0.00  0.00    +0.210 HD
ENDBRANCH  10 219
BRANCH  37 221
ATOM    221  O   UNL     1     156.176 156.326 188.054  0.00  0.00    -0.379 OA
BRANCH 221 222
ATOM    222  C   UNL     1     156.930 155.696 187.027  0.00  0.00    +0.037 C 
ATOM    223  H   UNL     1     157.776 155.183 187.492  0.00  0.00    +0.052 HD
ATOM    224  H   UNL     1     156.317 154.950 186.515  0.00  0.00    +0.052 HD
ATOM    225  H   UNL     1     157.315 156.423 186.307  0.00  0.00    +0.052 HD
ENDBRANCH 221 222
ENDBRANCH  37 221
BRANCH  16 226
ATOM    226  O   UNL     1     150.347 158.892 188.674  0.00  0.00    -0.379 OA
BRANCH 226 227
ATOM    227  C   UNL     1     151.039 157.980 189.521  0.00  0.00    +0.037 C 
ATOM    228  H   UNL     1     150.575 156.996 189.419  0.00  0.00    +0.052 HD
ATOM    229  H   UNL     1     152.089 157.901 189.224  0.00  0.00    +0.052 HD
ATOM    230  H   UNL     1     150.967 158.293 190.567  0.00  0.00    +0.052 HD
ENDBRANCH 226 227
ENDBRANCH  16 226
TORSDOF 40
ENDMDL
MODEL 4
REMARK VINA RESULT:      -5.8      2.405     11.767
REMARK  Name = Swinholide A_conf3
REMARK  40 active torsions:
REMARK  status: ('A' for Active; 'I' for Inactive)
REMARK    1  A    between atoms: C_1  and  C_2
REMARK    2  A    between atoms: C_4  and  C_10
REMARK    3  A    between atoms: C_6  and  O_8
REMARK    4  A    between atoms: O_8  and  C_9
REMARK    5  A    between atoms: C_10  and  C_11
REMARK    6  A    between atoms: C_11  and  C_12
REMARK    7  A    between atoms: C_12  and  C_13
REMARK    8  A    between atoms: C_12  and  C_98
REMARK    9  A    between atoms: C_13  and  O_14
REMARK   10  A    between atoms: C_13  and  C_15
REMARK   11  A    between atoms: C_15  and  C_16
REMARK   12  A    between atoms: C_15  and  C_97
REMARK   13  A    between atoms: C_22  and  C_96
REMARK   14  A    between atoms: C_25  and  O_95
REMARK   15  A    between atoms: C_31  and  O_90
REMARK   16  A    between atoms: C_32  and  C_89
REMARK   17  A    between atoms: C_33  and  O_88
REMARK   18  A    between atoms: C_35  and  O_87
REMARK   19  A    between atoms: C_36  and  C_86
REMARK   20  A    between atoms: C_37  and  C_69
REMARK   21  A    between atoms: C_43  and  C_68
REMARK   22  A    between atoms: C_46  and  O_67
REMARK   23  A    between atoms: C_52  and  O_62
REMARK   24  A    between atoms: C_53  and  C_61
REMARK   25  A    between atoms: C_54  and  O_60
REMARK   26  A    between atoms: C_56  and  O_59
REMARK   27  A    between atoms: C_57  and  C_58
REMARK   28  A    between atoms: O_62  and  C_63
REMARK   29  A    between atoms: C_69  and  C_70
REMARK   30  A    between atoms: C_69  and  C_85
REMARK   31  A    between atoms: C_70  and  O_71
REMARK   32  A    between atoms: C_70  and  C_72
REMARK   33  A    between atoms: C_72  and  C_73
REMARK   34  A    between atoms: C_72  and  C_84
REMARK   35  A    between atoms: C_73  and  C_74
REMARK   36  A    between atoms: C_74  and  C_75
REMARK   37  A    between atoms: C_77  and  C_83
REMARK   38  A    between atoms: C_79  and  O_81
REMARK   39  A    between atoms: O_81  and  C_82
REMARK   40  A    between atoms: O_90  and  C_91
REMARK                            x       y       z     vdW  Elec       q    Type
REMARK                         _______ _______ _______ _____ _____    ______ ____
ROOT
ATOM      1  C   UNL     1     145.626 166.685 188.615  0.00  0.00    +0.113 C 
ATOM      2  O   UNL     1     146.516 165.662 189.134  0.00  0.00    -0.458 OA
ATOM      3  C   UNL     1     147.837 165.896 188.914  0.00  0.00    +0.332 C 
ATOM      4  O   UNL     1     148.316 166.912 188.430  0.00  0.00    -0.246 OA
ATOM      5  C   UNL     1     148.710 164.778 189.285  0.00  0.00    +0.023 C 
ATOM      6  C   UNL     1     148.451 163.819 190.185  0.00  0.00    -0.052 C 
ATOM      7  C   UNL     1     149.460 162.831 190.558  0.00  0.00    -0.054 C 
ATOM      8  C   UNL     1     150.727 163.222 190.804  0.00  0.00    -0.079 C 
ATOM      9  C   UNL     1     151.923 162.374 191.117  0.00  0.00    -0.008 C 
ATOM     10  C   UNL     1     152.600 161.654 189.929  0.00  0.00    +0.061 C 
ATOM     11  C   UNL     1     152.360 162.212 188.520  0.00  0.00    +0.003 C 
ATOM     12  C   UNL     1     153.170 163.427 188.038  0.00  0.00    +0.080 C 
ATOM     13  O   UNL     1     152.662 163.668 186.709  0.00  0.00    -0.369 OA
ATOM     14  C   UNL     1     152.969 164.953 186.138  0.00  0.00    +0.065 C 
ATOM     15  C   UNL     1     154.476 165.049 185.843  0.00  0.00    +0.000 C 
ATOM     16  C   UNL     1     154.908 166.246 184.973  0.00  0.00    +0.066 C 
ATOM     17  C   UNL     1     156.413 166.114 184.595  0.00  0.00    +0.009 C 
ATOM     18  C   UNL     1     157.413 166.568 185.698  0.00  0.00    +0.063 C 
ATOM     19  C   UNL     1     158.680 165.683 185.780  0.00  0.00    -0.000 C 
ATOM     20  C   UNL     1     158.359 164.230 186.199  0.00  0.00    +0.064 C 
ATOM     21  C   UNL     1     159.336 163.669 187.269  0.00  0.00    +0.020 C 
ATOM     22  C   UNL     1     158.697 162.587 188.212  0.00  0.00    +0.113 C 
ATOM     23  O   UNL     1     157.444 162.101 187.698  0.00  0.00    -0.458 OA
ATOM     24  C   UNL     1     157.499 161.069 186.820  0.00  0.00    +0.332 C 
ATOM     25  O   UNL     1     158.465 160.362 186.583  0.00  0.00    -0.246 OA
ATOM     26  C   UNL     1     156.175 160.961 186.175  0.00  0.00    +0.023 C 
ATOM     27  C   UNL     1     155.968 160.049 185.213  0.00  0.00    -0.052 C 
ATOM     28  C   UNL     1     154.721 159.882 184.479  0.00  0.00    -0.054 C 
ATOM     29  C   UNL     1     154.030 160.944 184.015  0.00  0.00    -0.079 C 
ATOM     30  C   UNL     1     152.769 160.916 183.192  0.00  0.00    -0.008 C 
ATOM     31  C   UNL     1     151.502 160.971 184.067  0.00  0.00    +0.061 C 
ATOM     32  C   UNL     1     150.818 162.346 184.013  0.00  0.00    +0.003 C 
ATOM     33  C   UNL     1     149.736 162.526 185.092  0.00  0.00    +0.080 C 
ATOM     34  O   UNL     1     149.474 163.929 185.306  0.00  0.00    -0.369 OA
ATOM     35  C   UNL     1     148.516 164.511 184.401  0.00  0.00    +0.065 C 
ATOM     36  C   UNL     1     148.451 166.016 184.739  0.00  0.00    +0.000 C 
ATOM     37  C   UNL     1     147.424 166.827 183.922  0.00  0.00    +0.066 C 
ATOM     38  C   UNL     1     147.376 168.325 184.351  0.00  0.00    +0.009 C 
ATOM     39  C   UNL     1     146.934 168.599 185.816  0.00  0.00    +0.063 C 
ATOM     40  C   UNL     1     145.437 168.694 186.179  0.00  0.00    -0.000 C 
ATOM     41  C   UNL     1     144.614 167.404 186.309  0.00  0.00    +0.064 C 
ATOM     42  C   UNL     1     145.236 166.275 187.161  0.00  0.00    +0.020 C 
ATOM     43  C   UNL     1     147.159 163.819 184.601  0.00  0.00    -0.008 C 
ATOM     44  C   UNL     1     147.284 162.331 184.586  0.00  0.00    -0.083 C 
ATOM     45  C   UNL     1     148.468 161.752 184.815  0.00  0.00    -0.059 C 
ATOM     46  C   UNL     1     152.388 166.063 187.025  0.00  0.00    -0.008 C 
ATOM     47  C   UNL     1     152.734 165.862 188.465  0.00  0.00    -0.083 C 
ATOM     48  C   UNL     1     153.101 164.652 188.911  0.00  0.00    -0.059 C 
ATOM     49  H   UNL     1     146.194 167.619 188.533  0.00  0.00    +0.074 HD
ATOM     50  H   UNL     1     149.678 164.834 188.793  0.00  0.00    +0.069 HD
ATOM     51  H   UNL     1     147.482 163.750 190.673  0.00  0.00    +0.062 HD
ATOM     52  H   UNL     1     150.956 164.287 190.764  0.00  0.00    +0.058 HD
ATOM     53  H   UNL     1     151.659 161.627 191.878  0.00  0.00    +0.033 HD
ATOM     54  H   UNL     1     152.659 163.012 191.623  0.00  0.00    +0.033 HD
ATOM     55  H   UNL     1     152.212 160.626 189.925  0.00  0.00    +0.060 HD
ATOM     56  H   UNL     1     151.290 162.385 188.349  0.00  0.00    +0.032 HD
ATOM     57  H   UNL     1     152.602 161.402 187.813  0.00  0.00    +0.032 HD
ATOM     58  H   UNL     1     154.220 163.131 187.943  0.00  0.00    +0.064 HD
ATOM     59  H   UNL     1     152.433 164.981 185.184  0.00  0.00    +0.060 HD
ATOM     60  H   UNL     1     154.755 164.119 185.331  0.00  0.00    +0.032 HD
ATOM     61  H   UNL     1     155.036 165.042 186.779  0.00  0.00    +0.032 HD
ATOM     62  H   UNL     1     154.737 167.191 185.503  0.00  0.00    +0.060 HD
ATOM     63  H   UNL     1     156.585 165.057 184.362  0.00  0.00    +0.035 HD
ATOM     64  H   UNL     1     157.736 167.592 185.470  0.00  0.00    +0.060 HD
ATOM     65  H   UNL     1     159.337 166.144 186.527  0.00  0.00    +0.032 HD
ATOM     66  H   UNL     1     159.206 165.704 184.819  0.00  0.00    +0.032 HD
ATOM     67  H   UNL     1     157.347 164.209 186.598  0.00  0.00    +0.060 HD
ATOM     68  H   UNL     1     159.655 164.504 187.901  0.00  0.00    +0.036 HD
ATOM     69  H   UNL     1     159.378 161.728 188.290  0.00  0.00    +0.074 HD
ATOM     70  H   UNL     1     155.417 161.668 186.482  0.00  0.00    +0.069 HD
ATOM     71  H   UNL     1     156.774 159.365 184.942  0.00  0.00    +0.062 HD
ATOM     72  H   UNL     1     154.401 161.950 184.214  0.00  0.00    +0.058 HD
ATOM     73  H   UNL     1     152.799 161.768 182.499  0.00  0.00    +0.033 HD
ATOM     74  H   UNL     1     152.763 160.032 182.544  0.00  0.00    +0.033 HD
ATOM     75  H   UNL     1     151.743 160.724 185.108  0.00  0.00    +0.060 HD
ATOM     76  H   UNL     1     151.571 163.131 184.138  0.00  0.00    +0.032 HD
ATOM     77  H   UNL     1     150.376 162.502 183.020  0.00  0.00    +0.032 HD
ATOM     78  H   UNL     1     150.136 162.170 186.048  0.00  0.00    +0.064 HD
ATOM     79  H   UNL     1     148.874 164.381 183.372  0.00  0.00    +0.060 HD
ATOM     80  H   UNL     1     148.266 166.110 185.812  0.00  0.00    +0.032 HD
ATOM     81  H   UNL     1     149.455 166.433 184.580  0.00  0.00    +0.032 HD
ATOM     82  H   UNL     1     146.435 166.380 184.025  0.00  0.00    +0.060 HD
ATOM     83  H   UNL     1     148.410 168.691 184.260  0.00  0.00    +0.035 HD
ATOM     84  H   UNL     1     147.421 167.900 186.487  0.00  0.00    +0.060 HD
ATOM     85  H   UNL     1     144.940 169.361 185.463  0.00  0.00    +0.032 HD
ATOM     86  H   UNL     1     145.361 169.228 187.136  0.00  0.00    +0.032 HD
ATOM     87  H   UNL     1     143.642 167.678 186.739  0.00  0.00    +0.060 HD
ATOM     88  H   UNL     1     146.175 166.001 186.669  0.00  0.00    +0.036 HD
ATOM     89  H   UNL     1     146.450 164.125 183.826  0.00  0.00    +0.033 HD
ATOM     90  H   UNL     1     146.738 164.092 185.571  0.00  0.00    +0.033 HD
ATOM     91  H   UNL     1     146.398 161.730 184.409  0.00  0.00    +0.057 HD
ATOM     92  H   UNL     1     148.538 160.668 184.800  0.00  0.00    +0.059 HD
ATOM     93  H   UNL     1     151.294 166.055 186.946  0.00  0.00    +0.033 HD
ATOM     94  H   UNL     1     152.728 167.046 186.690  0.00  0.00    +0.033 HD
ATOM     95  H   UNL     1     152.703 166.717 189.134  0.00  0.00    +0.057 HD
ATOM     96  H   UNL     1     153.425 164.545 189.940  0.00  0.00    +0.059 HD
ENDROOT
BRANCH  28  97
ATOM     97  C   UNL     1     154.336 158.443 184.263  0.00  0.00    -0.040 C 
ATOM     98  H   UNL     1     154.544 157.807 185.126  0.00  0.00    +0.028 HD
ATOM     99  H   UNL     1     153.266 158.361 184.038  0.00  0.00    +0.028 HD
ATOM    100  H   UNL     1     154.900 158.023 183.422  0.00  0.00    +0.028 HD
ENDBRANCH  28  97
BRANCH  21 101
ATOM    101  C   UNL     1     160.634 163.127 186.653  0.00  0.00    -0.057 C 
ATOM    102  H   UNL     1     161.492 163.769 186.875  0.00  0.00    +0.023 HD
ATOM    103  H   UNL     1     160.545 163.060 185.564  0.00  0.00    +0.023 HD
ATOM    104  H   UNL     1     160.854 162.120 187.025  0.00  0.00    +0.023 HD
ENDBRANCH  21 101
BRANCH  42 105
ATOM    105  C   UNL     1     144.410 164.981 187.068  0.00  0.00    -0.057 C 
ATOM    106  H   UNL     1     144.567 164.495 186.098  0.00  0.00    +0.023 HD
ATOM    107  H   UNL     1     144.694 164.258 187.841  0.00  0.00    +0.023 HD
ATOM    108  H   UNL     1     143.337 165.175 187.133  0.00  0.00    +0.023 HD
ENDBRANCH  42 105
BRANCH  17 109
ATOM    109  C   UNL     1     156.765 166.847 183.287  0.00  0.00    -0.058 C 
ATOM    110  H   UNL     1     155.998 166.688 182.524  0.00  0.00    +0.023 HD
ATOM    111  H   UNL     1     157.726 166.510 182.885  0.00  0.00    +0.023 HD
ATOM    112  H   UNL     1     156.854 167.927 183.455  0.00  0.00    +0.023 HD
ENDBRANCH  17 109
BRANCH  38 113
ATOM    113  C   UNL     1     146.584 169.192 183.359  0.00  0.00    -0.058 C 
ATOM    114  H   UNL     1     146.692 170.258 183.583  0.00  0.00    +0.023 HD
ATOM    115  H   UNL     1     146.920 169.021 182.330  0.00  0.00    +0.023 HD
ATOM    116  H   UNL     1     145.517 168.946 183.385  0.00  0.00    +0.023 HD
ENDBRANCH  38 113
BRANCH   7 117
ATOM    117  C   UNL     1     148.981 161.410 190.615  0.00  0.00    -0.040 C 
ATOM    118  H   UNL     1     148.013 161.319 190.116  0.00  0.00    +0.028 HD
ATOM    119  H   UNL     1     148.855 161.050 191.639  0.00  0.00    +0.028 HD
ATOM    120  H   UNL     1     149.690 160.737 190.120  0.00  0.00    +0.028 HD
ENDBRANCH   7 117
BRANCH   1 121
ATOM    121  C   UNL     1     144.505 167.033 189.640  0.00  0.00    +0.020 C 
ATOM    122  H   UNL     1     143.591 167.189 189.052  0.00  0.00    +0.036 HD
BRANCH 121 123
ATOM    123  C   UNL     1     144.157 165.943 190.650  0.00  0.00    -0.057 C 
ATOM    124  H   UNL     1     145.049 165.485 191.082  0.00  0.00    +0.023 HD
ATOM    125  H   UNL     1     143.537 166.343 191.458  0.00  0.00    +0.023 HD
ATOM    126  H   UNL     1     143.545 165.162 190.196  0.00  0.00    +0.023 HD
ENDBRANCH 121 123
BRANCH 121 127
ATOM    127  C   UNL     1     144.814 168.394 190.349  0.00  0.00    +0.064 C 
ATOM    128  H   UNL     1     144.183 169.150 189.865  0.00  0.00    +0.060 HD
BRANCH 127 129
ATOM    129  C   UNL     1     146.301 168.883 190.344  0.00  0.00    -0.017 C 
ATOM    130  H   UNL     1     146.839 168.366 189.547  0.00  0.00    +0.032 HD
BRANCH 129 131
ATOM    131  C   UNL     1     146.328 170.380 189.988  0.00  0.00    -0.060 C 
ATOM    132  H   UNL     1     146.729 170.542 188.982  0.00  0.00    +0.023 HD
ATOM    133  H   UNL     1     146.954 170.938 190.694  0.00  0.00    +0.023 HD
ATOM    134  H   UNL     1     145.327 170.820 190.033  0.00  0.00    +0.023 HD
ENDBRANCH 129 131
BRANCH 129 135
ATOM    135  C   UNL     1     147.042 168.653 191.683  0.00  0.00    -0.046 C 
ATOM    136  H   UNL     1     146.497 169.126 192.505  0.00  0.00    +0.027 HD
ATOM    137  H   UNL     1     148.019 169.155 191.648  0.00  0.00    +0.027 HD
BRANCH 135 138
ATOM    138  C   UNL     1     147.298 167.187 192.072  0.00  0.00    -0.026 C 
ATOM    139  H   UNL     1     147.241 166.604 191.141  0.00  0.00    +0.029 HD
ATOM    140  H   UNL     1     146.487 166.819 192.711  0.00  0.00    +0.029 HD
BRANCH 138 143
ATOM    141  C   UNL     1     150.978 166.581 192.114  0.00  0.00    +0.059 C 
ATOM    142  O   UNL     1     149.687 167.096 191.766  0.00  0.00    -0.373 OA
ATOM    143  C   UNL     1     148.656 166.910 192.737  0.00  0.00    +0.061 C 
ATOM    144  C   UNL     1     148.688 165.490 193.307  0.00  0.00    -0.000 C 
ATOM    145  C   UNL     1     150.039 165.180 193.963  0.00  0.00    +0.063 C 
ATOM    146  C   UNL     1     151.102 166.212 193.587  0.00  0.00    -0.000 C 
ATOM    147  H   UNL     1     151.137 165.686 191.500  0.00  0.00    +0.059 HD
ATOM    148  H   UNL     1     148.804 167.635 193.546  0.00  0.00    +0.060 HD
ATOM    149  H   UNL     1     147.856 165.349 194.006  0.00  0.00    +0.032 HD
ATOM    150  H   UNL     1     148.549 164.781 192.481  0.00  0.00    +0.032 HD
ATOM    151  H   UNL     1     150.384 164.189 193.634  0.00  0.00    +0.060 HD
ATOM    152  H   UNL     1     152.099 165.813 193.813  0.00  0.00    +0.032 HD
ATOM    153  H   UNL     1     150.990 167.106 194.210  0.00  0.00    +0.032 HD
BRANCH 141 154
ATOM    154  C   UNL     1     152.017 167.622 191.720  0.00  0.00    -0.039 C 
ATOM    155  H   UNL     1     151.662 168.636 191.930  0.00  0.00    +0.025 HD
ATOM    156  H   UNL     1     152.952 167.460 192.266  0.00  0.00    +0.025 HD
ATOM    157  H   UNL     1     152.255 167.551 190.654  0.00  0.00    +0.025 HD
ENDBRANCH 141 154
BRANCH 145 158
ATOM    158  O   UNL     1     149.930 165.182 195.391  0.00  0.00    -0.380 OA
BRANCH 158 159
ATOM    159  C   UNL     1     150.946 165.943 196.032  0.00  0.00    +0.037 C 
ATOM    160  H   UNL     1     151.774 166.066 195.326  0.00  0.00    +0.052 HD
ATOM    161  H   UNL     1     150.584 166.934 196.317  0.00  0.00    +0.052 HD
ATOM    162  H   UNL     1     151.317 165.411 196.913  0.00  0.00    +0.052 HD
ENDBRANCH 158 159
ENDBRANCH 145 158
ENDBRANCH 138 143
ENDBRANCH 135 138
ENDBRANCH 129 135
ENDBRANCH 127 129
BRANCH 127 163
ATOM    163  O   UNL     1     144.326 168.301 191.694  0.00  0.00    -0.391 OA
ATOM    164  H   UNL     1     143.360 168.422 191.658  0.00  0.00    +0.210 HD
ENDBRANCH 127 163
ENDBRANCH 121 127
ENDBRANCH   1 121
BRANCH  41 165
ATOM    165  O   UNL     1     144.346 166.922 184.989  0.00  0.00    -0.391 OA
ATOM    166  H   UNL     1     144.954 166.183 184.820  0.00  0.00    +0.210 HD
ENDBRANCH  41 165
BRANCH  39 167
ATOM    167  O   UNL     1     147.478 169.892 186.177  0.00  0.00    -0.391 OA
ATOM    168  H   UNL     1     146.746 170.529 186.106  0.00  0.00    +0.210 HD
ENDBRANCH  39 167
BRANCH  31 169
ATOM    169  O   UNL     1     150.593 159.965 183.606  0.00  0.00    -0.391 OA
ATOM    170  H   UNL     1     150.448 160.122 182.655  0.00  0.00    +0.210 HD
ENDBRANCH  31 169
BRANCH  22 171
ATOM    171  C   UNL     1     158.489 163.101 189.689  0.00  0.00    +0.020 C 
ATOM    172  H   UNL     1     159.247 163.878 189.851  0.00  0.00    +0.036 HD
BRANCH 171 173
ATOM    173  C   UNL     1     157.093 163.755 189.753  0.00  0.00    -0.057 C 
ATOM    174  H   UNL     1     156.898 164.380 188.876  0.00  0.00    +0.023 HD
ATOM    175  H   UNL     1     156.297 163.005 189.809  0.00  0.00    +0.023 HD
ATOM    176  H   UNL     1     156.986 164.425 190.605  0.00  0.00    +0.023 HD
ENDBRANCH 171 173
BRANCH 171 177
ATOM    177  C   UNL     1     158.695 162.016 190.798  0.00  0.00    +0.064 C 
ATOM    178  H   UNL     1     157.956 162.185 191.591  0.00  0.00    +0.060 HD
BRANCH 177 179
ATOM    179  O   UNL     1     158.423 160.736 190.226  0.00  0.00    -0.391 OA
ATOM    180  H   UNL     1     157.469 160.679 190.015  0.00  0.00    +0.210 HD
ENDBRANCH 177 179
BRANCH 177 181
ATOM    181  C   UNL     1     160.105 161.894 191.461  0.00  0.00    -0.017 C 
ATOM    182  H   UNL     1     160.449 160.858 191.338  0.00  0.00    +0.032 HD
BRANCH 181 183
ATOM    183  C   UNL     1     161.170 162.804 190.851  0.00  0.00    -0.060 C 
ATOM    184  H   UNL     1     161.973 162.209 190.409  0.00  0.00    +0.023 HD
ATOM    185  H   UNL     1     161.673 163.420 191.602  0.00  0.00    +0.023 HD
ATOM    186  H   UNL     1     160.744 163.472 190.097  0.00  0.00    +0.023 HD
ENDBRANCH 181 183
BRANCH 181 187
ATOM    187  C   UNL     1     159.967 162.131 192.996  0.00  0.00    -0.046 C 
ATOM    188  H   UNL     1     159.234 162.929 193.168  0.00  0.00    +0.027 HD
ATOM    189  H   UNL     1     160.924 162.495 193.392  0.00  0.00    +0.027 HD
BRANCH 187 190
ATOM    190  C   UNL     1     159.532 160.899 193.803  0.00  0.00    -0.026 C 
ATOM    191  H   UNL     1     158.573 160.526 193.424  0.00  0.00    +0.029 HD
ATOM    192  H   UNL     1     160.283 160.111 193.659  0.00  0.00    +0.029 HD
BRANCH 190 193
ATOM    193  C   UNL     1     159.410 161.179 195.309  0.00  0.00    +0.061 C 
ATOM    194  O   UNL     1     160.060 162.423 195.593  0.00  0.00    -0.373 OA
ATOM    195  C   UNL     1     160.003 162.816 196.968  0.00  0.00    +0.059 C 
ATOM    196  C   UNL     1     160.607 161.741 197.877  0.00  0.00    -0.000 C 
ATOM    197  C   UNL     1     160.053 160.341 197.605  0.00  0.00    +0.063 C 
ATOM    198  C   UNL     1     160.070 160.051 196.105  0.00  0.00    -0.000 C 
ATOM    199  H   UNL     1     158.345 161.254 195.556  0.00  0.00    +0.060 HD
ATOM    200  H   UNL     1     160.646 163.703 197.046  0.00  0.00    +0.059 HD
ATOM    201  H   UNL     1     160.485 162.028 198.925  0.00  0.00    +0.032 HD
ATOM    202  H   UNL     1     161.687 161.706 197.677  0.00  0.00    +0.032 HD
ATOM    203  H   UNL     1     160.679 159.591 198.107  0.00  0.00    +0.060 HD
ATOM    204  H   UNL     1     159.558 159.103 195.899  0.00  0.00    +0.032 HD
ATOM    205  H   UNL     1     161.116 159.945 195.789  0.00  0.00    +0.032 HD
BRANCH 195 206
ATOM    206  C   UNL     1     158.602 163.268 197.375  0.00  0.00    -0.039 C 
ATOM    207  H   UNL     1     158.213 162.620 198.168  0.00  0.00    +0.025 HD
ATOM    208  H   UNL     1     157.917 163.226 196.523  0.00  0.00    +0.025 HD
ATOM    209  H   UNL     1     158.581 164.286 197.773  0.00  0.00    +0.025 HD
ENDBRANCH 195 206
BRANCH 197 210
ATOM    210  O   UNL     1     158.707 160.201 198.068  0.00  0.00    -0.380 OA
BRANCH 210 211
ATOM    211  C   UNL     1     158.607 159.597 199.350  0.00  0.00    +0.037 C 
ATOM    212  H   UNL     1     158.990 158.576 199.278  0.00  0.00    +0.052 HD
ATOM    213  H   UNL     1     159.215 160.144 200.077  0.00  0.00    +0.052 HD
ATOM    214  H   UNL     1     157.568 159.552 199.689  0.00  0.00    +0.052 HD
ENDBRANCH 210 211
ENDBRANCH 197 210
ENDBRANCH 190 193
ENDBRANCH 187 190
ENDBRANCH 181 187
ENDBRANCH 177 181
ENDBRANCH 171 177
ENDBRANCH  22 171
BRANCH  20 215
ATOM    215  O   UNL     1     158.327 163.404 185.034  0.00  0.00    -0.391 OA
ATOM    216  H   UNL     1     159.014 162.721 185.106  0.00  0.00    +0.210 HD
ENDBRANCH  20 215
BRANCH  18 217
ATOM    217  O   UNL     1     156.830 166.635 187.003  0.00  0.00    -0.391 OA
ATOM    218  H   UNL     1     156.530 167.555 187.132  0.00  0.00    +0.210 HD
ENDBRANCH  18 217
BRANCH  10 219
ATOM    219  O   UNL     1     153.999 161.550 190.203  0.00  0.00    -0.391 OA
ATOM    220  H   UNL     1     154.360 160.816 189.676  0.00  0.00    +0.210 HD
ENDBRANCH  10 219
BRANCH  37 221
ATOM    221  O   UNL     1     147.866 166.757 182.553  0.00  0.00    -0.379 OA
BRANCH 221 222
ATOM    222  C   UNL     1     146.916 166.156 181.682  0.00  0.00    +0.037 C 
ATOM    223  H   UNL     1     146.314 165.455 182.267  0.00  0.00    +0.052 HD
ATOM    224  H   UNL     1     146.249 166.918 181.270  0.00  0.00    +0.052 HD
ATOM    225  H   UNL     1     147.404 165.607 180.872  0.00  0.00    +0.052 HD
ENDBRANCH 221 222
ENDBRANCH  37 221
BRANCH  16 226
ATOM    226  O   UNL     1     154.121 166.191 183.771  0.00  0.00    -0.379 OA
BRANCH 226 227
ATOM    227  C   UNL     1     154.098 164.901 183.170  0.00  0.00    +0.037 C 
ATOM    228  H   UNL     1     154.809 164.262 183.699  0.00  0.00    +0.052 HD
ATOM    229  H   UNL     1     153.102 164.456 183.254  0.00  0.00    +0.052 HD
ATOM    230  H   UNL     1     154.395 164.958 182.118  0.00  0.00    +0.052 HD
ENDBRANCH 226 227
ENDBRANCH  16 226
TORSDOF 40
ENDMDL
MODEL 5
REMARK VINA RESULT:      -5.7      7.867     14.040
REMARK  Name = Swinholide A_conf3
REMARK  40 active torsions:
REMARK  status: ('A' for Active; 'I' for Inactive)
REMARK    1  A    between atoms: C_1  and  C_2
REMARK    2  A    between atoms: C_4  and  C_10
REMARK    3  A    between atoms: C_6  and  O_8
REMARK    4  A    between atoms: O_8  and  C_9
REMARK    5  A    between atoms: C_10  and  C_11
REMARK    6  A    between atoms: C_11  and  C_12
REMARK    7  A    between atoms: C_12  and  C_13
REMARK    8  A    between atoms: C_12  and  C_98
REMARK    9  A    between atoms: C_13  and  O_14
REMARK   10  A    between atoms: C_13  and  C_15
REMARK   11  A    between atoms: C_15  and  C_16
REMARK   12  A    between atoms: C_15  and  C_97
REMARK   13  A    between atoms: C_22  and  C_96
REMARK   14  A    between atoms: C_25  and  O_95
REMARK   15  A    between atoms: C_31  and  O_90
REMARK   16  A    between atoms: C_32  and  C_89
REMARK   17  A    between atoms: C_33  and  O_88
REMARK   18  A    between atoms: C_35  and  O_87
REMARK   19  A    between atoms: C_36  and  C_86
REMARK   20  A    between atoms: C_37  and  C_69
REMARK   21  A    between atoms: C_43  and  C_68
REMARK   22  A    between atoms: C_46  and  O_67
REMARK   23  A    between atoms: C_52  and  O_62
REMARK   24  A    between atoms: C_53  and  C_61
REMARK   25  A    between atoms: C_54  and  O_60
REMARK   26  A    between atoms: C_56  and  O_59
REMARK   27  A    between atoms: C_57  and  C_58
REMARK   28  A    between atoms: O_62  and  C_63
REMARK   29  A    between atoms: C_69  and  C_70
REMARK   30  A    between atoms: C_69  and  C_85
REMARK   31  A    between atoms: C_70  and  O_71
REMARK   32  A    between atoms: C_70  and  C_72
REMARK   33  A    between atoms: C_72  and  C_73
REMARK   34  A    between atoms: C_72  and  C_84
REMARK   35  A    between atoms: C_73  and  C_74
REMARK   36  A    between atoms: C_74  and  C_75
REMARK   37  A    between atoms: C_77  and  C_83
REMARK   38  A    between atoms: C_79  and  O_81
REMARK   39  A    between atoms: O_81  and  C_82
REMARK   40  A    between atoms: O_90  and  C_91
REMARK                            x       y       z     vdW  Elec       q    Type
REMARK                         _______ _______ _______ _____ _____    ______ ____
ROOT
ATOM      1  C   UNL     1     148.821 166.511 188.394  0.00  0.00    +0.113 C 
ATOM      2  O   UNL     1     148.649 167.798 189.043  0.00  0.00    -0.458 OA
ATOM      3  C   UNL     1     147.372 168.078 189.416  0.00  0.00    +0.332 C 
ATOM      4  O   UNL     1     146.419 167.313 189.347  0.00  0.00    -0.246 OA
ATOM      5  C   UNL     1     147.180 169.445 189.908  0.00  0.00    +0.023 C 
ATOM      6  C   UNL     1     148.111 170.244 190.449  0.00  0.00    -0.052 C 
ATOM      7  C   UNL     1     147.764 171.542 191.020  0.00  0.00    -0.054 C 
ATOM      8  C   UNL     1     146.683 171.660 191.818  0.00  0.00    -0.079 C 
ATOM      9  C   UNL     1     146.106 172.899 192.434  0.00  0.00    -0.008 C 
ATOM     10  C   UNL     1     145.264 173.811 191.514  0.00  0.00    +0.061 C 
ATOM     11  C   UNL     1     144.661 173.192 190.246  0.00  0.00    +0.003 C 
ATOM     12  C   UNL     1     143.367 172.367 190.346  0.00  0.00    +0.080 C 
ATOM     13  O   UNL     1     143.129 171.942 188.988  0.00  0.00    -0.369 OA
ATOM     14  C   UNL     1     142.192 170.863 188.819  0.00  0.00    +0.065 C 
ATOM     15  C   UNL     1     140.773 171.339 189.175  0.00  0.00    +0.000 C 
ATOM     16  C   UNL     1     139.631 170.387 188.771  0.00  0.00    +0.066 C 
ATOM     17  C   UNL     1     138.254 171.072 189.013  0.00  0.00    +0.009 C 
ATOM     18  C   UNL     1     137.749 171.038 190.485  0.00  0.00    +0.063 C 
ATOM     19  C   UNL     1     137.025 172.336 190.916  0.00  0.00    -0.000 C 
ATOM     20  C   UNL     1     137.963 173.565 190.915  0.00  0.00    +0.064 C 
ATOM     21  C   UNL     1     137.803 174.461 192.173  0.00  0.00    +0.020 C 
ATOM     22  C   UNL     1     139.112 175.231 192.579  0.00  0.00    +0.113 C 
ATOM     23  O   UNL     1     140.096 175.204 191.530  0.00  0.00    -0.458 OA
ATOM     24  C   UNL     1     140.014 176.173 190.585  0.00  0.00    +0.332 C 
ATOM     25  O   UNL     1     139.341 177.190 190.638  0.00  0.00    -0.246 OA
ATOM     26  C   UNL     1     140.873 175.769 189.454  0.00  0.00    +0.023 C 
ATOM     27  C   UNL     1     140.932 176.527 188.350  0.00  0.00    -0.052 C 
ATOM     28  C   UNL     1     141.707 176.206 187.159  0.00  0.00    -0.054 C 
ATOM     29  C   UNL     1     141.725 174.958 186.646  0.00  0.00    -0.079 C 
ATOM     30  C   UNL     1     142.428 174.501 185.395  0.00  0.00    -0.008 C 
ATOM     31  C   UNL     1     143.849 173.981 185.683  0.00  0.00    +0.061 C 
ATOM     32  C   UNL     1     143.934 172.449 185.595  0.00  0.00    +0.003 C 
ATOM     33  C   UNL     1     145.248 171.883 186.161  0.00  0.00    +0.080 C 
ATOM     34  O   UNL     1     145.090 170.487 186.490  0.00  0.00    -0.369 OA
ATOM     35  C   UNL     1     145.299 169.579 185.391  0.00  0.00    +0.065 C 
ATOM     36  C   UNL     1     144.995 168.164 185.927  0.00  0.00    +0.000 C 
ATOM     37  C   UNL     1     145.223 167.018 184.919  0.00  0.00    +0.066 C 
ATOM     38  C   UNL     1     144.948 165.616 185.543  0.00  0.00    +0.009 C 
ATOM     39  C   UNL     1     145.864 165.208 186.730  0.00  0.00    +0.063 C 
ATOM     40  C   UNL     1     147.240 164.559 186.471  0.00  0.00    -0.000 C 
ATOM     41  C   UNL     1     148.417 165.444 186.036  0.00  0.00    +0.064 C 
ATOM     42  C   UNL     1     148.649 166.732 186.858  0.00  0.00    +0.020 C 
ATOM     43  C   UNL     1     146.751 169.710 184.907  0.00  0.00    -0.008 C 
ATOM     44  C   UNL     1     147.139 171.135 184.688  0.00  0.00    -0.083 C 
ATOM     45  C   UNL     1     146.445 172.120 185.271  0.00  0.00    -0.059 C 
ATOM     46  C   UNL     1     142.692 169.623 189.573  0.00  0.00    -0.008 C 
ATOM     47  C   UNL     1     143.100 169.951 190.973  0.00  0.00    -0.083 C 
ATOM     48  C   UNL     1     143.395 171.215 191.313  0.00  0.00    -0.059 C 
ATOM     49  H   UNL     1     147.998 165.860 188.708  0.00  0.00    +0.074 HD
ATOM     50  H   UNL     1     146.139 169.754 189.863  0.00  0.00    +0.069 HD
ATOM     51  H   UNL     1     149.156 169.946 190.487  0.00  0.00    +0.062 HD
ATOM     52  H   UNL     1     146.116 170.760 192.057  0.00  0.00    +0.058 HD
ATOM     53  H   UNL     1     146.909 173.497 192.884  0.00  0.00    +0.033 HD
ATOM     54  H   UNL     1     145.499 172.590 193.294  0.00  0.00    +0.033 HD
ATOM     55  H   UNL     1     145.930 174.616 191.178  0.00  0.00    +0.060 HD
ATOM     56  H   UNL     1     145.421 172.626 189.692  0.00  0.00    +0.032 HD
ATOM     57  H   UNL     1     144.422 174.027 189.568  0.00  0.00    +0.032 HD
ATOM     58  H   UNL     1     142.549 173.037 190.632  0.00  0.00    +0.064 HD
ATOM     59  H   UNL     1     142.214 170.626 187.750  0.00  0.00    +0.060 HD
ATOM     60  H   UNL     1     140.629 172.302 188.667  0.00  0.00    +0.032 HD
ATOM     61  H   UNL     1     140.717 171.565 190.240  0.00  0.00    +0.032 HD
ATOM     62  H   UNL     1     139.688 169.451 189.341  0.00  0.00    +0.060 HD
ATOM     63  H   UNL     1     138.364 172.114 188.691  0.00  0.00    +0.035 HD
ATOM     64  H   UNL     1     137.036 170.209 190.585  0.00  0.00    +0.060 HD
ATOM     65  H   UNL     1     136.648 172.163 191.931  0.00  0.00    +0.032 HD
ATOM     66  H   UNL     1     136.159 172.507 190.266  0.00  0.00    +0.032 HD
ATOM     67  H   UNL     1     138.989 173.206 190.862  0.00  0.00    +0.060 HD
ATOM     68  H   UNL     1     137.533 173.814 193.013  0.00  0.00    +0.036 HD
ATOM     69  H   UNL     1     138.867 176.284 192.775  0.00  0.00    +0.074 HD
ATOM     70  H   UNL     1     141.402 174.830 189.547  0.00  0.00    +0.069 HD
ATOM     71  H   UNL     1     140.370 177.462 188.312  0.00  0.00    +0.062 HD
ATOM     72  H   UNL     1     141.165 174.168 187.147  0.00  0.00    +0.058 HD
ATOM     73  H   UNL     1     141.814 173.718 184.930  0.00  0.00    +0.033 HD
ATOM     74  H   UNL     1     142.446 175.312 184.658  0.00  0.00    +0.033 HD
ATOM     75  H   UNL     1     144.185 174.309 186.674  0.00  0.00    +0.060 HD
ATOM     76  H   UNL     1     143.098 172.007 186.145  0.00  0.00    +0.032 HD
ATOM     77  H   UNL     1     143.817 172.129 184.551  0.00  0.00    +0.032 HD
ATOM     78  H   UNL     1     145.451 172.372 187.122  0.00  0.00    +0.064 HD
ATOM     79  H   UNL     1     144.593 169.825 184.587  0.00  0.00    +0.060 HD
ATOM     80  H   UNL     1     145.586 168.015 186.834  0.00  0.00    +0.032 HD
ATOM     81  H   UNL     1     143.947 168.154 186.259  0.00  0.00    +0.032 HD
ATOM     82  H   UNL     1     146.243 167.060 184.538  0.00  0.00    +0.060 HD
ATOM     83  H   UNL     1     143.922 165.667 185.939  0.00  0.00    +0.035 HD
ATOM     84  H   UNL     1     145.986 166.045 187.409  0.00  0.00    +0.060 HD
ATOM     85  H   UNL     1     147.118 163.747 185.742  0.00  0.00    +0.032 HD
ATOM     86  H   UNL     1     147.543 164.044 187.394  0.00  0.00    +0.032 HD
ATOM     87  H   UNL     1     149.324 164.828 186.079  0.00  0.00    +0.060 HD
ATOM     88  H   UNL     1     147.742 167.335 186.746  0.00  0.00    +0.036 HD
ATOM     89  H   UNL     1     146.901 169.153 183.977  0.00  0.00    +0.033 HD
ATOM     90  H   UNL     1     147.434 169.307 185.658  0.00  0.00    +0.033 HD
ATOM     91  H   UNL     1     148.003 171.357 184.070  0.00  0.00    +0.057 HD
ATOM     92  H   UNL     1     146.744 173.150 185.099  0.00  0.00    +0.059 HD
ATOM     93  H   UNL     1     143.573 169.217 189.061  0.00  0.00    +0.033 HD
ATOM     94  H   UNL     1     141.932 168.838 189.577  0.00  0.00    +0.033 HD
ATOM     95  H   UNL     1     143.131 169.154 191.709  0.00  0.00    +0.057 HD
ATOM     96  H   UNL     1     143.610 171.444 192.351  0.00  0.00    +0.059 HD
ENDROOT
BRANCH  28  97
ATOM     97  C   UNL     1     142.418 177.391 186.563  0.00  0.00    -0.040 C 
ATOM     98  H   UNL     1     142.335 177.441 185.475  0.00  0.00    +0.028 HD
ATOM     99  H   UNL     1     142.016 178.326 186.971  0.00  0.00    +0.028 HD
ATOM    100  H   UNL     1     143.488 177.345 186.794  0.00  0.00    +0.028 HD
ENDBRANCH  28  97
BRANCH  21 101
ATOM    101  C   UNL     1     136.633 175.448 192.048  0.00  0.00    -0.057 C 
ATOM    102  H   UNL     1     136.087 175.318 191.109  0.00  0.00    +0.023 HD
ATOM    103  H   UNL     1     136.997 176.481 192.077  0.00  0.00    +0.023 HD
ATOM    104  H   UNL     1     135.927 175.326 192.876  0.00  0.00    +0.023 HD
ENDBRANCH  21 101
BRANCH  42 105
ATOM    105  C   UNL     1     149.733 167.618 186.221  0.00  0.00    -0.057 C 
ATOM    106  H   UNL     1     150.496 167.882 186.962  0.00  0.00    +0.023 HD
ATOM    107  H   UNL     1     150.245 167.109 185.398  0.00  0.00    +0.023 HD
ATOM    108  H   UNL     1     149.327 168.566 185.862  0.00  0.00    +0.023 HD
ENDBRANCH  42 105
BRANCH  17 109
ATOM    109  C   UNL     1     137.144 170.515 188.104  0.00  0.00    -0.058 C 
ATOM    110  H   UNL     1     136.183 170.482 188.625  0.00  0.00    +0.023 HD
ATOM    111  H   UNL     1     137.381 169.505 187.755  0.00  0.00    +0.023 HD
ATOM    112  H   UNL     1     137.021 171.137 187.209  0.00  0.00    +0.023 HD
ENDBRANCH  17 109
BRANCH  38 113
ATOM    113  C   UNL     1     144.884 164.506 184.481  0.00  0.00    -0.058 C 
ATOM    114  H   UNL     1     145.787 164.489 183.864  0.00  0.00    +0.023 HD
ATOM    115  H   UNL     1     144.767 163.521 184.947  0.00  0.00    +0.023 HD
ATOM    116  H   UNL     1     144.022 164.644 183.819  0.00  0.00    +0.023 HD
ENDBRANCH  38 113
BRANCH   7 117
ATOM    117  C   UNL     1     148.666 172.678 190.635  0.00  0.00    -0.040 C 
ATOM    118  H   UNL     1     149.249 172.412 189.751  0.00  0.00    +0.028 HD
ATOM    119  H   UNL     1     149.372 172.940 191.427  0.00  0.00    +0.028 HD
ATOM    120  H   UNL     1     148.085 173.580 190.409  0.00  0.00    +0.028 HD
ENDBRANCH   7 117
BRANCH   1 121
ATOM    121  C   UNL     1     150.088 165.775 188.925  0.00  0.00    +0.020 C 
ATOM    122  H   UNL     1     150.610 165.388 188.040  0.00  0.00    +0.036 HD
BRANCH 121 123
ATOM    123  C   UNL     1     151.111 166.641 189.655  0.00  0.00    -0.057 C 
ATOM    124  H   UNL     1     150.703 167.073 190.570  0.00  0.00    +0.023 HD
ATOM    125  H   UNL     1     152.005 166.062 189.904  0.00  0.00    +0.023 HD
ATOM    126  H   UNL     1     151.475 167.447 189.016  0.00  0.00    +0.023 HD
ENDBRANCH 121 123
BRANCH 121 127
ATOM    127  C   UNL     1     149.679 164.528 189.779  0.00  0.00    +0.064 C 
ATOM    128  H   UNL     1     149.786 163.652 189.127  0.00  0.00    +0.060 HD
BRANCH 127 129
ATOM    129  C   UNL     1     148.246 164.530 190.409  0.00  0.00    -0.017 C 
ATOM    130  H   UNL     1     147.659 165.328 189.948  0.00  0.00    +0.032 HD
BRANCH 129 131
ATOM    131  C   UNL     1     147.544 163.210 190.048  0.00  0.00    -0.060 C 
ATOM    132  H   UNL     1     147.446 163.095 188.963  0.00  0.00    +0.023 HD
ATOM    133  H   UNL     1     146.539 163.168 190.483  0.00  0.00    +0.023 HD
ATOM    134  H   UNL     1     148.094 162.346 190.435  0.00  0.00    +0.023 HD
ENDBRANCH 129 131
BRANCH 129 135
ATOM    135  C   UNL     1     148.235 164.721 191.944  0.00  0.00    -0.046 C 
ATOM    136  H   UNL     1     149.045 164.149 192.405  0.00  0.00    +0.027 HD
ATOM    137  H   UNL     1     147.306 164.303 192.356  0.00  0.00    +0.027 HD
BRANCH 135 138
ATOM    138  C   UNL     1     148.342 166.172 192.447  0.00  0.00    -0.026 C 
ATOM    139  H   UNL     1     147.390 166.398 192.948  0.00  0.00    +0.029 HD
ATOM    140  H   UNL     1     148.411 166.861 191.597  0.00  0.00    +0.029 HD
BRANCH 138 143
ATOM    141  C   UNL     1     151.913 166.378 193.507  0.00  0.00    +0.059 C 
ATOM    142  O   UNL     1     150.720 166.455 192.715  0.00  0.00    -0.373 OA
ATOM    143  C   UNL     1     149.488 166.442 193.436  0.00  0.00    +0.061 C 
ATOM    144  C   UNL     1     149.504 165.375 194.533  0.00  0.00    -0.000 C 
ATOM    145  C   UNL     1     150.650 165.610 195.526  0.00  0.00    +0.063 C 
ATOM    146  C   UNL     1     151.665 166.618 194.991  0.00  0.00    -0.000 C 
ATOM    147  H   UNL     1     152.322 165.371 193.364  0.00  0.00    +0.059 HD
ATOM    148  H   UNL     1     149.336 167.430 193.886  0.00  0.00    +0.060 HD
ATOM    149  H   UNL     1     148.532 165.340 195.036  0.00  0.00    +0.032 HD
ATOM    150  H   UNL     1     149.668 164.396 194.063  0.00  0.00    +0.032 HD
ATOM    151  H   UNL     1     151.168 164.660 195.715  0.00  0.00    +0.060 HD
ATOM    152  H   UNL     1     152.598 166.542 195.564  0.00  0.00    +0.032 HD
ATOM    153  H   UNL     1     151.299 167.638 195.152  0.00  0.00    +0.032 HD
BRANCH 141 154
ATOM    154  C   UNL     1     152.910 167.383 192.946  0.00  0.00    -0.039 C 
ATOM    155  H   UNL     1     153.739 167.549 193.641  0.00  0.00    +0.025 HD
ATOM    156  H   UNL     1     153.318 167.031 191.994  0.00  0.00    +0.025 HD
ATOM    157  H   UNL     1     152.425 168.345 192.748  0.00  0.00    +0.025 HD
ENDBRANCH 141 154
BRANCH 145 158
ATOM    158  O   UNL     1     150.155 166.123 196.769  0.00  0.00    -0.380 OA
BRANCH 158 159
ATOM    159  C   UNL     1     148.764 166.417 196.741  0.00  0.00    +0.037 C 
ATOM    160  H   UNL     1     148.232 165.515 196.423  0.00  0.00    +0.052 HD
ATOM    161  H   UNL     1     148.397 166.706 197.730  0.00  0.00    +0.052 HD
ATOM    162  H   UNL     1     148.560 167.213 196.019  0.00  0.00    +0.052 HD
ENDBRANCH 158 159
ENDBRANCH 145 158
ENDBRANCH 138 143
ENDBRANCH 135 138
ENDBRANCH 129 135
ENDBRANCH 127 129
BRANCH 127 163
ATOM    163  O   UNL     1     150.670 164.361 190.801  0.00  0.00    -0.391 OA
ATOM    164  H   UNL     1     151.348 165.046 190.659  0.00  0.00    +0.210 HD
ENDBRANCH 127 163
ENDBRANCH 121 127
ENDBRANCH   1 121
BRANCH  41 165
ATOM    165  O   UNL     1     148.226 165.779 184.658  0.00  0.00    -0.391 OA
ATOM    166  H   UNL     1     148.893 166.447 184.426  0.00  0.00    +0.210 HD
ENDBRANCH  41 165
BRANCH  39 167
ATOM    167  O   UNL     1     145.134 164.219 187.495  0.00  0.00    -0.391 OA
ATOM    168  H   UNL     1     145.127 163.406 186.960  0.00  0.00    +0.210 HD
ENDBRANCH  39 167
BRANCH  31 169
ATOM    169  O   UNL     1     144.744 174.565 184.730  0.00  0.00    -0.391 OA
ATOM    170  H   UNL     1     145.606 174.674 185.173  0.00  0.00    +0.210 HD
ENDBRANCH  31 169
BRANCH  22 171
ATOM    171  C   UNL     1     139.758 174.689 193.912  0.00  0.00    +0.020 C 
ATOM    172  H   UNL     1     138.922 174.374 194.550  0.00  0.00    +0.036 HD
BRANCH 171 173
ATOM    173  C   UNL     1     140.591 173.443 193.543  0.00  0.00    -0.057 C 
ATOM    174  H   UNL     1     140.940 172.911 194.434  0.00  0.00    +0.023 HD
ATOM    175  H   UNL     1     140.015 172.735 192.940  0.00  0.00    +0.023 HD
ATOM    176  H   UNL     1     141.498 173.697 192.994  0.00  0.00    +0.023 HD
ENDBRANCH 171 173
BRANCH 171 177
ATOM    177  C   UNL     1     140.584 175.745 194.719  0.00  0.00    +0.064 C 
ATOM    178  H   UNL     1     141.415 175.229 195.217  0.00  0.00    +0.060 HD
BRANCH 177 179
ATOM    179  O   UNL     1     141.149 176.673 193.793  0.00  0.00    -0.391 OA
ATOM    180  H   UNL     1     141.433 177.474 194.279  0.00  0.00    +0.210 HD
ENDBRANCH 177 179
BRANCH 177 181
ATOM    181  C   UNL     1     139.837 176.610 195.785  0.00  0.00    -0.017 C 
ATOM    182  H   UNL     1     140.410 176.563 196.721  0.00  0.00    +0.032 HD
BRANCH 181 183
ATOM    183  C   UNL     1     139.691 178.084 195.413  0.00  0.00    -0.060 C 
ATOM    184  H   UNL     1     140.659 178.504 195.127  0.00  0.00    +0.023 HD
ATOM    185  H   UNL     1     139.369 178.699 196.258  0.00  0.00    +0.023 HD
ATOM    186  H   UNL     1     138.972 178.224 194.600  0.00  0.00    +0.023 HD
ENDBRANCH 181 183
BRANCH 181 187
ATOM    187  C   UNL     1     138.452 175.960 196.087  0.00  0.00    -0.046 C 
ATOM    188  H   UNL     1     138.506 174.888 195.862  0.00  0.00    +0.027 HD
ATOM    189  H   UNL     1     137.700 176.384 195.409  0.00  0.00    +0.027 HD
BRANCH 187 190
ATOM    190  C   UNL     1     137.964 176.122 197.534  0.00  0.00    -0.026 C 
ATOM    191  H   UNL     1     138.823 176.213 198.208  0.00  0.00    +0.029 HD
ATOM    192  H   UNL     1     137.382 177.051 197.599  0.00  0.00    +0.029 HD
BRANCH 190 193
ATOM    193  C   UNL     1     137.072 174.961 198.000  0.00  0.00    +0.061 C 
ATOM    194  O   UNL     1     136.057 174.744 197.015  0.00  0.00    -0.373 OA
ATOM    195  C   UNL     1     135.162 173.669 197.318  0.00  0.00    +0.059 C 
ATOM    196  C   UNL     1     134.478 173.882 198.672  0.00  0.00    -0.000 C 
ATOM    197  C   UNL     1     135.459 174.213 199.798  0.00  0.00    +0.063 C 
ATOM    198  C   UNL     1     136.429 175.305 199.346  0.00  0.00    -0.000 C 
ATOM    199  H   UNL     1     137.698 174.066 198.089  0.00  0.00    +0.060 HD
ATOM    200  H   UNL     1     134.379 173.714 196.550  0.00  0.00    +0.059 HD
ATOM    201  H   UNL     1     133.859 173.015 198.916  0.00  0.00    +0.032 HD
ATOM    202  H   UNL     1     133.801 174.742 198.569  0.00  0.00    +0.032 HD
ATOM    203  H   UNL     1     134.909 174.584 200.672  0.00  0.00    +0.060 HD
ATOM    204  H   UNL     1     137.209 175.452 200.103  0.00  0.00    +0.032 HD
ATOM    205  H   UNL     1     135.868 176.243 199.253  0.00  0.00    +0.032 HD
BRANCH 195 206
ATOM    206  C   UNL     1     135.834 172.306 197.161  0.00  0.00    -0.039 C 
ATOM    207  H   UNL     1     136.764 172.409 196.591  0.00  0.00    +0.025 HD
ATOM    208  H   UNL     1     135.178 171.607 196.633  0.00  0.00    +0.025 HD
ATOM    209  H   UNL     1     136.110 171.853 198.117  0.00  0.00    +0.025 HD
ENDBRANCH 195 206
BRANCH 197 210
ATOM    210  O   UNL     1     136.229 173.072 200.188  0.00  0.00    -0.380 OA
BRANCH 210 211
ATOM    211  C   UNL     1     136.800 173.188 201.484  0.00  0.00    +0.037 C 
ATOM    212  H   UNL     1     137.724 173.765 201.398  0.00  0.00    +0.052 HD
ATOM    213  H   UNL     1     136.120 173.722 202.153  0.00  0.00    +0.052 HD
ATOM    214  H   UNL     1     137.044 172.207 201.900  0.00  0.00    +0.052 HD
ENDBRANCH 210 211
ENDBRANCH 197 210
ENDBRANCH 190 193
ENDBRANCH 187 190
ENDBRANCH 181 187
ENDBRANCH 177 181
ENDBRANCH 171 177
ENDBRANCH  22 171
BRANCH  20 215
ATOM    215  O   UNL     1     137.759 174.308 189.712  0.00  0.00    -0.391 OA
ATOM    216  H   UNL     1     137.204 173.790 189.105  0.00  0.00    +0.210 HD
ENDBRANCH  20 215
BRANCH  18 217
ATOM    217  O   UNL     1     138.783 170.767 191.436  0.00  0.00    -0.391 OA
ATOM    218  H   UNL     1     139.173 169.907 191.192  0.00  0.00    +0.210 HD
ENDBRANCH  18 217
BRANCH  10 219
ATOM    219  O   UNL     1     144.250 174.436 192.304  0.00  0.00    -0.391 OA
ATOM    220  H   UNL     1     143.384 174.115 192.000  0.00  0.00    +0.210 HD
ENDBRANCH  10 219
BRANCH  37 221
ATOM    221  O   UNL     1     144.280 167.238 183.853  0.00  0.00    -0.379 OA
BRANCH 221 222
ATOM    222  C   UNL     1     144.894 167.435 182.586  0.00  0.00    +0.037 C 
ATOM    223  H   UNL     1     144.609 168.425 182.220  0.00  0.00    +0.052 HD
ATOM    224  H   UNL     1     145.982 167.408 182.687  0.00  0.00    +0.052 HD
ATOM    225  H   UNL     1     144.566 166.687 181.859  0.00  0.00    +0.052 HD
ENDBRANCH 221 222
ENDBRANCH  37 221
BRANCH  16 226
ATOM    226  O   UNL     1     139.781 170.130 187.364  0.00  0.00    -0.379 OA
BRANCH 226 227
ATOM    227  C   UNL     1     139.963 168.753 187.058  0.00  0.00    +0.037 C 
ATOM    228  H   UNL     1     140.994 168.479 187.300  0.00  0.00    +0.052 HD
ATOM    229  H   UNL     1     139.289 168.133 187.657  0.00  0.00    +0.052 HD
ATOM    230  H   UNL     1     139.795 168.567 185.992  0.00  0.00    +0.052 HD
ENDBRANCH 226 227
ENDBRANCH  16 226
TORSDOF 40
ENDMDL
MODEL 6
REMARK VINA RESULT:      -5.6     14.725     22.947
REMARK  Name = Swinholide A_conf3
REMARK  40 active torsions:
REMARK  status: ('A' for Active; 'I' for Inactive)
REMARK    1  A    between atoms: C_1  and  C_2
REMARK    2  A    between atoms: C_4  and  C_10
REMARK    3  A    between atoms: C_6  and  O_8
REMARK    4  A    between atoms: O_8  and  C_9
REMARK    5  A    between atoms: C_10  and  C_11
REMARK    6  A    between atoms: C_11  and  C_12
REMARK    7  A    between atoms: C_12  and  C_13
REMARK    8  A    between atoms: C_12  and  C_98
REMARK    9  A    between atoms: C_13  and  O_14
REMARK   10  A    between atoms: C_13  and  C_15
REMARK   11  A    between atoms: C_15  and  C_16
REMARK   12  A    between atoms: C_15  and  C_97
REMARK   13  A    between atoms: C_22  and  C_96
REMARK   14  A    between atoms: C_25  and  O_95
REMARK   15  A    between atoms: C_31  and  O_90
REMARK   16  A    between atoms: C_32  and  C_89
REMARK   17  A    between atoms: C_33  and  O_88
REMARK   18  A    between atoms: C_35  and  O_87
REMARK   19  A    between atoms: C_36  and  C_86
REMARK   20  A    between atoms: C_37  and  C_69
REMARK   21  A    between atoms: C_43  and  C_68
REMARK   22  A    between atoms: C_46  and  O_67
REMARK   23  A    between atoms: C_52  and  O_62
REMARK   24  A    between atoms: C_53  and  C_61
REMARK   25  A    between atoms: C_54  and  O_60
REMARK   26  A    between atoms: C_56  and  O_59
REMARK   27  A    between atoms: C_57  and  C_58
REMARK   28  A    between atoms: O_62  and  C_63
REMARK   29  A    between atoms: C_69  and  C_70
REMARK   30  A    between atoms: C_69  and  C_85
REMARK   31  A    between atoms: C_70  and  O_71
REMARK   32  A    between atoms: C_70  and  C_72
REMARK   33  A    between atoms: C_72  and  C_73
REMARK   34  A    between atoms: C_72  and  C_84
REMARK   35  A    between atoms: C_73  and  C_74
REMARK   36  A    between atoms: C_74  and  C_75
REMARK   37  A    between atoms: C_77  and  C_83
REMARK   38  A    between atoms: C_79  and  O_81
REMARK   39  A    between atoms: O_81  and  C_82
REMARK   40  A    between atoms: O_90  and  C_91
REMARK                            x       y       z     vdW  Elec       q    Type
REMARK                         _______ _______ _______ _____ _____    ______ ____
ROOT
ATOM      1  C   UNL     1     140.923 175.329 191.053  0.00  0.00    +0.113 C 
ATOM      2  O   UNL     1     140.601 176.268 192.112  0.00  0.00    -0.458 OA
ATOM      3  C   UNL     1     139.918 175.730 193.158  0.00  0.00    +0.332 C 
ATOM      4  O   UNL     1     139.663 174.543 193.315  0.00  0.00    -0.246 OA
ATOM      5  C   UNL     1     139.448 176.716 194.134  0.00  0.00    +0.023 C 
ATOM      6  C   UNL     1     139.969 177.929 194.368  0.00  0.00    -0.052 C 
ATOM      7  C   UNL     1     139.485 178.769 195.460  0.00  0.00    -0.054 C 
ATOM      8  C   UNL     1     139.267 178.231 196.678  0.00  0.00    -0.079 C 
ATOM      9  C   UNL     1     138.700 178.886 197.901  0.00  0.00    -0.008 C 
ATOM     10  C   UNL     1     137.167 179.080 197.945  0.00  0.00    +0.061 C 
ATOM     11  C   UNL     1     136.305 178.190 197.041  0.00  0.00    +0.003 C 
ATOM     12  C   UNL     1     135.975 176.754 197.483  0.00  0.00    +0.080 C 
ATOM     13  O   UNL     1     135.186 176.235 196.392  0.00  0.00    -0.369 OA
ATOM     14  C   UNL     1     135.029 174.806 196.349  0.00  0.00    +0.065 C 
ATOM     15  C   UNL     1     134.154 174.339 197.524  0.00  0.00    +0.000 C 
ATOM     16  C   UNL     1     133.663 172.879 197.449  0.00  0.00    +0.066 C 
ATOM     17  C   UNL     1     132.641 172.601 198.590  0.00  0.00    +0.009 C 
ATOM     18  C   UNL     1     133.270 172.307 199.983  0.00  0.00    +0.063 C 
ATOM     19  C   UNL     1     132.468 172.916 201.159  0.00  0.00    -0.000 C 
ATOM     20  C   UNL     1     132.447 174.461 201.123  0.00  0.00    +0.064 C 
ATOM     21  C   UNL     1     132.703 175.112 202.509  0.00  0.00    +0.020 C 
ATOM     22  C   UNL     1     133.385 176.526 202.435  0.00  0.00    +0.113 C 
ATOM     23  O   UNL     1     133.343 177.072 201.104  0.00  0.00    -0.458 OA
ATOM     24  C   UNL     1     132.232 177.769 200.761  0.00  0.00    +0.332 C 
ATOM     25  O   UNL     1     131.362 178.175 201.514  0.00  0.00    -0.246 OA
ATOM     26  C   UNL     1     132.246 177.936 199.293  0.00  0.00    +0.023 C 
ATOM     27  C   UNL     1     131.223 178.546 198.677  0.00  0.00    -0.052 C 
ATOM     28  C   UNL     1     131.108 178.727 197.236  0.00  0.00    -0.054 C 
ATOM     29  C   UNL     1     131.402 177.730 196.376  0.00  0.00    -0.079 C 
ATOM     30  C   UNL     1     131.269 177.757 194.875  0.00  0.00    -0.008 C 
ATOM     31  C   UNL     1     132.571 178.208 194.185  0.00  0.00    +0.061 C 
ATOM     32  C   UNL     1     133.309 177.036 193.519  0.00  0.00    +0.003 C 
ATOM     33  C   UNL     1     134.741 177.394 193.083  0.00  0.00    +0.080 C 
ATOM     34  O   UNL     1     135.526 176.194 192.916  0.00  0.00    -0.369 OA
ATOM     35  C   UNL     1     135.405 175.568 191.623  0.00  0.00    +0.065 C 
ATOM     36  C   UNL     1     136.240 174.271 191.685  0.00  0.00    +0.000 C 
ATOM     37  C   UNL     1     136.302 173.469 190.368  0.00  0.00    +0.066 C 
ATOM     38  C   UNL     1     137.203 172.202 190.488  0.00  0.00    +0.009 C 
ATOM     39  C   UNL     1     138.704 172.462 190.797  0.00  0.00    +0.063 C 
ATOM     40  C   UNL     1     139.698 172.768 189.656  0.00  0.00    -0.000 C 
ATOM     41  C   UNL     1     139.717 174.173 189.036  0.00  0.00    +0.064 C 
ATOM     42  C   UNL     1     139.750 175.361 190.024  0.00  0.00    +0.020 C 
ATOM     43  C   UNL     1     135.927 176.536 190.551  0.00  0.00    -0.008 C 
ATOM     44  C   UNL     1     135.337 177.900 190.698  0.00  0.00    -0.083 C 
ATOM     45  C   UNL     1     134.801 178.282 191.862  0.00  0.00    -0.059 C 
ATOM     46  C   UNL     1     136.407 174.140 196.233  0.00  0.00    -0.008 C 
ATOM     47  C   UNL     1     137.374 174.684 197.234  0.00  0.00    -0.083 C 
ATOM     48  C   UNL     1     137.156 175.878 197.805  0.00  0.00    -0.059 C 
ATOM     49  H   UNL     1     140.932 174.321 191.483  0.00  0.00    +0.074 HD
ATOM     50  H   UNL     1     138.633 176.333 194.744  0.00  0.00    +0.069 HD
ATOM     51  H   UNL     1     140.776 178.324 193.756  0.00  0.00    +0.062 HD
ATOM     52  H   UNL     1     139.505 177.178 196.828  0.00  0.00    +0.058 HD
ATOM     53  H   UNL     1     139.184 179.860 198.058  0.00  0.00    +0.033 HD
ATOM     54  H   UNL     1     139.017 178.296 198.771  0.00  0.00    +0.033 HD
ATOM     55  H   UNL     1     136.975 180.116 197.633  0.00  0.00    +0.060 HD
ATOM     56  H   UNL     1     136.697 178.183 196.016  0.00  0.00    +0.032 HD
ATOM     57  H   UNL     1     135.331 178.693 196.937  0.00  0.00    +0.032 HD
ATOM     58  H   UNL     1     135.330 176.801 198.366  0.00  0.00    +0.064 HD
ATOM     59  H   UNL     1     134.487 174.602 195.419  0.00  0.00    +0.060 HD
ATOM     60  H   UNL     1     133.282 175.005 197.550  0.00  0.00    +0.032 HD
ATOM     61  H   UNL     1     134.677 174.513 198.465  0.00  0.00    +0.032 HD
ATOM     62  H   UNL     1     134.508 172.183 197.526  0.00  0.00    +0.060 HD
ATOM     63  H   UNL     1     132.002 173.489 198.660  0.00  0.00    +0.035 HD
ATOM     64  H   UNL     1     133.298 171.219 200.126  0.00  0.00    +0.060 HD
ATOM     65  H   UNL     1     132.957 172.577 202.080  0.00  0.00    +0.032 HD
ATOM     66  H   UNL     1     131.449 172.512 201.157  0.00  0.00    +0.032 HD
ATOM     67  H   UNL     1     133.216 174.793 200.427  0.00  0.00    +0.060 HD
ATOM     68  H   UNL     1     133.377 174.455 203.069  0.00  0.00    +0.036 HD
ATOM     69  H   UNL     1     132.848 177.222 203.094  0.00  0.00    +0.074 HD
ATOM     70  H   UNL     1     133.082 177.510 198.756  0.00  0.00    +0.069 HD
ATOM     71  H   UNL     1     130.404 178.951 199.272  0.00  0.00    +0.062 HD
ATOM     72  H   UNL     1     131.755 176.776 196.766  0.00  0.00    +0.058 HD
ATOM     73  H   UNL     1     130.982 176.751 194.543  0.00  0.00    +0.033 HD
ATOM     74  H   UNL     1     130.427 178.395 194.585  0.00  0.00    +0.033 HD
ATOM     75  H   UNL     1     133.237 178.699 194.904  0.00  0.00    +0.060 HD
ATOM     76  H   UNL     1     133.356 176.194 194.215  0.00  0.00    +0.032 HD
ATOM     77  H   UNL     1     132.739 176.684 192.649  0.00  0.00    +0.032 HD
ATOM     78  H   UNL     1     135.230 177.931 193.905  0.00  0.00    +0.064 HD
ATOM     79  H   UNL     1     134.351 175.317 191.446  0.00  0.00    +0.060 HD
ATOM     80  H   UNL     1     137.241 174.534 192.036  0.00  0.00    +0.032 HD
ATOM     81  H   UNL     1     135.811 173.640 192.476  0.00  0.00    +0.032 HD
ATOM     82  H   UNL     1     136.668 174.109 189.564  0.00  0.00    +0.060 HD
ATOM     83  H   UNL     1     136.800 171.634 191.340  0.00  0.00    +0.035 HD
ATOM     84  H   UNL     1     138.798 173.220 191.567  0.00  0.00    +0.060 HD
ATOM     85  H   UNL     1     139.560 172.029 188.857  0.00  0.00    +0.032 HD
ATOM     86  H   UNL     1     140.710 172.565 190.035  0.00  0.00    +0.032 HD
ATOM     87  H   UNL     1     140.597 174.230 188.383  0.00  0.00    +0.060 HD
ATOM     88  H   UNL     1     138.833 175.291 190.618  0.00  0.00    +0.036 HD
ATOM     89  H   UNL     1     135.706 176.159 189.548  0.00  0.00    +0.033 HD
ATOM     90  H   UNL     1     137.009 176.647 190.641  0.00  0.00    +0.033 HD
ATOM     91  H   UNL     1     135.372 178.582 189.854  0.00  0.00    +0.057 HD
ATOM     92  H   UNL     1     134.378 179.278 191.949  0.00  0.00    +0.059 HD
ATOM     93  H   UNL     1     136.822 174.335 195.236  0.00  0.00    +0.033 HD
ATOM     94  H   UNL     1     136.324 173.055 196.340  0.00  0.00    +0.033 HD
ATOM     95  H   UNL     1     138.239 174.087 197.503  0.00  0.00    +0.057 HD
ATOM     96  H   UNL     1     137.825 176.218 198.587  0.00  0.00    +0.059 HD
ENDROOT
BRANCH  28  97
ATOM     97  C   UNL     1     130.596 180.085 196.837  0.00  0.00    -0.040 C 
ATOM     98  H   UNL     1     129.949 180.060 195.956  0.00  0.00    +0.028 HD
ATOM     99  H   UNL     1     130.026 180.537 197.656  0.00  0.00    +0.028 HD
ATOM    100  H   UNL     1     131.433 180.748 196.591  0.00  0.00    +0.028 HD
ENDBRANCH  28  97
BRANCH  21 101
ATOM    101  C   UNL     1     131.431 175.189 203.367  0.00  0.00    -0.057 C 
ATOM    102  H   UNL     1     131.048 174.196 203.621  0.00  0.00    +0.023 HD
ATOM    103  H   UNL     1     130.638 175.721 202.832  0.00  0.00    +0.023 HD
ATOM    104  H   UNL     1     131.619 175.733 204.299  0.00  0.00    +0.023 HD
ENDBRANCH  21 101
BRANCH  42 105
ATOM    105  C   UNL     1     139.585 176.704 189.294  0.00  0.00    -0.057 C 
ATOM    106  H   UNL     1     140.512 177.286 189.349  0.00  0.00    +0.023 HD
ATOM    107  H   UNL     1     139.354 176.566 188.232  0.00  0.00    +0.023 HD
ATOM    108  H   UNL     1     138.815 177.327 189.752  0.00  0.00    +0.023 HD
ENDBRANCH  42 105
BRANCH  17 109
ATOM    109  C   UNL     1     131.662 171.463 198.248  0.00  0.00    -0.058 C 
ATOM    110  H   UNL     1     131.791 170.612 198.922  0.00  0.00    +0.023 HD
ATOM    111  H   UNL     1     131.800 171.111 197.220  0.00  0.00    +0.023 HD
ATOM    112  H   UNL     1     130.623 171.802 198.328  0.00  0.00    +0.023 HD
ENDBRANCH  17 109
BRANCH  38 113
ATOM    113  C   UNL     1     137.037 171.252 189.291  0.00  0.00    -0.058 C 
ATOM    114  H   UNL     1     136.008 171.251 188.919  0.00  0.00    +0.023 HD
ATOM    115  H   UNL     1     137.702 171.535 188.467  0.00  0.00    +0.023 HD
ATOM    116  H   UNL     1     137.299 170.224 189.566  0.00  0.00    +0.023 HD
ENDBRANCH  38 113
BRANCH   7 117
ATOM    117  C   UNL     1     139.246 180.208 195.110  0.00  0.00    -0.040 C 
ATOM    118  H   UNL     1     138.221 180.490 195.360  0.00  0.00    +0.028 HD
ATOM    119  H   UNL     1     139.391 180.411 194.046  0.00  0.00    +0.028 HD
ATOM    120  H   UNL     1     139.930 180.864 195.660  0.00  0.00    +0.028 HD
ENDBRANCH   7 117
BRANCH   1 121
ATOM    121  C   UNL     1     142.387 175.521 190.552  0.00  0.00    +0.020 C 
ATOM    122  H   UNL     1     142.337 175.521 189.456  0.00  0.00    +0.036 HD
BRANCH 121 123
ATOM    123  C   UNL     1     143.057 176.838 190.930  0.00  0.00    -0.057 C 
ATOM    124  H   UNL     1     142.749 177.658 190.278  0.00  0.00    +0.023 HD
ATOM    125  H   UNL     1     142.833 177.107 191.967  0.00  0.00    +0.023 HD
ATOM    126  H   UNL     1     144.145 176.753 190.899  0.00  0.00    +0.023 HD
ENDBRANCH 121 123
BRANCH 121 127
ATOM    127  C   UNL     1     143.269 174.292 190.956  0.00  0.00    +0.064 C 
ATOM    128  H   UNL     1     144.201 174.697 191.369  0.00  0.00    +0.060 HD
BRANCH 127 129
ATOM    129  C   UNL     1     143.609 173.254 189.834  0.00  0.00    -0.017 C 
ATOM    130  H   UNL     1     142.972 172.376 189.962  0.00  0.00    +0.032 HD
BRANCH 129 131
ATOM    131  C   UNL     1     143.243 173.862 188.470  0.00  0.00    -0.060 C 
ATOM    132  H   UNL     1     144.139 174.096 187.885  0.00  0.00    +0.023 HD
ATOM    133  H   UNL     1     142.671 174.790 188.595  0.00  0.00    +0.023 HD
ATOM    134  H   UNL     1     142.619 173.181 187.883  0.00  0.00    +0.023 HD
ENDBRANCH 129 131
BRANCH 129 135
ATOM    135  C   UNL     1     145.089 172.805 189.823  0.00  0.00    -0.046 C 
ATOM    136  H   UNL     1     145.733 173.605 190.199  0.00  0.00    +0.027 HD
ATOM    137  H   UNL     1     145.409 172.631 188.786  0.00  0.00    +0.027 HD
BRANCH 135 138
ATOM    138  C   UNL     1     145.416 171.528 190.618  0.00  0.00    -0.026 C 
ATOM    139  H   UNL     1     145.565 170.730 189.876  0.00  0.00    +0.029 HD
ATOM    140  H   UNL     1     144.550 171.227 191.219  0.00  0.00    +0.029 HD
BRANCH 138 143
ATOM    141  C   UNL     1     147.925 173.252 192.773  0.00  0.00    +0.059 C 
ATOM    142  O   UNL     1     146.685 172.878 192.159  0.00  0.00    -0.373 OA
ATOM    143  C   UNL     1     146.668 171.608 191.505  0.00  0.00    +0.061 C 
ATOM    144  C   UNL     1     147.930 171.407 190.662  0.00  0.00    -0.000 C 
ATOM    145  C   UNL     1     149.198 171.499 191.520  0.00  0.00    +0.063 C 
ATOM    146  C   UNL     1     148.908 172.095 192.897  0.00  0.00    -0.000 C 
ATOM    147  H   UNL     1     148.364 174.037 192.145  0.00  0.00    +0.059 HD
ATOM    148  H   UNL     1     146.607 170.824 192.269  0.00  0.00    +0.060 HD
ATOM    149  H   UNL     1     147.872 170.455 190.124  0.00  0.00    +0.032 HD
ATOM    150  H   UNL     1     147.978 172.207 189.912  0.00  0.00    +0.032 HD
ATOM    151  H   UNL     1     149.935 172.136 191.012  0.00  0.00    +0.060 HD
ATOM    152  H   UNL     1     149.847 172.422 193.362  0.00  0.00    +0.032 HD
ATOM    153  H   UNL     1     148.500 171.323 193.559  0.00  0.00    +0.032 HD
BRANCH 141 154
ATOM    154  C   UNL     1     147.607 173.852 194.136  0.00  0.00    -0.039 C 
ATOM    155  H   UNL     1     148.513 174.221 194.627  0.00  0.00    +0.025 HD
ATOM    156  H   UNL     1     146.901 174.682 194.036  0.00  0.00    +0.025 HD
ATOM    157  H   UNL     1     147.135 173.110 194.788  0.00  0.00    +0.025 HD
ENDBRANCH 141 154
BRANCH 145 158
ATOM    158  O   UNL     1     149.772 170.203 191.729  0.00  0.00    -0.380 OA
BRANCH 158 159
ATOM    159  C   UNL     1     151.194 170.212 191.732  0.00  0.00    +0.037 C 
ATOM    160  H   UNL     1     151.535 169.699 192.637  0.00  0.00    +0.052 HD
ATOM    161  H   UNL     1     151.598 169.687 190.863  0.00  0.00    +0.052 HD
ATOM    162  H   UNL     1     151.565 171.241 191.756  0.00  0.00    +0.052 HD
ENDBRANCH 158 159
ENDBRANCH 145 158
ENDBRANCH 138 143
ENDBRANCH 135 138
ENDBRANCH 129 135
ENDBRANCH 127 129
BRANCH 127 163
ATOM    163  O   UNL     1     142.622 173.639 192.057  0.00  0.00    -0.391 OA
ATOM    164  H   UNL     1     143.142 173.840 192.855  0.00  0.00    +0.210 HD
ENDBRANCH 127 163
ENDBRANCH 121 127
ENDBRANCH   1 121
BRANCH  41 165
ATOM    165  O   UNL     1     138.576 174.288 188.181  0.00  0.00    -0.391 OA
ATOM    166  H   UNL     1     137.785 174.201 188.738  0.00  0.00    +0.210 HD
ENDBRANCH  41 165
BRANCH  39 167
ATOM    167  O   UNL     1     139.215 171.253 191.409  0.00  0.00    -0.391 OA
ATOM    168  H   UNL     1     140.186 171.314 191.374  0.00  0.00    +0.210 HD
ENDBRANCH  39 167
BRANCH  31 169
ATOM    169  O   UNL     1     132.239 179.189 193.196  0.00  0.00    -0.391 OA
ATOM    170  H   UNL     1     132.770 178.990 192.403  0.00  0.00    +0.210 HD
ENDBRANCH  31 169
BRANCH  22 171
ATOM    171  C   UNL     1     134.877 176.519 202.948  0.00  0.00    +0.020 C 
ATOM    172  H   UNL     1     135.186 177.571 202.998  0.00  0.00    +0.036 HD
BRANCH 171 173
ATOM    173  C   UNL     1     134.867 175.941 204.379  0.00  0.00    -0.057 C 
ATOM    174  H   UNL     1     134.758 176.727 205.132  0.00  0.00    +0.023 HD
ATOM    175  H   UNL     1     134.047 175.229 204.522  0.00  0.00    +0.023 HD
ATOM    176  H   UNL     1     135.800 175.438 204.630  0.00  0.00    +0.023 HD
ENDBRANCH 171 173
BRANCH 171 177
ATOM    177  C   UNL     1     135.891 175.782 202.010  0.00  0.00    +0.064 C 
ATOM    178  H   UNL     1     135.328 175.107 201.353  0.00  0.00    +0.060 HD
BRANCH 177 179
ATOM    179  O   UNL     1     136.523 176.758 201.182  0.00  0.00    -0.391 OA
ATOM    180  H   UNL     1     137.452 176.489 201.027  0.00  0.00    +0.210 HD
ENDBRANCH 177 179
BRANCH 177 181
ATOM    181  C   UNL     1     137.051 174.969 202.670  0.00  0.00    -0.017 C 
ATOM    182  H   UNL     1     136.812 174.842 203.735  0.00  0.00    +0.032 HD
BRANCH 181 183
ATOM    183  C   UNL     1     137.262 173.576 202.080  0.00  0.00    -0.060 C 
ATOM    184  H   UNL     1     137.270 173.622 200.988  0.00  0.00    +0.023 HD
ATOM    185  H   UNL     1     136.439 172.894 202.316  0.00  0.00    +0.023 HD
ATOM    186  H   UNL     1     138.190 173.124 202.440  0.00  0.00    +0.023 HD
ENDBRANCH 181 183
BRANCH 181 187
ATOM    187  C   UNL     1     138.360 175.814 202.613  0.00  0.00    -0.046 C 
ATOM    188  H   UNL     1     138.282 176.535 201.790  0.00  0.00    +0.027 HD
ATOM    189  H   UNL     1     139.205 175.155 202.372  0.00  0.00    +0.027 HD
BRANCH 187 190
ATOM    190  C   UNL     1     138.686 176.589 203.898  0.00  0.00    -0.026 C 
ATOM    191  H   UNL     1     137.972 176.320 204.686  0.00  0.00    +0.029 HD
ATOM    192  H   UNL     1     139.688 176.292 204.234  0.00  0.00    +0.029 HD
BRANCH 190 193
ATOM    193  C   UNL     1     138.676 178.112 203.700  0.00  0.00    +0.061 C 
ATOM    194  O   UNL     1     137.317 178.563 203.708  0.00  0.00    -0.373 OA
ATOM    195  C   UNL     1     137.164 179.977 203.551  0.00  0.00    +0.059 C 
ATOM    196  C   UNL     1     137.824 180.465 202.258  0.00  0.00    -0.000 C 
ATOM    197  C   UNL     1     139.262 179.971 202.090  0.00  0.00    +0.063 C 
ATOM    198  C   UNL     1     139.338 178.470 202.367  0.00  0.00    -0.000 C 
ATOM    199  H   UNL     1     139.220 178.568 204.536  0.00  0.00    +0.060 HD
ATOM    200  H   UNL     1     136.084 180.145 203.446  0.00  0.00    +0.059 HD
ATOM    201  H   UNL     1     137.761 181.555 202.197  0.00  0.00    +0.032 HD
ATOM    202  H   UNL     1     137.243 180.062 201.417  0.00  0.00    +0.032 HD
ATOM    203  H   UNL     1     139.597 180.147 201.060  0.00  0.00    +0.060 HD
ATOM    204  H   UNL     1     140.384 178.141 202.373  0.00  0.00    +0.032 HD
ATOM    205  H   UNL     1     138.823 177.946 201.552  0.00  0.00    +0.032 HD
BRANCH 195 206
ATOM    206  C   UNL     1     137.594 180.739 204.803  0.00  0.00    -0.039 C 
ATOM    207  H   UNL     1     136.865 181.525 205.033  0.00  0.00    +0.025 HD
ATOM    208  H   UNL     1     138.573 181.204 204.658  0.00  0.00    +0.025 HD
ATOM    209  H   UNL     1     137.650 180.105 205.691  0.00  0.00    +0.025 HD
ENDBRANCH 195 206
BRANCH 197 210
ATOM    210  O   UNL     1     140.161 180.632 202.986  0.00  0.00    -0.380 OA
BRANCH 210 211
ATOM    211  C   UNL     1     141.525 180.292 202.775  0.00  0.00    +0.037 C 
ATOM    212  H   UNL     1     142.137 181.159 203.035  0.00  0.00    +0.052 HD
ATOM    213  H   UNL     1     141.813 179.458 203.421  0.00  0.00    +0.052 HD
ATOM    214  H   UNL     1     141.714 180.039 201.728  0.00  0.00    +0.052 HD
ENDBRANCH 210 211
ENDBRANCH 197 210
ENDBRANCH 190 193
ENDBRANCH 187 190
ENDBRANCH 181 187
ENDBRANCH 177 181
ENDBRANCH 171 177
ENDBRANCH  22 171
BRANCH  20 215
ATOM    215  O   UNL     1     131.209 174.898 200.558  0.00  0.00    -0.391 OA
ATOM    216  H   UNL     1     130.482 174.376 200.937  0.00  0.00    +0.210 HD
ENDBRANCH  20 215
BRANCH  18 217
ATOM    217  O   UNL     1     134.629 172.740 200.098  0.00  0.00    -0.391 OA
ATOM    218  H   UNL     1     135.188 171.947 199.997  0.00  0.00    +0.210 HD
ENDBRANCH  18 217
BRANCH  10 219
ATOM    219  O   UNL     1     136.740 178.988 199.305  0.00  0.00    -0.391 OA
ATOM    220  H   UNL     1     136.000 178.358 199.351  0.00  0.00    +0.210 HD
ENDBRANCH  10 219
BRANCH  37 221
ATOM    221  O   UNL     1     134.952 173.048 190.099  0.00  0.00    -0.379 OA
BRANCH 221 222
ATOM    222  C   UNL     1     134.439 173.541 188.868  0.00  0.00    +0.037 C 
ATOM    223  H   UNL     1     133.893 174.466 189.074  0.00  0.00    +0.052 HD
ATOM    224  H   UNL     1     135.261 173.774 188.185  0.00  0.00    +0.052 HD
ATOM    225  H   UNL     1     133.754 172.827 188.402  0.00  0.00    +0.052 HD
ENDBRANCH 221 222
ENDBRANCH  37 221
BRANCH  16 226
ATOM    226  O   UNL     1     132.998 172.729 196.183  0.00  0.00    -0.379 OA
BRANCH 226 227
ATOM    227  C   UNL     1     133.596 171.746 195.345  0.00  0.00    +0.037 C 
ATOM    228  H   UNL     1     134.657 171.673 195.602  0.00  0.00    +0.052 HD
ATOM    229  H   UNL     1     133.132 170.769 195.507  0.00  0.00    +0.052 HD
ATOM    230  H   UNL     1     133.511 172.031 194.292  0.00  0.00    +0.052 HD
ENDBRANCH 226 227
ENDBRANCH  16 226
TORSDOF 40
ENDMDL
MODEL 7
REMARK VINA RESULT:      -5.5      5.675     12.670
REMARK  Name = Swinholide A_conf3
REMARK  40 active torsions:
REMARK  status: ('A' for Active; 'I' for Inactive)
REMARK    1  A    between atoms: C_1  and  C_2
REMARK    2  A    between atoms: C_4  and  C_10
REMARK    3  A    between atoms: C_6  and  O_8
REMARK    4  A    between atoms: O_8  and  C_9
REMARK    5  A    between atoms: C_10  and  C_11
REMARK    6  A    between atoms: C_11  and  C_12
REMARK    7  A    between atoms: C_12  and  C_13
REMARK    8  A    between atoms: C_12  and  C_98
REMARK    9  A    between atoms: C_13  and  O_14
REMARK   10  A    between atoms: C_13  and  C_15
REMARK   11  A    between atoms: C_15  and  C_16
REMARK   12  A    between atoms: C_15  and  C_97
REMARK   13  A    between atoms: C_22  and  C_96
REMARK   14  A    between atoms: C_25  and  O_95
REMARK   15  A    between atoms: C_31  and  O_90
REMARK   16  A    between atoms: C_32  and  C_89
REMARK   17  A    between atoms: C_33  and  O_88
REMARK   18  A    between atoms: C_35  and  O_87
REMARK   19  A    between atoms: C_36  and  C_86
REMARK   20  A    between atoms: C_37  and  C_69
REMARK   21  A    between atoms: C_43  and  C_68
REMARK   22  A    between atoms: C_46  and  O_67
REMARK   23  A    between atoms: C_52  and  O_62
REMARK   24  A    between atoms: C_53  and  C_61
REMARK   25  A    between atoms: C_54  and  O_60
REMARK   26  A    between atoms: C_56  and  O_59
REMARK   27  A    between atoms: C_57  and  C_58
REMARK   28  A    between atoms: O_62  and  C_63
REMARK   29  A    between atoms: C_69  and  C_70
REMARK   30  A    between atoms: C_69  and  C_85
REMARK   31  A    between atoms: C_70  and  O_71
REMARK   32  A    between atoms: C_70  and  C_72
REMARK   33  A    between atoms: C_72  and  C_73
REMARK   34  A    between atoms: C_72  and  C_84
REMARK   35  A    between atoms: C_73  and  C_74
REMARK   36  A    between atoms: C_74  and  C_75
REMARK   37  A    between atoms: C_77  and  C_83
REMARK   38  A    between atoms: C_79  and  O_81
REMARK   39  A    between atoms: O_81  and  C_82
REMARK   40  A    between atoms: O_90  and  C_91
REMARK                            x       y       z     vdW  Elec       q    Type
REMARK                         _______ _______ _______ _____ _____    ______ ____
ROOT
ATOM      1  C   UNL     1     151.192 166.209 189.370  0.00  0.00    +0.113 C 
ATOM      2  O   UNL     1     152.554 165.778 189.111  0.00  0.00    -0.458 OA
ATOM      3  C   UNL     1     153.129 166.345 188.016  0.00  0.00    +0.332 C 
ATOM      4  O   UNL     1     152.645 167.234 187.329  0.00  0.00    -0.246 OA
ATOM      5  C   UNL     1     154.433 165.775 187.665  0.00  0.00    +0.023 C 
ATOM      6  C   UNL     1     155.286 165.150 188.489  0.00  0.00    -0.052 C 
ATOM      7  C   UNL     1     156.614 164.739 188.042  0.00  0.00    -0.054 C 
ATOM      8  C   UNL     1     157.372 165.585 187.314  0.00  0.00    -0.079 C 
ATOM      9  C   UNL     1     158.713 165.339 186.691  0.00  0.00    -0.008 C 
ATOM     10  C   UNL     1     158.735 164.525 185.378  0.00  0.00    +0.061 C 
ATOM     11  C   UNL     1     157.444 164.458 184.552  0.00  0.00    +0.003 C 
ATOM     12  C   UNL     1     157.073 165.632 183.630  0.00  0.00    +0.080 C 
ATOM     13  O   UNL     1     155.815 165.225 183.052  0.00  0.00    -0.369 OA
ATOM     14  C   UNL     1     155.042 166.264 182.425  0.00  0.00    +0.065 C 
ATOM     15  C   UNL     1     155.751 166.746 181.147  0.00  0.00    +0.000 C 
ATOM     16  C   UNL     1     154.912 167.646 180.220  0.00  0.00    +0.066 C 
ATOM     17  C   UNL     1     155.675 167.898 178.886  0.00  0.00    +0.009 C 
ATOM     18  C   UNL     1     156.770 169.003 178.952  0.00  0.00    +0.063 C 
ATOM     19  C   UNL     1     158.029 168.669 178.116  0.00  0.00    -0.000 C 
ATOM     20  C   UNL     1     158.779 167.426 178.648  0.00  0.00    +0.064 C 
ATOM     21  C   UNL     1     160.319 167.617 178.712  0.00  0.00    +0.020 C 
ATOM     22  C   UNL     1     161.021 166.774 179.836  0.00  0.00    +0.113 C 
ATOM     23  O   UNL     1     160.151 165.758 180.366  0.00  0.00    -0.458 OA
ATOM     24  C   UNL     1     160.127 164.569 179.715  0.00  0.00    +0.332 C 
ATOM     25  O   UNL     1     160.915 164.184 178.867  0.00  0.00    -0.246 OA
ATOM     26  C   UNL     1     158.951 163.818 180.201  0.00  0.00    +0.023 C 
ATOM     27  C   UNL     1     158.655 162.620 179.675  0.00  0.00    -0.052 C 
ATOM     28  C   UNL     1     157.500 161.812 180.043  0.00  0.00    -0.054 C 
ATOM     29  C   UNL     1     156.278 162.361 180.200  0.00  0.00    -0.079 C 
ATOM     30  C   UNL     1     154.993 161.641 180.515  0.00  0.00    -0.008 C 
ATOM     31  C   UNL     1     154.724 161.569 182.031  0.00  0.00    +0.061 C 
ATOM     32  C   UNL     1     153.613 162.536 182.469  0.00  0.00    +0.003 C 
ATOM     33  C   UNL     1     153.526 162.704 183.996  0.00  0.00    +0.080 C 
ATOM     34  O   UNL     1     152.832 163.927 184.325  0.00  0.00    -0.369 OA
ATOM     35  C   UNL     1     151.396 163.816 184.363  0.00  0.00    +0.065 C 
ATOM     36  C   UNL     1     150.854 165.235 184.638  0.00  0.00    +0.000 C 
ATOM     37  C   UNL     1     149.321 165.333 184.786  0.00  0.00    +0.066 C 
ATOM     38  C   UNL     1     148.849 166.782 185.113  0.00  0.00    +0.009 C 
ATOM     39  C   UNL     1     149.357 167.376 186.457  0.00  0.00    +0.063 C 
ATOM     40  C   UNL     1     148.605 167.089 187.775  0.00  0.00    -0.000 C 
ATOM     41  C   UNL     1     148.784 165.725 188.458  0.00  0.00    +0.064 C 
ATOM     42  C   UNL     1     150.237 165.225 188.624  0.00  0.00    +0.020 C 
ATOM     43  C   UNL     1     151.003 162.827 185.471  0.00  0.00    -0.008 C 
ATOM     44  C   UNL     1     151.776 161.553 185.381  0.00  0.00    -0.083 C 
ATOM     45  C   UNL     1     152.930 161.511 184.706  0.00  0.00    -0.059 C 
ATOM     46  C   UNL     1     154.707 167.352 183.455  0.00  0.00    -0.008 C 
ATOM     47  C   UNL     1     155.915 167.778 184.226  0.00  0.00    -0.083 C 
ATOM     48  C   UNL     1     156.994 166.984 184.287  0.00  0.00    -0.059 C 
ATOM     49  H   UNL     1     151.052 167.191 188.903  0.00  0.00    +0.074 HD
ATOM     50  H   UNL     1     154.702 165.976 186.631  0.00  0.00    +0.069 HD
ATOM     51  H   UNL     1     155.019 164.936 189.521  0.00  0.00    +0.062 HD
ATOM     52  H   UNL     1     156.986 166.585 187.117  0.00  0.00    +0.058 HD
ATOM     53  H   UNL     1     159.376 164.853 187.419  0.00  0.00    +0.033 HD
ATOM     54  H   UNL     1     159.184 166.316 186.522  0.00  0.00    +0.033 HD
ATOM     55  H   UNL     1     158.978 163.490 185.657  0.00  0.00    +0.060 HD
ATOM     56  H   UNL     1     156.589 164.200 185.189  0.00  0.00    +0.032 HD
ATOM     57  H   UNL     1     157.538 163.585 183.887  0.00  0.00    +0.032 HD
ATOM     58  H   UNL     1     157.808 165.685 182.820  0.00  0.00    +0.064 HD
ATOM     59  H   UNL     1     154.100 165.788 182.133  0.00  0.00    +0.060 HD
ATOM     60  H   UNL     1     156.047 165.844 180.594  0.00  0.00    +0.032 HD
ATOM     61  H   UNL     1     156.686 167.241 181.409  0.00  0.00    +0.032 HD
ATOM     62  H   UNL     1     154.688 168.603 180.709  0.00  0.00    +0.060 HD
ATOM     63  H   UNL     1     156.138 166.944 178.607  0.00  0.00    +0.035 HD
ATOM     64  H   UNL     1     156.344 169.934 178.556  0.00  0.00    +0.060 HD
ATOM     65  H   UNL     1     158.686 169.545 178.173  0.00  0.00    +0.032 HD
ATOM     66  H   UNL     1     157.748 168.534 177.065  0.00  0.00    +0.032 HD
ATOM     67  H   UNL     1     158.406 167.208 179.647  0.00  0.00    +0.060 HD
ATOM     68  H   UNL     1     160.516 168.673 178.925  0.00  0.00    +0.036 HD
ATOM     69  H   UNL     1     161.900 166.268 179.414  0.00  0.00    +0.074 HD
ATOM     70  H   UNL     1     158.336 164.295 180.951  0.00  0.00    +0.069 HD
ATOM     71  H   UNL     1     159.312 162.191 178.917  0.00  0.00    +0.062 HD
ATOM     72  H   UNL     1     156.157 163.437 180.072  0.00  0.00    +0.058 HD
ATOM     73  H   UNL     1     154.177 162.166 180.001  0.00  0.00    +0.033 HD
ATOM     74  H   UNL     1     155.004 160.641 180.068  0.00  0.00    +0.033 HD
ATOM     75  H   UNL     1     155.640 161.785 182.595  0.00  0.00    +0.060 HD
ATOM     76  H   UNL     1     153.789 163.518 182.019  0.00  0.00    +0.032 HD
ATOM     77  H   UNL     1     152.645 162.191 182.082  0.00  0.00    +0.032 HD
ATOM     78  H   UNL     1     154.539 162.848 184.388  0.00  0.00    +0.064 HD
ATOM     79  H   UNL     1     151.039 163.470 183.384  0.00  0.00    +0.060 HD
ATOM     80  H   UNL     1     151.362 165.621 185.525  0.00  0.00    +0.032 HD
ATOM     81  H   UNL     1     151.182 165.879 183.811  0.00  0.00    +0.032 HD
ATOM     82  H   UNL     1     148.981 164.648 185.563  0.00  0.00    +0.060 HD
ATOM     83  H   UNL     1     149.264 167.414 184.313  0.00  0.00    +0.035 HD
ATOM     84  H   UNL     1     150.409 167.148 186.589  0.00  0.00    +0.060 HD
ATOM     85  H   UNL     1     147.534 167.269 187.619  0.00  0.00    +0.032 HD
ATOM     86  H   UNL     1     148.902 167.859 188.500  0.00  0.00    +0.032 HD
ATOM     87  H   UNL     1     148.318 165.792 189.449  0.00  0.00    +0.060 HD
ATOM     88  H   UNL     1     150.645 165.127 187.613  0.00  0.00    +0.036 HD
ATOM     89  H   UNL     1     149.934 162.599 185.426  0.00  0.00    +0.033 HD
ATOM     90  H   UNL     1     151.217 163.258 186.452  0.00  0.00    +0.033 HD
ATOM     91  H   UNL     1     151.399 160.670 185.889  0.00  0.00    +0.057 HD
ATOM     92  H   UNL     1     153.478 160.574 184.652  0.00  0.00    +0.059 HD
ATOM     93  H   UNL     1     153.980 166.957 184.176  0.00  0.00    +0.033 HD
ATOM     94  H   UNL     1     154.244 168.215 182.972  0.00  0.00    +0.033 HD
ATOM     95  H   UNL     1     155.907 168.747 184.714  0.00  0.00    +0.057 HD
ATOM     96  H   UNL     1     157.887 167.346 184.783  0.00  0.00    +0.059 HD
ENDROOT
BRANCH  28  97
ATOM     97  C   UNL     1     157.807 160.344 180.173  0.00  0.00    -0.040 C 
ATOM     98  H   UNL     1     158.867 160.112 180.043  0.00  0.00    +0.028 HD
ATOM     99  H   UNL     1     157.503 159.973 181.159  0.00  0.00    +0.028 HD
ATOM    100  H   UNL     1     157.266 159.776 179.408  0.00  0.00    +0.028 HD
ENDBRANCH  28  97
BRANCH  21 101
ATOM    101  C   UNL     1     161.001 167.358 177.360  0.00  0.00    -0.057 C 
ATOM    102  H   UNL     1     161.441 168.269 176.943  0.00  0.00    +0.023 HD
ATOM    103  H   UNL     1     160.277 166.978 176.631  0.00  0.00    +0.023 HD
ATOM    104  H   UNL     1     161.792 166.607 177.458  0.00  0.00    +0.023 HD
ENDBRANCH  21 101
BRANCH  42 105
ATOM    105  C   UNL     1     150.278 163.782 189.153  0.00  0.00    -0.057 C 
ATOM    106  H   UNL     1     150.659 163.102 188.383  0.00  0.00    +0.023 HD
ATOM    107  H   UNL     1     150.935 163.684 190.024  0.00  0.00    +0.023 HD
ATOM    108  H   UNL     1     149.283 163.412 189.409  0.00  0.00    +0.023 HD
ENDBRANCH  42 105
BRANCH  17 109
ATOM    109  C   UNL     1     154.733 168.215 177.711  0.00  0.00    -0.058 C 
ATOM    110  H   UNL     1     155.021 167.666 176.811  0.00  0.00    +0.023 HD
ATOM    111  H   UNL     1     154.731 169.285 177.476  0.00  0.00    +0.023 HD
ATOM    112  H   UNL     1     153.699 167.945 177.954  0.00  0.00    +0.023 HD
ENDBRANCH  17 109
BRANCH  38 113
ATOM    113  C   UNL     1     147.327 166.948 184.971  0.00  0.00    -0.058 C 
ATOM    114  H   UNL     1     147.034 168.002 184.995  0.00  0.00    +0.023 HD
ATOM    115  H   UNL     1     146.970 166.513 184.030  0.00  0.00    +0.023 HD
ATOM    116  H   UNL     1     146.798 166.430 185.777  0.00  0.00    +0.023 HD
ENDBRANCH  38 113
BRANCH   7 117
ATOM    117  C   UNL     1     157.024 163.349 188.431  0.00  0.00    -0.040 C 
ATOM    118  H   UNL     1     156.735 163.147 189.465  0.00  0.00    +0.028 HD
ATOM    119  H   UNL     1     158.104 163.194 188.357  0.00  0.00    +0.028 HD
ATOM    120  H   UNL     1     156.546 162.604 187.785  0.00  0.00    +0.028 HD
ENDBRANCH   7 117
BRANCH   1 121
ATOM    121  C   UNL     1     150.967 166.494 190.885  0.00  0.00    +0.020 C 
ATOM    122  H   UNL     1     149.888 166.647 191.011  0.00  0.00    +0.036 HD
BRANCH 121 123
ATOM    123  C   UNL     1     151.332 165.362 191.842  0.00  0.00    -0.057 C 
ATOM    124  H   UNL     1     151.568 165.731 192.842  0.00  0.00    +0.023 HD
ATOM    125  H   UNL     1     150.517 164.635 191.915  0.00  0.00    +0.023 HD
ATOM    126  H   UNL     1     152.181 164.786 191.469  0.00  0.00    +0.023 HD
ENDBRANCH 121 123
BRANCH 121 127
ATOM    127  C   UNL     1     151.656 167.838 191.298  0.00  0.00    +0.064 C 
ATOM    128  H   UNL     1     152.643 167.574 191.698  0.00  0.00    +0.060 HD
BRANCH 127 129
ATOM    129  C   UNL     1     150.904 168.741 192.332  0.00  0.00    -0.017 C 
ATOM    130  H   UNL     1     151.161 168.410 193.341  0.00  0.00    +0.032 HD
BRANCH 129 131
ATOM    131  C   UNL     1     151.425 170.182 192.202  0.00  0.00    -0.060 C 
ATOM    132  H   UNL     1     151.396 170.523 191.161  0.00  0.00    +0.023 HD
ATOM    133  H   UNL     1     152.461 170.257 192.551  0.00  0.00    +0.023 HD
ATOM    134  H   UNL     1     150.834 170.877 192.807  0.00  0.00    +0.023 HD
ENDBRANCH 129 131
BRANCH 129 135
ATOM    135  C   UNL     1     149.365 168.728 192.175  0.00  0.00    -0.046 C 
ATOM    136  H   UNL     1     148.885 169.036 193.108  0.00  0.00    +0.027 HD
ATOM    137  H   UNL     1     149.026 167.699 191.993  0.00  0.00    +0.027 HD
BRANCH 135 138
ATOM    138  C   UNL     1     148.792 169.601 191.044  0.00  0.00    -0.026 C 
ATOM    139  H   UNL     1     148.160 168.941 190.433  0.00  0.00    +0.029 HD
ATOM    140  H   UNL     1     149.600 169.944 190.387  0.00  0.00    +0.029 HD
BRANCH 138 143
ATOM    141  C   UNL     1     145.885 171.934 190.901  0.00  0.00    +0.059 C 
ATOM    142  O   UNL     1     146.679 170.742 190.841  0.00  0.00    -0.373 OA
ATOM    143  C   UNL     1     147.944 170.798 191.503  0.00  0.00    +0.061 C 
ATOM    144  C   UNL     1     148.668 172.111 191.193  0.00  0.00    -0.000 C 
ATOM    145  C   UNL     1     147.836 173.325 191.625  0.00  0.00    +0.063 C 
ATOM    146  C   UNL     1     146.388 172.941 191.928  0.00  0.00    -0.000 C 
ATOM    147  H   UNL     1     145.918 172.385 189.902  0.00  0.00    +0.059 HD
ATOM    148  H   UNL     1     147.777 170.716 192.582  0.00  0.00    +0.060 HD
ATOM    149  H   UNL     1     149.658 172.111 191.661  0.00  0.00    +0.032 HD
ATOM    150  H   UNL     1     148.816 172.178 190.107  0.00  0.00    +0.032 HD
ATOM    151  H   UNL     1     147.837 174.071 190.818  0.00  0.00    +0.060 HD
ATOM    152  H   UNL     1     145.763 173.842 191.938  0.00  0.00    +0.032 HD
ATOM    153  H   UNL     1     146.318 172.518 192.936  0.00  0.00    +0.032 HD
BRANCH 141 154
ATOM    154  C   UNL     1     144.449 171.523 191.193  0.00  0.00    -0.039 C 
ATOM    155  H   UNL     1     144.399 170.499 191.577  0.00  0.00    +0.025 HD
ATOM    156  H   UNL     1     143.998 172.194 191.931  0.00  0.00    +0.025 HD
ATOM    157  H   UNL     1     143.833 171.586 190.289  0.00  0.00    +0.025 HD
ENDBRANCH 141 154
BRANCH 145 158
ATOM    158  O   UNL     1     148.376 173.922 192.810  0.00  0.00    -0.380 OA
BRANCH 158 159
ATOM    159  C   UNL     1     147.582 173.691 193.967  0.00  0.00    +0.037 C 
ATOM    160  H   UNL     1     146.544 173.940 193.723  0.00  0.00    +0.052 HD
ATOM    161  H   UNL     1     147.623 172.644 194.277  0.00  0.00    +0.052 HD
ATOM    162  H   UNL     1     147.911 174.338 194.786  0.00  0.00    +0.052 HD
ENDBRANCH 158 159
ENDBRANCH 145 158
ENDBRANCH 138 143
ENDBRANCH 135 138
ENDBRANCH 129 135
ENDBRANCH 127 129
BRANCH 127 163
ATOM    163  O   UNL     1     151.921 168.574 190.097  0.00  0.00    -0.391 OA
ATOM    164  H   UNL     1     151.854 169.520 190.319  0.00  0.00    +0.210 HD
ENDBRANCH 127 163
ENDBRANCH 121 127
ENDBRANCH   1 121
BRANCH  41 165
ATOM    165  O   UNL     1     148.024 164.764 187.721  0.00  0.00    -0.391 OA
ATOM    166  H   UNL     1     148.400 164.720 186.827  0.00  0.00    +0.210 HD
ENDBRANCH  41 165
BRANCH  39 167
ATOM    167  O   UNL     1     149.308 168.816 186.318  0.00  0.00    -0.391 OA
ATOM    168  H   UNL     1     149.225 169.178 187.217  0.00  0.00    +0.210 HD
ENDBRANCH  39 167
BRANCH  31 169
ATOM    169  O   UNL     1     154.347 160.227 182.357  0.00  0.00    -0.391 OA
ATOM    170  H   UNL     1     153.594 160.281 182.974  0.00  0.00    +0.210 HD
ENDBRANCH  31 169
BRANCH  22 171
ATOM    171  C   UNL     1     161.568 167.660 181.021  0.00  0.00    +0.020 C 
ATOM    172  H   UNL     1     161.557 167.017 181.912  0.00  0.00    +0.036 HD
BRANCH 171 173
ATOM    173  C   UNL     1     163.033 168.014 180.689  0.00  0.00    -0.057 C 
ATOM    174  H   UNL     1     163.097 168.782 179.911  0.00  0.00    +0.023 HD
ATOM    175  H   UNL     1     163.568 168.388 181.568  0.00  0.00    +0.023 HD
ATOM    176  H   UNL     1     163.587 167.165 180.292  0.00  0.00    +0.023 HD
ENDBRANCH 171 173
BRANCH 171 177
ATOM    177  C   UNL     1     160.705 168.923 181.351  0.00  0.00    +0.064 C 
ATOM    178  H   UNL     1     160.406 169.395 180.406  0.00  0.00    +0.060 HD
BRANCH 177 179
ATOM    179  O   UNL     1     159.515 168.492 182.011  0.00  0.00    -0.391 OA
ATOM    180  H   UNL     1     158.850 169.210 181.968  0.00  0.00    +0.210 HD
ENDBRANCH 177 179
BRANCH 177 181
ATOM    181  C   UNL     1     161.327 170.023 182.271  0.00  0.00    -0.017 C 
ATOM    182  H   UNL     1     162.233 169.606 182.732  0.00  0.00    +0.032 HD
BRANCH 181 183
ATOM    183  C   UNL     1     161.732 171.302 181.542  0.00  0.00    -0.060 C 
ATOM    184  H   UNL     1     162.061 171.074 180.524  0.00  0.00    +0.023 HD
ATOM    185  H   UNL     1     162.596 171.790 182.002  0.00  0.00    +0.023 HD
ATOM    186  H   UNL     1     160.912 172.025 181.512  0.00  0.00    +0.023 HD
ENDBRANCH 181 183
BRANCH 181 187
ATOM    187  C   UNL     1     160.340 170.325 183.440  0.00  0.00    -0.046 C 
ATOM    188  H   UNL     1     160.739 169.887 184.364  0.00  0.00    +0.027 HD
ATOM    189  H   UNL     1     159.384 169.822 183.244  0.00  0.00    +0.027 HD
BRANCH 187 190
ATOM    190  C   UNL     1     160.074 171.816 183.693  0.00  0.00    -0.026 C 
ATOM    191  H   UNL     1     160.294 172.061 184.739  0.00  0.00    +0.029 HD
ATOM    192  H   UNL     1     160.754 172.399 183.058  0.00  0.00    +0.029 HD
BRANCH 190 193
ATOM    193  C   UNL     1     158.633 172.234 183.365  0.00  0.00    +0.061 C 
ATOM    194  O   UNL     1     158.339 173.446 184.068  0.00  0.00    -0.373 OA
ATOM    195  C   UNL     1     157.025 173.959 183.834  0.00  0.00    +0.059 C 
ATOM    196  C   UNL     1     155.954 172.925 184.195  0.00  0.00    -0.000 C 
ATOM    197  C   UNL     1     156.207 171.551 183.571  0.00  0.00    +0.063 C 
ATOM    198  C   UNL     1     157.660 171.132 183.794  0.00  0.00    -0.000 C 
ATOM    199  H   UNL     1     158.566 172.408 182.285  0.00  0.00    +0.060 HD
ATOM    200  H   UNL     1     156.910 174.799 184.531  0.00  0.00    +0.059 HD
ATOM    201  H   UNL     1     154.963 173.310 183.937  0.00  0.00    +0.032 HD
ATOM    202  H   UNL     1     155.974 172.793 185.285  0.00  0.00    +0.032 HD
ATOM    203  H   UNL     1     155.558 170.803 184.044  0.00  0.00    +0.060 HD
ATOM    204  H   UNL     1     157.875 170.211 183.240  0.00  0.00    +0.032 HD
ATOM    205  H   UNL     1     157.794 170.923 184.863  0.00  0.00    +0.032 HD
BRANCH 195 206
ATOM    206  C   UNL     1     156.883 174.547 182.432  0.00  0.00    -0.039 C 
ATOM    207  H   UNL     1     157.431 173.932 181.708  0.00  0.00    +0.025 HD
ATOM    208  H   UNL     1     157.282 175.565 182.394  0.00  0.00    +0.025 HD
ATOM    209  H   UNL     1     155.847 174.579 182.084  0.00  0.00    +0.025 HD
ENDBRANCH 195 206
BRANCH 197 210
ATOM    210  O   UNL     1     155.958 171.551 182.161  0.00  0.00    -0.380 OA
BRANCH 210 211
ATOM    211  C   UNL     1     154.639 171.149 181.818  0.00  0.00    +0.037 C 
ATOM    212  H   UNL     1     154.035 172.048 181.674  0.00  0.00    +0.052 HD
ATOM    213  H   UNL     1     154.646 170.582 180.883  0.00  0.00    +0.052 HD
ATOM    214  H   UNL     1     154.186 170.553 182.615  0.00  0.00    +0.052 HD
ENDBRANCH 210 211
ENDBRANCH 197 210
ENDBRANCH 190 193
ENDBRANCH 187 190
ENDBRANCH 181 187
ENDBRANCH 177 181
ENDBRANCH 171 177
ENDBRANCH  22 171
BRANCH  20 215
ATOM    215  O   UNL     1     158.424 166.291 177.855  0.00  0.00    -0.391 OA
ATOM    216  H   UNL     1     158.286 166.573 176.935  0.00  0.00    +0.210 HD
ENDBRANCH  20 215
BRANCH  18 217
ATOM    217  O   UNL     1     157.188 169.313 180.284  0.00  0.00    -0.391 OA
ATOM    218  H   UNL     1     158.163 169.348 180.274  0.00  0.00    +0.210 HD
ENDBRANCH  18 217
BRANCH  10 219
ATOM    219  O   UNL     1     159.826 164.988 184.579  0.00  0.00    -0.391 OA
ATOM    220  H   UNL     1     160.527 164.314 184.599  0.00  0.00    +0.210 HD
ENDBRANCH  10 219
BRANCH  37 221
ATOM    221  O   UNL     1     148.776 164.951 183.508  0.00  0.00    -0.379 OA
BRANCH 221 222
ATOM    222  C   UNL     1     147.932 163.810 183.571  0.00  0.00    +0.037 C 
ATOM    223  H   UNL     1     147.656 163.648 184.617  0.00  0.00    +0.052 HD
ATOM    224  H   UNL     1     147.017 163.987 182.999  0.00  0.00    +0.052 HD
ATOM    225  H   UNL     1     148.438 162.914 183.201  0.00  0.00    +0.052 HD
ENDBRANCH 221 222
ENDBRANCH  37 221
BRANCH  16 226
ATOM    226  O   UNL     1     153.698 166.930 179.931  0.00  0.00    -0.379 OA
BRANCH 226 227
ATOM    227  C   UNL     1     152.523 167.633 180.318  0.00  0.00    +0.037 C 
ATOM    228  H   UNL     1     152.361 167.471 181.387  0.00  0.00    +0.052 HD
ATOM    229  H   UNL     1     152.641 168.706 180.144  0.00  0.00    +0.052 HD
ATOM    230  H   UNL     1     151.651 167.258 179.773  0.00  0.00    +0.052 HD
ENDBRANCH 226 227
ENDBRANCH  16 226
TORSDOF 40
ENDMDL
MODEL 8
REMARK VINA RESULT:      -5.5      5.115     12.733
REMARK  Name = Swinholide A_conf3
REMARK  40 active torsions:
REMARK  status: ('A' for Active; 'I' for Inactive)
REMARK    1  A    between atoms: C_1  and  C_2
REMARK    2  A    between atoms: C_4  and  C_10
REMARK    3  A    between atoms: C_6  and  O_8
REMARK    4  A    between atoms: O_8  and  C_9
REMARK    5  A    between atoms: C_10  and  C_11
REMARK    6  A    between atoms: C_11  and  C_12
REMARK    7  A    between atoms: C_12  and  C_13
REMARK    8  A    between atoms: C_12  and  C_98
REMARK    9  A    between atoms: C_13  and  O_14
REMARK   10  A    between atoms: C_13  and  C_15
REMARK   11  A    between atoms: C_15  and  C_16
REMARK   12  A    between atoms: C_15  and  C_97
REMARK   13  A    between atoms: C_22  and  C_96
REMARK   14  A    between atoms: C_25  and  O_95
REMARK   15  A    between atoms: C_31  and  O_90
REMARK   16  A    between atoms: C_32  and  C_89
REMARK   17  A    between atoms: C_33  and  O_88
REMARK   18  A    between atoms: C_35  and  O_87
REMARK   19  A    between atoms: C_36  and  C_86
REMARK   20  A    between atoms: C_37  and  C_69
REMARK   21  A    between atoms: C_43  and  C_68
REMARK   22  A    between atoms: C_46  and  O_67
REMARK   23  A    between atoms: C_52  and  O_62
REMARK   24  A    between atoms: C_53  and  C_61
REMARK   25  A    between atoms: C_54  and  O_60
REMARK   26  A    between atoms: C_56  and  O_59
REMARK   27  A    between atoms: C_57  and  C_58
REMARK   28  A    between atoms: O_62  and  C_63
REMARK   29  A    between atoms: C_69  and  C_70
REMARK   30  A    between atoms: C_69  and  C_85
REMARK   31  A    between atoms: C_70  and  O_71
REMARK   32  A    between atoms: C_70  and  C_72
REMARK   33  A    between atoms: C_72  and  C_73
REMARK   34  A    between atoms: C_72  and  C_84
REMARK   35  A    between atoms: C_73  and  C_74
REMARK   36  A    between atoms: C_74  and  C_75
REMARK   37  A    between atoms: C_77  and  C_83
REMARK   38  A    between atoms: C_79  and  O_81
REMARK   39  A    between atoms: O_81  and  C_82
REMARK   40  A    between atoms: O_90  and  C_91
REMARK                            x       y       z     vdW  Elec       q    Type
REMARK                         _______ _______ _______ _____ _____    ______ ____
ROOT
ATOM      1  C   UNL     1     143.692 167.656 189.205  0.00  0.00    +0.113 C 
ATOM      2  O   UNL     1     144.992 167.367 189.784  0.00  0.00    -0.458 OA
ATOM      3  C   UNL     1     146.005 167.271 188.883  0.00  0.00    +0.332 C 
ATOM      4  O   UNL     1     145.926 167.509 187.685  0.00  0.00    -0.246 OA
ATOM      5  C   UNL     1     147.272 166.808 189.456  0.00  0.00    +0.023 C 
ATOM      6  C   UNL     1     147.664 166.916 190.734  0.00  0.00    -0.052 C 
ATOM      7  C   UNL     1     149.008 166.528 191.154  0.00  0.00    -0.054 C 
ATOM      8  C   UNL     1     150.076 166.896 190.418  0.00  0.00    -0.079 C 
ATOM      9  C   UNL     1     151.519 166.540 190.620  0.00  0.00    -0.008 C 
ATOM     10  C   UNL     1     151.960 165.129 190.170  0.00  0.00    +0.061 C 
ATOM     11  C   UNL     1     151.092 164.400 189.136  0.00  0.00    +0.003 C 
ATOM     12  C   UNL     1     151.239 164.747 187.644  0.00  0.00    +0.080 C 
ATOM     13  O   UNL     1     150.268 163.896 187.000  0.00  0.00    -0.369 OA
ATOM     14  C   UNL     1     149.919 164.245 185.649  0.00  0.00    +0.065 C 
ATOM     15  C   UNL     1     151.117 163.994 184.717  0.00  0.00    +0.000 C 
ATOM     16  C   UNL     1     150.808 164.048 183.208  0.00  0.00    +0.066 C 
ATOM     17  C   UNL     1     152.052 163.590 182.391  0.00  0.00    +0.009 C 
ATOM     18  C   UNL     1     153.149 164.676 182.196  0.00  0.00    +0.063 C 
ATOM     19  C   UNL     1     154.590 164.114 182.267  0.00  0.00    -0.000 C 
ATOM     20  C   UNL     1     154.933 163.542 183.662  0.00  0.00    +0.064 C 
ATOM     21  C   UNL     1     156.338 163.965 184.171  0.00  0.00    +0.020 C 
ATOM     22  C   UNL     1     156.451 164.051 185.736  0.00  0.00    +0.113 C 
ATOM     23  O   UNL     1     155.337 163.415 186.389  0.00  0.00    -0.458 OA
ATOM     24  C   UNL     1     155.438 162.082 186.617  0.00  0.00    +0.332 C 
ATOM     25  O   UNL     1     156.447 161.400 186.533  0.00  0.00    -0.246 OA
ATOM     26  C   UNL     1     154.092 161.586 186.968  0.00  0.00    +0.023 C 
ATOM     27  C   UNL     1     153.894 160.278 187.188  0.00  0.00    -0.052 C 
ATOM     28  C   UNL     1     152.605 159.672 187.496  0.00  0.00    -0.054 C 
ATOM     29  C   UNL     1     151.487 160.018 186.827  0.00  0.00    -0.079 C 
ATOM     30  C   UNL     1     150.109 159.431 186.996  0.00  0.00    -0.008 C 
ATOM     31  C   UNL     1     149.266 160.214 188.021  0.00  0.00    +0.061 C 
ATOM     32  C   UNL     1     148.186 161.074 187.347  0.00  0.00    +0.003 C 
ATOM     33  C   UNL     1     147.531 162.083 188.307  0.00  0.00    +0.080 C 
ATOM     34  O   UNL     1     146.903 163.147 187.560  0.00  0.00    -0.369 OA
ATOM     35  C   UNL     1     145.561 162.863 187.116  0.00  0.00    +0.065 C 
ATOM     36  C   UNL     1     145.115 164.075 186.271  0.00  0.00    +0.000 C 
ATOM     37  C   UNL     1     143.665 164.008 185.745  0.00  0.00    +0.066 C 
ATOM     38  C   UNL     1     143.265 165.286 184.947  0.00  0.00    +0.009 C 
ATOM     39  C   UNL     1     143.273 166.618 185.747  0.00  0.00    +0.063 C 
ATOM     40  C   UNL     1     142.042 167.042 186.577  0.00  0.00    -0.000 C 
ATOM     41  C   UNL     1     141.791 166.376 187.938  0.00  0.00    +0.064 C 
ATOM     42  C   UNL     1     143.001 166.292 188.896  0.00  0.00    +0.020 C 
ATOM     43  C   UNL     1     144.663 162.657 188.345  0.00  0.00    -0.008 C 
ATOM     44  C   UNL     1     145.266 161.703 189.322  0.00  0.00    -0.083 C 
ATOM     45  C   UNL     1     146.580 161.451 189.296  0.00  0.00    -0.059 C 
ATOM     46  C   UNL     1     149.331 165.662 185.618  0.00  0.00    -0.008 C 
ATOM     47  C   UNL     1     150.184 166.634 186.369  0.00  0.00    -0.083 C 
ATOM     48  C   UNL     1     151.060 166.197 187.286  0.00  0.00    -0.059 C 
ATOM     49  H   UNL     1     143.853 168.149 188.240  0.00  0.00    +0.074 HD
ATOM     50  H   UNL     1     147.942 166.408 188.699  0.00  0.00    +0.069 HD
ATOM     51  H   UNL     1     146.996 167.304 191.498  0.00  0.00    +0.062 HD
ATOM     52  H   UNL     1     149.909 167.523 189.541  0.00  0.00    +0.058 HD
ATOM     53  H   UNL     1     151.789 166.675 191.676  0.00  0.00    +0.033 HD
ATOM     54  H   UNL     1     152.123 167.293 190.098  0.00  0.00    +0.033 HD
ATOM     55  H   UNL     1     151.960 164.500 191.071  0.00  0.00    +0.060 HD
ATOM     56  H   UNL     1     150.034 164.435 189.424  0.00  0.00    +0.032 HD
ATOM     57  H   UNL     1     151.340 163.330 189.212  0.00  0.00    +0.032 HD
ATOM     58  H   UNL     1     152.232 164.429 187.310  0.00  0.00    +0.064 HD
ATOM     59  H   UNL     1     149.119 163.552 185.369  0.00  0.00    +0.060 HD
ATOM     60  H   UNL     1     151.503 162.996 184.964  0.00  0.00    +0.032 HD
ATOM     61  H   UNL     1     151.925 164.684 184.961  0.00  0.00    +0.032 HD
ATOM     62  H   UNL     1     150.518 165.063 182.909  0.00  0.00    +0.060 HD
ATOM     63  H   UNL     1     152.479 162.735 182.928  0.00  0.00    +0.035 HD
ATOM     64  H   UNL     1     153.016 165.126 181.203  0.00  0.00    +0.060 HD
ATOM     65  H   UNL     1     155.264 164.947 182.036  0.00  0.00    +0.032 HD
ATOM     66  H   UNL     1     154.726 163.352 181.490  0.00  0.00    +0.032 HD
ATOM     67  H   UNL     1     154.180 163.893 184.365  0.00  0.00    +0.060 HD
ATOM     68  H   UNL     1     156.551 164.963 183.774  0.00  0.00    +0.036 HD
ATOM     69  H   UNL     1     157.364 163.534 186.062  0.00  0.00    +0.074 HD
ATOM     70  H   UNL     1     153.289 162.311 186.991  0.00  0.00    +0.069 HD
ATOM     71  H   UNL     1     154.742 159.594 187.145  0.00  0.00    +0.062 HD
ATOM     72  H   UNL     1     151.543 160.785 186.054  0.00  0.00    +0.058 HD
ATOM     73  H   UNL     1     149.620 159.428 186.013  0.00  0.00    +0.033 HD
ATOM     74  H   UNL     1     150.183 158.373 187.271  0.00  0.00    +0.033 HD
ATOM     75  H   UNL     1     149.909 160.852 188.640  0.00  0.00    +0.060 HD
ATOM     76  H   UNL     1     148.629 161.624 186.511  0.00  0.00    +0.032 HD
ATOM     77  H   UNL     1     147.412 160.426 186.913  0.00  0.00    +0.032 HD
ATOM     78  H   UNL     1     148.322 162.579 188.882  0.00  0.00    +0.064 HD
ATOM     79  H   UNL     1     145.578 161.964 186.487  0.00  0.00    +0.060 HD
ATOM     80  H   UNL     1     145.278 164.977 186.867  0.00  0.00    +0.032 HD
ATOM     81  H   UNL     1     145.807 164.160 185.422  0.00  0.00    +0.032 HD
ATOM     82  H   UNL     1     142.977 163.861 186.578  0.00  0.00    +0.060 HD
ATOM     83  H   UNL     1     144.025 165.389 184.157  0.00  0.00    +0.035 HD
ATOM     84  H   UNL     1     144.160 166.672 186.370  0.00  0.00    +0.060 HD
ATOM     85  H   UNL     1     141.142 166.933 185.958  0.00  0.00    +0.032 HD
ATOM     86  H   UNL     1     142.116 168.124 186.751  0.00  0.00    +0.032 HD
ATOM     87  H   UNL     1     140.986 166.935 188.432  0.00  0.00    +0.060 HD
ATOM     88  H   UNL     1     143.756 165.687 188.384  0.00  0.00    +0.036 HD
ATOM     89  H   UNL     1     143.678 162.287 188.048  0.00  0.00    +0.033 HD
ATOM     90  H   UNL     1     144.525 163.604 188.871  0.00  0.00    +0.033 HD
ATOM     91  H   UNL     1     144.627 161.235 190.065  0.00  0.00    +0.057 HD
ATOM     92  H   UNL     1     146.999 160.754 190.016  0.00  0.00    +0.059 HD
ATOM     93  H   UNL     1     148.343 165.656 186.094  0.00  0.00    +0.033 HD
ATOM     94  H   UNL     1     149.191 166.002 184.589  0.00  0.00    +0.033 HD
ATOM     95  H   UNL     1     150.093 167.692 186.143  0.00  0.00    +0.057 HD
ATOM     96  H   UNL     1     151.724 166.910 187.761  0.00  0.00    +0.059 HD
ENDROOT
BRANCH  28  97
ATOM     97  C   UNL     1     152.674 158.620 188.571  0.00  0.00    -0.040 C 
ATOM     98  H   UNL     1     153.379 157.817 188.343  0.00  0.00    +0.028 HD
ATOM     99  H   UNL     1     152.974 159.066 189.526  0.00  0.00    +0.028 HD
ATOM    100  H   UNL     1     151.694 158.148 188.701  0.00  0.00    +0.028 HD
ENDBRANCH  28  97
BRANCH  21 101
ATOM    101  C   UNL     1     157.458 163.076 183.613  0.00  0.00    -0.057 C 
ATOM    102  H   UNL     1     157.065 162.171 183.139  0.00  0.00    +0.023 HD
ATOM    103  H   UNL     1     158.134 162.761 184.415  0.00  0.00    +0.023 HD
ATOM    104  H   UNL     1     158.058 163.618 182.874  0.00  0.00    +0.023 HD
ENDBRANCH  21 101
BRANCH  42 105
ATOM    105  C   UNL     1     142.674 165.452 190.142  0.00  0.00    -0.057 C 
ATOM    106  H   UNL     1     141.591 165.414 190.305  0.00  0.00    +0.023 HD
ATOM    107  H   UNL     1     143.021 164.418 190.040  0.00  0.00    +0.023 HD
ATOM    108  H   UNL     1     143.096 165.885 191.050  0.00  0.00    +0.023 HD
ENDBRANCH  42 105
BRANCH  17 109
ATOM    109  C   UNL     1     151.681 163.018 181.011  0.00  0.00    -0.058 C 
ATOM    110  H   UNL     1     152.546 162.556 180.527  0.00  0.00    +0.023 HD
ATOM    111  H   UNL     1     151.290 163.796 180.347  0.00  0.00    +0.023 HD
ATOM    112  H   UNL     1     150.898 162.256 181.100  0.00  0.00    +0.023 HD
ENDBRANCH  17 109
BRANCH  38 113
ATOM    113  C   UNL     1     141.947 165.106 184.177  0.00  0.00    -0.058 C 
ATOM    114  H   UNL     1     142.040 165.436 183.139  0.00  0.00    +0.023 HD
ATOM    115  H   UNL     1     141.630 164.056 184.178  0.00  0.00    +0.023 HD
ATOM    116  H   UNL     1     141.138 165.678 184.644  0.00  0.00    +0.023 HD
ENDBRANCH  38 113
BRANCH   7 117
ATOM    117  C   UNL     1     149.080 165.705 192.406  0.00  0.00    -0.040 C 
ATOM    118  H   UNL     1     148.074 165.514 192.789  0.00  0.00    +0.028 HD
ATOM    119  H   UNL     1     149.644 166.199 193.202  0.00  0.00    +0.028 HD
ATOM    120  H   UNL     1     149.566 164.742 192.215  0.00  0.00    +0.028 HD
ENDBRANCH   7 117
BRANCH   1 121
ATOM    121  C   UNL     1     142.929 168.731 190.036  0.00  0.00    +0.020 C 
ATOM    122  H   UNL     1     141.862 168.497 189.933  0.00  0.00    +0.036 HD
BRANCH 121 123
ATOM    123  C   UNL     1     143.202 168.736 191.538  0.00  0.00    -0.057 C 
ATOM    124  H   UNL     1     143.552 169.709 191.888  0.00  0.00    +0.023 HD
ATOM    125  H   UNL     1     142.303 168.461 192.098  0.00  0.00    +0.023 HD
ATOM    126  H   UNL     1     143.938 167.978 191.810  0.00  0.00    +0.023 HD
ENDBRANCH 121 123
BRANCH 121 127
ATOM    127  C   UNL     1     143.132 170.152 189.412  0.00  0.00    +0.064 C 
ATOM    128  H   UNL     1     142.416 170.238 188.586  0.00  0.00    +0.060 HD
BRANCH 127 129
ATOM    129  C   UNL     1     144.565 170.508 188.891  0.00  0.00    -0.017 C 
ATOM    130  H   UNL     1     144.963 169.652 188.342  0.00  0.00    +0.032 HD
BRANCH 129 131
ATOM    131  C   UNL     1     144.452 171.660 187.878  0.00  0.00    -0.060 C 
ATOM    132  H   UNL     1     145.416 172.161 187.735  0.00  0.00    +0.023 HD
ATOM    133  H   UNL     1     143.730 172.411 188.219  0.00  0.00    +0.023 HD
ATOM    134  H   UNL     1     144.104 171.302 186.904  0.00  0.00    +0.023 HD
ENDBRANCH 129 131
BRANCH 129 135
ATOM    135  C   UNL     1     145.562 170.896 190.010  0.00  0.00    -0.046 C 
ATOM    136  H   UNL     1     145.261 170.446 190.960  0.00  0.00    +0.027 HD
ATOM    137  H   UNL     1     145.523 171.982 190.171  0.00  0.00    +0.027 HD
BRANCH 135 138
ATOM    138  C   UNL     1     147.035 170.526 189.762  0.00  0.00    -0.026 C 
ATOM    139  H   UNL     1     147.276 170.873 188.748  0.00  0.00    +0.029 HD
ATOM    140  H   UNL     1     147.152 169.436 189.748  0.00  0.00    +0.029 HD
BRANCH 138 143
ATOM    141  C   UNL     1     149.937 170.484 192.106  0.00  0.00    +0.059 C 
ATOM    142  O   UNL     1     149.086 170.205 190.987  0.00  0.00    -0.373 OA
ATOM    143  C   UNL     1     148.043 171.149 190.742  0.00  0.00    +0.061 C 
ATOM    144  C   UNL     1     147.342 171.544 192.044  0.00  0.00    -0.000 C 
ATOM    145  C   UNL     1     148.328 172.153 193.048  0.00  0.00    +0.063 C 
ATOM    146  C   UNL     1     149.780 171.902 192.642  0.00  0.00    -0.000 C 
ATOM    147  H   UNL     1     149.672 169.766 192.891  0.00  0.00    +0.059 HD
ATOM    148  H   UNL     1     148.480 172.039 190.275  0.00  0.00    +0.060 HD
ATOM    149  H   UNL     1     146.510 172.223 191.831  0.00  0.00    +0.032 HD
ATOM    150  H   UNL     1     146.921 170.638 192.501  0.00  0.00    +0.032 HD
ATOM    151  H   UNL     1     148.161 171.707 194.039  0.00  0.00    +0.060 HD
ATOM    152  H   UNL     1     150.439 172.075 193.501  0.00  0.00    +0.032 HD
ATOM    153  H   UNL     1     150.085 172.629 191.881  0.00  0.00    +0.032 HD
BRANCH 141 154
ATOM    154  C   UNL     1     151.373 170.215 191.677  0.00  0.00    -0.039 C 
ATOM    155  H   UNL     1     152.086 170.631 192.395  0.00  0.00    +0.025 HD
ATOM    156  H   UNL     1     151.554 169.140 191.588  0.00  0.00    +0.025 HD
ATOM    157  H   UNL     1     151.575 170.653 190.694  0.00  0.00    +0.025 HD
ENDBRANCH 141 154
BRANCH 145 158
ATOM    158  O   UNL     1     148.153 173.572 193.144  0.00  0.00    -0.380 OA
BRANCH 158 159
ATOM    159  C   UNL     1     146.987 173.946 193.868  0.00  0.00    +0.037 C 
ATOM    160  H   UNL     1     146.942 173.338 194.777  0.00  0.00    +0.052 HD
ATOM    161  H   UNL     1     147.018 175.000 194.158  0.00  0.00    +0.052 HD
ATOM    162  H   UNL     1     146.092 173.747 193.272  0.00  0.00    +0.052 HD
ENDBRANCH 158 159
ENDBRANCH 145 158
ENDBRANCH 138 143
ENDBRANCH 135 138
ENDBRANCH 129 135
ENDBRANCH 127 129
BRANCH 127 163
ATOM    163  O   UNL     1     142.704 171.116 190.383  0.00  0.00    -0.391 OA
ATOM    164  H   UNL     1     143.499 171.585 190.692  0.00  0.00    +0.210 HD
ENDBRANCH 127 163
ENDBRANCH 121 127
ENDBRANCH   1 121
BRANCH  41 165
ATOM    165  O   UNL     1     141.276 165.064 187.694  0.00  0.00    -0.391 OA
ATOM    166  H   UNL     1     140.347 165.161 187.427  0.00  0.00    +0.210 HD
ENDBRANCH  41 165
BRANCH  39 167
ATOM    167  O   UNL     1     143.440 167.682 184.779  0.00  0.00    -0.391 OA
ATOM    168  H   UNL     1     143.006 168.468 185.153  0.00  0.00    +0.210 HD
ENDBRANCH  39 167
BRANCH  31 169
ATOM    169  O   UNL     1     148.647 159.274 188.906  0.00  0.00    -0.391 OA
ATOM    170  H   UNL     1     147.685 159.423 188.858  0.00  0.00    +0.210 HD
ENDBRANCH  31 169
BRANCH  22 171
ATOM    171  C   UNL     1     156.588 165.531 186.265  0.00  0.00    +0.020 C 
ATOM    172  H   UNL     1     156.204 165.523 187.293  0.00  0.00    +0.036 HD
BRANCH 171 173
ATOM    173  C   UNL     1     158.094 165.865 186.305  0.00  0.00    -0.057 C 
ATOM    174  H   UNL     1     158.514 165.721 187.306  0.00  0.00    +0.023 HD
ATOM    175  H   UNL     1     158.666 165.239 185.613  0.00  0.00    +0.023 HD
ATOM    176  H   UNL     1     158.296 166.908 186.064  0.00  0.00    +0.023 HD
ENDBRANCH 171 173
BRANCH 171 177
ATOM    177  C   UNL     1     155.760 166.593 185.468  0.00  0.00    +0.064 C 
ATOM    178  H   UNL     1     154.988 166.070 184.890  0.00  0.00    +0.060 HD
BRANCH 177 179
ATOM    179  O   UNL     1     155.093 167.435 186.408  0.00  0.00    -0.391 OA
ATOM    180  H   UNL     1     155.222 168.370 186.145  0.00  0.00    +0.210 HD
ENDBRANCH 177 179
BRANCH 177 181
ATOM    181  C   UNL     1     156.525 167.556 184.504  0.00  0.00    -0.017 C 
ATOM    182  H   UNL     1     157.600 167.451 184.705  0.00  0.00    +0.032 HD
BRANCH 181 183
ATOM    183  C   UNL     1     156.308 167.266 183.019  0.00  0.00    -0.060 C 
ATOM    184  H   UNL     1     156.933 167.921 182.407  0.00  0.00    +0.023 HD
ATOM    185  H   UNL     1     155.287 167.488 182.696  0.00  0.00    +0.023 HD
ATOM    186  H   UNL     1     156.519 166.220 182.779  0.00  0.00    +0.023 HD
ENDBRANCH 181 183
BRANCH 181 187
ATOM    187  C   UNL     1     156.154 169.029 184.855  0.00  0.00    -0.046 C 
ATOM    188  H   UNL     1     155.848 169.076 185.908  0.00  0.00    +0.027 HD
ATOM    189  H   UNL     1     155.282 169.332 184.262  0.00  0.00    +0.027 HD
BRANCH 187 190
ATOM    190  C   UNL     1     157.282 170.048 184.638  0.00  0.00    -0.026 C 
ATOM    191  H   UNL     1     157.690 170.364 185.605  0.00  0.00    +0.029 HD
ATOM    192  H   UNL     1     158.087 169.557 184.075  0.00  0.00    +0.029 HD
BRANCH 190 193
ATOM    193  C   UNL     1     156.829 171.286 183.848  0.00  0.00    +0.061 C 
ATOM    194  O   UNL     1     156.340 172.262 184.774  0.00  0.00    -0.373 OA
ATOM    195  C   UNL     1     155.901 173.481 184.168  0.00  0.00    +0.059 C 
ATOM    196  C   UNL     1     154.809 173.220 183.126  0.00  0.00    -0.000 C 
ATOM    197  C   UNL     1     155.180 172.124 182.125  0.00  0.00    +0.063 C 
ATOM    198  C   UNL     1     155.723 170.900 182.862  0.00  0.00    -0.000 C 
ATOM    199  H   UNL     1     157.699 171.686 183.315  0.00  0.00    +0.060 HD
ATOM    200  H   UNL     1     155.442 174.063 184.978  0.00  0.00    +0.059 HD
ATOM    201  H   UNL     1     154.543 174.154 182.624  0.00  0.00    +0.032 HD
ATOM    202  H   UNL     1     153.913 172.878 183.663  0.00  0.00    +0.032 HD
ATOM    203  H   UNL     1     154.288 171.817 181.563  0.00  0.00    +0.060 HD
ATOM    204  H   UNL     1     156.106 170.167 182.144  0.00  0.00    +0.032 HD
ATOM    205  H   UNL     1     154.893 170.435 183.410  0.00  0.00    +0.032 HD
BRANCH 195 206
ATOM    206  C   UNL     1     157.072 174.317 183.655  0.00  0.00    -0.039 C 
ATOM    207  H   UNL     1     157.945 174.180 184.303  0.00  0.00    +0.025 HD
ATOM    208  H   UNL     1     156.814 175.380 183.639  0.00  0.00    +0.025 HD
ATOM    209  H   UNL     1     157.391 174.033 182.649  0.00  0.00    +0.025 HD
ENDBRANCH 195 206
BRANCH 197 210
ATOM    210  O   UNL     1     156.179 172.562 181.200  0.00  0.00    -0.380 OA
BRANCH 210 211
ATOM    211  C   UNL     1     156.381 171.666 180.116  0.00  0.00    +0.037 C 
ATOM    212  H   UNL     1     155.906 172.091 179.228  0.00  0.00    +0.052 HD
ATOM    213  H   UNL     1     157.450 171.547 179.914  0.00  0.00    +0.052 HD
ATOM    214  H   UNL     1     155.927 170.691 180.316  0.00  0.00    +0.052 HD
ENDBRANCH 210 211
ENDBRANCH 197 210
ENDBRANCH 190 193
ENDBRANCH 187 190
ENDBRANCH 181 187
ENDBRANCH 177 181
ENDBRANCH 171 177
ENDBRANCH  22 171
BRANCH  20 215
ATOM    215  O   UNL     1     154.792 162.121 183.632  0.00  0.00    -0.391 OA
ATOM    216  H   UNL     1     154.873 161.809 182.715  0.00  0.00    +0.210 HD
ENDBRANCH  20 215
BRANCH  18 217
ATOM    217  O   UNL     1     153.049 165.762 183.122  0.00  0.00    -0.391 OA
ATOM    218  H   UNL     1     153.766 166.386 182.905  0.00  0.00    +0.210 HD
ENDBRANCH  18 217
BRANCH  10 219
ATOM    219  O   UNL     1     153.319 165.199 189.734  0.00  0.00    -0.391 OA
ATOM    220  H   UNL     1     153.352 165.732 188.921  0.00  0.00    +0.210 HD
ENDBRANCH  10 219
BRANCH  37 221
ATOM    221  O   UNL     1     143.622 162.878 184.853  0.00  0.00    -0.379 OA
BRANCH 221 222
ATOM    222  C   UNL     1     142.700 161.874 185.257  0.00  0.00    +0.037 C 
ATOM    223  H   UNL     1     143.066 161.430 186.186  0.00  0.00    +0.052 HD
ATOM    224  H   UNL     1     141.721 162.320 185.453  0.00  0.00    +0.052 HD
ATOM    225  H   UNL     1     142.609 161.086 184.504  0.00  0.00    +0.052 HD
ENDBRANCH 221 222
ENDBRANCH  37 221
BRANCH  16 226
ATOM    226  O   UNL     1     149.731 163.124 182.970  0.00  0.00    -0.379 OA
BRANCH 226 227
ATOM    227  C   UNL     1     148.566 163.742 182.435  0.00  0.00    +0.037 C 
ATOM    228  H   UNL     1     148.854 164.702 181.999  0.00  0.00    +0.052 HD
ATOM    229  H   UNL     1     148.129 163.120 181.648  0.00  0.00    +0.052 HD
ATOM    230  H   UNL     1     147.828 163.924 183.222  0.00  0.00    +0.052 HD
ENDBRANCH 226 227
ENDBRANCH  16 226
TORSDOF 40
ENDMDL
MODEL 9
REMARK VINA RESULT:      -5.5      8.318     14.567
REMARK  Name = Swinholide A_conf3
REMARK  40 active torsions:
REMARK  status: ('A' for Active; 'I' for Inactive)
REMARK    1  A    between atoms: C_1  and  C_2
REMARK    2  A    between atoms: C_4  and  C_10
REMARK    3  A    between atoms: C_6  and  O_8
REMARK    4  A    between atoms: O_8  and  C_9
REMARK    5  A    between atoms: C_10  and  C_11
REMARK    6  A    between atoms: C_11  and  C_12
REMARK    7  A    between atoms: C_12  and  C_13
REMARK    8  A    between atoms: C_12  and  C_98
REMARK    9  A    between atoms: C_13  and  O_14
REMARK   10  A    between atoms: C_13  and  C_15
REMARK   11  A    between atoms: C_15  and  C_16
REMARK   12  A    between atoms: C_15  and  C_97
REMARK   13  A    between atoms: C_22  and  C_96
REMARK   14  A    between atoms: C_25  and  O_95
REMARK   15  A    between atoms: C_31  and  O_90
REMARK   16  A    between atoms: C_32  and  C_89
REMARK   17  A    between atoms: C_33  and  O_88
REMARK   18  A    between atoms: C_35  and  O_87
REMARK   19  A    between atoms: C_36  and  C_86
REMARK   20  A    between atoms: C_37  and  C_69
REMARK   21  A    between atoms: C_43  and  C_68
REMARK   22  A    between atoms: C_46  and  O_67
REMARK   23  A    between atoms: C_52  and  O_62
REMARK   24  A    between atoms: C_53  and  C_61
REMARK   25  A    between atoms: C_54  and  O_60
REMARK   26  A    between atoms: C_56  and  O_59
REMARK   27  A    between atoms: C_57  and  C_58
REMARK   28  A    between atoms: O_62  and  C_63
REMARK   29  A    between atoms: C_69  and  C_70
REMARK   30  A    between atoms: C_69  and  C_85
REMARK   31  A    between atoms: C_70  and  O_71
REMARK   32  A    between atoms: C_70  and  C_72
REMARK   33  A    between atoms: C_72  and  C_73
REMARK   34  A    between atoms: C_72  and  C_84
REMARK   35  A    between atoms: C_73  and  C_74
REMARK   36  A    between atoms: C_74  and  C_75
REMARK   37  A    between atoms: C_77  and  C_83
REMARK   38  A    between atoms: C_79  and  O_81
REMARK   39  A    between atoms: O_81  and  C_82
REMARK   40  A    between atoms: O_90  and  C_91
REMARK                            x       y       z     vdW  Elec       q    Type
REMARK                         _______ _______ _______ _____ _____    ______ ____
ROOT
ATOM      1  C   UNL     1     148.260 166.862 188.295  0.00  0.00    +0.113 C 
ATOM      2  O   UNL     1     148.103 168.152 188.944  0.00  0.00    -0.458 OA
ATOM      3  C   UNL     1     146.833 168.437 189.336  0.00  0.00    +0.332 C 
ATOM      4  O   UNL     1     145.877 167.675 189.285  0.00  0.00    -0.246 OA
ATOM      5  C   UNL     1     146.654 169.806 189.829  0.00  0.00    +0.023 C 
ATOM      6  C   UNL     1     147.597 170.603 190.352  0.00  0.00    -0.052 C 
ATOM      7  C   UNL     1     147.263 171.903 190.926  0.00  0.00    -0.054 C 
ATOM      8  C   UNL     1     146.195 172.027 191.740  0.00  0.00    -0.079 C 
ATOM      9  C   UNL     1     145.633 173.270 192.363  0.00  0.00    -0.008 C 
ATOM     10  C   UNL     1     144.779 174.182 191.454  0.00  0.00    +0.061 C 
ATOM     11  C   UNL     1     144.154 173.562 190.198  0.00  0.00    +0.003 C 
ATOM     12  C   UNL     1     142.859 172.743 190.320  0.00  0.00    +0.080 C 
ATOM     13  O   UNL     1     142.597 172.314 188.967  0.00  0.00    -0.369 OA
ATOM     14  C   UNL     1     141.654 171.239 188.816  0.00  0.00    +0.065 C 
ATOM     15  C   UNL     1     140.243 171.721 189.194  0.00  0.00    +0.000 C 
ATOM     16  C   UNL     1     139.091 170.772 188.810  0.00  0.00    +0.066 C 
ATOM     17  C   UNL     1     137.721 171.463 189.072  0.00  0.00    +0.009 C 
ATOM     18  C   UNL     1     137.239 171.434 190.552  0.00  0.00    +0.063 C 
ATOM     19  C   UNL     1     136.527 172.735 190.992  0.00  0.00    -0.000 C 
ATOM     20  C   UNL     1     137.469 173.961 190.973  0.00  0.00    +0.064 C 
ATOM     21  C   UNL     1     137.333 174.861 192.231  0.00  0.00    +0.020 C 
ATOM     22  C   UNL     1     138.650 175.627 192.615  0.00  0.00    +0.113 C 
ATOM     23  O   UNL     1     139.618 175.594 191.549  0.00  0.00    -0.458 OA
ATOM     24  C   UNL     1     139.523 176.561 190.604  0.00  0.00    +0.332 C 
ATOM     25  O   UNL     1     138.855 177.581 190.665  0.00  0.00    -0.246 OA
ATOM     26  C   UNL     1     140.363 176.151 189.460  0.00  0.00    +0.023 C 
ATOM     27  C   UNL     1     140.407 176.907 188.353  0.00  0.00    -0.052 C 
ATOM     28  C   UNL     1     141.162 176.579 187.151  0.00  0.00    -0.054 C 
ATOM     29  C   UNL     1     141.167 175.331 186.641  0.00  0.00    -0.079 C 
ATOM     30  C   UNL     1     141.848 174.868 185.380  0.00  0.00    -0.008 C 
ATOM     31  C   UNL     1     143.272 174.343 185.646  0.00  0.00    +0.061 C 
ATOM     32  C   UNL     1     143.350 172.811 185.561  0.00  0.00    +0.003 C 
ATOM     33  C   UNL     1     144.671 172.241 186.107  0.00  0.00    +0.080 C 
ATOM     34  O   UNL     1     144.513 170.846 186.442  0.00  0.00    -0.369 OA
ATOM     35  C   UNL     1     144.701 169.935 185.342  0.00  0.00    +0.065 C 
ATOM     36  C   UNL     1     144.401 168.523 185.887  0.00  0.00    +0.000 C 
ATOM     37  C   UNL     1     144.608 167.374 184.877  0.00  0.00    +0.066 C 
ATOM     38  C   UNL     1     144.338 165.974 185.509  0.00  0.00    +0.009 C 
ATOM     39  C   UNL     1     145.272 165.566 186.682  0.00  0.00    +0.063 C 
ATOM     40  C   UNL     1     146.642 164.911 186.403  0.00  0.00    -0.000 C 
ATOM     41  C   UNL     1     147.815 165.791 185.947  0.00  0.00    +0.064 C 
ATOM     42  C   UNL     1     148.065 167.080 186.763  0.00  0.00    +0.020 C 
ATOM     43  C   UNL     1     146.146 170.060 184.834  0.00  0.00    -0.008 C 
ATOM     44  C   UNL     1     146.535 171.483 184.606  0.00  0.00    -0.083 C 
ATOM     45  C   UNL     1     145.855 172.472 185.197  0.00  0.00    -0.059 C 
ATOM     46  C   UNL     1     142.162 169.999 189.565  0.00  0.00    -0.008 C 
ATOM     47  C   UNL     1     142.593 170.329 190.958  0.00  0.00    -0.083 C 
ATOM     48  C   UNL     1     142.898 171.592 191.290  0.00  0.00    -0.059 C 
ATOM     49  H   UNL     1     147.440 166.215 188.625  0.00  0.00    +0.074 HD
ATOM     50  H   UNL     1     145.613 170.119 189.800  0.00  0.00    +0.069 HD
ATOM     51  H   UNL     1     148.641 170.301 190.375  0.00  0.00    +0.062 HD
ATOM     52  H   UNL     1     145.629 171.129 191.991  0.00  0.00    +0.058 HD
ATOM     53  H   UNL     1     146.445 173.866 192.799  0.00  0.00    +0.033 HD
ATOM     54  H   UNL     1     145.038 172.964 193.234  0.00  0.00    +0.033 HD
ATOM     55  H   UNL     1     145.443 174.984 191.106  0.00  0.00    +0.060 HD
ATOM     56  H   UNL     1     144.903 172.993 189.633  0.00  0.00    +0.032 HD
ATOM     57  H   UNL     1     143.908 174.397 189.522  0.00  0.00    +0.032 HD
ATOM     58  H   UNL     1     142.048 173.416 190.617  0.00  0.00    +0.064 HD
ATOM     59  H   UNL     1     141.658 171.000 187.747  0.00  0.00    +0.060 HD
ATOM     60  H   UNL     1     140.094 172.683 188.686  0.00  0.00    +0.032 HD
ATOM     61  H   UNL     1     140.205 171.950 190.259  0.00  0.00    +0.032 HD
ATOM     62  H   UNL     1     139.154 169.837 189.382  0.00  0.00    +0.060 HD
ATOM     63  H   UNL     1     137.829 172.504 188.746  0.00  0.00    +0.035 HD
ATOM     64  H   UNL     1     136.525 170.608 190.666  0.00  0.00    +0.060 HD
ATOM     65  H   UNL     1     136.165 172.567 192.013  0.00  0.00    +0.032 HD
ATOM     66  H   UNL     1     135.651 172.908 190.355  0.00  0.00    +0.032 HD
ATOM     67  H   UNL     1     138.493 173.598 190.905  0.00  0.00    +0.060 HD
ATOM     68  H   UNL     1     137.073 174.216 193.077  0.00  0.00    +0.036 HD
ATOM     69  H   UNL     1     138.412 176.681 192.812  0.00  0.00    +0.074 HD
ATOM     70  H   UNL     1     140.891 175.211 189.547  0.00  0.00    +0.069 HD
ATOM     71  H   UNL     1     139.848 177.843 188.322  0.00  0.00    +0.062 HD
ATOM     72  H   UNL     1     140.613 174.543 187.153  0.00  0.00    +0.058 HD
ATOM     73  H   UNL     1     141.225 174.086 184.926  0.00  0.00    +0.033 HD
ATOM     74  H   UNL     1     141.858 175.677 184.640  0.00  0.00    +0.033 HD
ATOM     75  H   UNL     1     143.625 174.673 186.631  0.00  0.00    +0.060 HD
ATOM     76  H   UNL     1     142.521 172.373 186.125  0.00  0.00    +0.032 HD
ATOM     77  H   UNL     1     143.215 172.489 184.519  0.00  0.00    +0.032 HD
ATOM     78  H   UNL     1     144.891 172.732 187.063  0.00  0.00    +0.064 HD
ATOM     79  H   UNL     1     143.984 170.182 184.548  0.00  0.00    +0.060 HD
ATOM     80  H   UNL     1     145.006 168.374 186.784  0.00  0.00    +0.032 HD
ATOM     81  H   UNL     1     143.359 168.518 186.235  0.00  0.00    +0.032 HD
ATOM     82  H   UNL     1     145.623 167.411 184.480  0.00  0.00    +0.060 HD
ATOM     83  H   UNL     1     143.319 166.030 185.922  0.00  0.00    +0.035 HD
ATOM     84  H   UNL     1     145.408 166.404 187.358  0.00  0.00    +0.060 HD
ATOM     85  H   UNL     1     146.505 164.098 185.678  0.00  0.00    +0.032 HD
ATOM     86  H   UNL     1     146.957 164.397 187.322  0.00  0.00    +0.032 HD
ATOM     87  H   UNL     1     148.720 165.171 185.978  0.00  0.00    +0.060 HD
ATOM     88  H   UNL     1     147.158 167.686 186.663  0.00  0.00    +0.036 HD
ATOM     89  H   UNL     1     146.280 169.501 183.904  0.00  0.00    +0.033 HD
ATOM     90  H   UNL     1     146.839 169.656 185.575  0.00  0.00    +0.033 HD
ATOM     91  H   UNL     1     147.390 171.700 183.973  0.00  0.00    +0.057 HD
ATOM     92  H   UNL     1     146.154 173.501 185.018  0.00  0.00    +0.059 HD
ATOM     93  H   UNL     1     143.033 169.589 189.040  0.00  0.00    +0.033 HD
ATOM     94  H   UNL     1     141.399 169.217 189.583  0.00  0.00    +0.033 HD
ATOM     95  H   UNL     1     142.634 169.533 191.695  0.00  0.00    +0.057 HD
ATOM     96  H   UNL     1     143.130 171.824 192.323  0.00  0.00    +0.059 HD
ENDROOT
BRANCH  28  97
ATOM     97  C   UNL     1     141.867 177.761 186.541  0.00  0.00    -0.040 C 
ATOM     98  H   UNL     1     141.794 177.791 185.451  0.00  0.00    +0.028 HD
ATOM     99  H   UNL     1     141.453 178.698 186.929  0.00  0.00    +0.028 HD
ATOM    100  H   UNL     1     142.936 177.729 186.782  0.00  0.00    +0.028 HD
ENDBRANCH  28  97
BRANCH  21 101
ATOM    101  C   UNL     1     136.164 175.851 192.122  0.00  0.00    -0.057 C 
ATOM    102  H   UNL     1     136.312 176.571 191.311  0.00  0.00    +0.023 HD
ATOM    103  H   UNL     1     136.055 176.420 193.052  0.00  0.00    +0.023 HD
ATOM    104  H   UNL     1     135.219 175.326 191.947  0.00  0.00    +0.023 HD
ENDBRANCH  21 101
BRANCH  42 105
ATOM    105  C   UNL     1     149.141 167.961 186.106  0.00  0.00    -0.057 C 
ATOM    106  H   UNL     1     148.835 169.013 186.120  0.00  0.00    +0.023 HD
ATOM    107  H   UNL     1     150.099 167.897 186.633  0.00  0.00    +0.023 HD
ATOM    108  H   UNL     1     149.290 167.709 185.054  0.00  0.00    +0.023 HD
ENDBRANCH  42 105
BRANCH  17 109
ATOM    109  C   UNL     1     136.594 170.908 188.183  0.00  0.00    -0.058 C 
ATOM    110  H   UNL     1     136.987 170.525 187.237  0.00  0.00    +0.023 HD
ATOM    111  H   UNL     1     135.845 171.675 187.959  0.00  0.00    +0.023 HD
ATOM    112  H   UNL     1     136.066 170.088 188.684  0.00  0.00    +0.023 HD
ENDBRANCH  17 109
BRANCH  38 113
ATOM    113  C   UNL     1     144.254 164.862 184.451  0.00  0.00    -0.058 C 
ATOM    114  H   UNL     1     143.228 164.719 184.100  0.00  0.00    +0.023 HD
ATOM    115  H   UNL     1     144.885 165.093 183.585  0.00  0.00    +0.023 HD
ATOM    116  H   UNL     1     144.611 163.908 184.854  0.00  0.00    +0.023 HD
ENDBRANCH  38 113
BRANCH   7 117
ATOM    117  C   UNL     1     148.163 173.035 190.524  0.00  0.00    -0.040 C 
ATOM    118  H   UNL     1     148.368 172.989 189.452  0.00  0.00    +0.028 HD
ATOM    119  H   UNL     1     149.124 173.012 191.042  0.00  0.00    +0.028 HD
ATOM    120  H   UNL     1     147.699 174.002 190.747  0.00  0.00    +0.028 HD
ENDBRANCH   7 117
BRANCH   1 121
ATOM    121  C   UNL     1     149.532 166.122 188.808  0.00  0.00    +0.020 C 
ATOM    122  H   UNL     1     149.765 165.358 188.056  0.00  0.00    +0.036 HD
BRANCH 121 123
ATOM    123  C   UNL     1     150.796 166.969 188.932  0.00  0.00    -0.057 C 
ATOM    124  H   UNL     1     151.001 167.536 188.022  0.00  0.00    +0.023 HD
ATOM    125  H   UNL     1     150.718 167.665 189.773  0.00  0.00    +0.023 HD
ATOM    126  H   UNL     1     151.665 166.353 189.167  0.00  0.00    +0.023 HD
ENDBRANCH 121 123
BRANCH 121 127
ATOM    127  C   UNL     1     149.223 165.357 190.137  0.00  0.00    +0.064 C 
ATOM    128  H   UNL     1     149.751 165.891 190.937  0.00  0.00    +0.060 HD
BRANCH 127 129
ATOM    129  C   UNL     1     149.599 163.838 190.195  0.00  0.00    -0.017 C 
ATOM    130  H   UNL     1     148.680 163.248 190.203  0.00  0.00    +0.032 HD
BRANCH 129 131
ATOM    131  C   UNL     1     150.344 163.464 188.903  0.00  0.00    -0.060 C 
ATOM    132  H   UNL     1     150.752 164.351 188.407  0.00  0.00    +0.023 HD
ATOM    133  H   UNL     1     149.674 162.961 188.195  0.00  0.00    +0.023 HD
ATOM    134  H   UNL     1     151.170 162.774 189.103  0.00  0.00    +0.023 HD
ENDBRANCH 129 131
BRANCH 129 135
ATOM    135  C   UNL     1     150.458 163.450 191.422  0.00  0.00    -0.046 C 
ATOM    136  H   UNL     1     151.279 162.794 191.119  0.00  0.00    +0.027 HD
ATOM    137  H   UNL     1     149.849 162.858 192.119  0.00  0.00    +0.027 HD
BRANCH 135 138
ATOM    138  C   UNL     1     151.061 164.617 192.223  0.00  0.00    -0.026 C 
ATOM    139  H   UNL     1     151.015 165.499 191.569  0.00  0.00    +0.029 HD
ATOM    140  H   UNL     1     152.125 164.433 192.413  0.00  0.00    +0.029 HD
BRANCH 138 143
ATOM    141  C   UNL     1     148.538 166.356 194.349  0.00  0.00    +0.059 C 
ATOM    142  O   UNL     1     149.160 165.693 193.242  0.00  0.00    -0.373 OA
ATOM    143  C   UNL     1     150.344 164.951 193.541  0.00  0.00    +0.061 C 
ATOM    144  C   UNL     1     151.272 165.745 194.464  0.00  0.00    -0.000 C 
ATOM    145  C   UNL     1     150.575 166.107 195.781  0.00  0.00    +0.063 C 
ATOM    146  C   UNL     1     149.064 165.892 195.702  0.00  0.00    -0.000 C 
ATOM    147  H   UNL     1     148.738 167.427 194.228  0.00  0.00    +0.059 HD
ATOM    148  H   UNL     1     150.053 164.013 194.029  0.00  0.00    +0.060 HD
ATOM    149  H   UNL     1     152.197 165.185 194.635  0.00  0.00    +0.032 HD
ATOM    150  H   UNL     1     151.541 166.683 193.962  0.00  0.00    +0.032 HD
ATOM    151  H   UNL     1     150.765 167.164 196.014  0.00  0.00    +0.060 HD
ATOM    152  H   UNL     1     148.572 166.428 196.523  0.00  0.00    +0.032 HD
ATOM    153  H   UNL     1     148.830 164.833 195.854  0.00  0.00    +0.032 HD
BRANCH 141 154
ATOM    154  C   UNL     1     147.035 166.135 194.240  0.00  0.00    -0.039 C 
ATOM    155  H   UNL     1     146.769 165.099 194.471  0.00  0.00    +0.025 HD
ATOM    156  H   UNL     1     146.497 166.796 194.927  0.00  0.00    +0.025 HD
ATOM    157  H   UNL     1     146.679 166.369 193.231  0.00  0.00    +0.025 HD
ENDBRANCH 141 154
BRANCH 145 158
ATOM    158  O   UNL     1     151.064 165.300 196.860  0.00  0.00    -0.380 OA
BRANCH 158 159
ATOM    159  C   UNL     1     151.254 163.937 196.501  0.00  0.00    +0.037 C 
ATOM    160  H   UNL     1     151.357 163.884 195.412  0.00  0.00    +0.052 HD
ATOM    161  H   UNL     1     152.159 163.527 196.955  0.00  0.00    +0.052 HD
ATOM    162  H   UNL     1     150.383 163.344 196.796  0.00  0.00    +0.052 HD
ENDBRANCH 158 159
ENDBRANCH 145 158
ENDBRANCH 138 143
ENDBRANCH 135 138
ENDBRANCH 129 135
ENDBRANCH 127 129
BRANCH 127 163
ATOM    163  O   UNL     1     147.829 165.534 190.423  0.00  0.00    -0.391 OA
ATOM    164  H   UNL     1     147.651 166.491 190.403  0.00  0.00    +0.210 HD
ENDBRANCH 127 163
ENDBRANCH 121 127
ENDBRANCH   1 121
BRANCH  41 165
ATOM    165  O   UNL     1     147.603 166.123 184.572  0.00  0.00    -0.391 OA
ATOM    166  H   UNL     1     147.134 165.377 184.162  0.00  0.00    +0.210 HD
ENDBRANCH  41 165
BRANCH  39 167
ATOM    167  O   UNL     1     144.551 164.581 187.461  0.00  0.00    -0.391 OA
ATOM    168  H   UNL     1     144.758 163.714 187.071  0.00  0.00    +0.210 HD
ENDBRANCH  39 167
BRANCH  31 169
ATOM    169  O   UNL     1     144.154 174.922 184.678  0.00  0.00    -0.391 OA
ATOM    170  H   UNL     1     143.633 175.566 184.163  0.00  0.00    +0.210 HD
ENDBRANCH  31 169
BRANCH  22 171
ATOM    171  C   UNL     1     139.316 175.085 193.938  0.00  0.00    +0.020 C 
ATOM    172  H   UNL     1     138.488 174.814 194.606  0.00  0.00    +0.036 HD
BRANCH 171 173
ATOM    173  C   UNL     1     140.091 173.803 193.569  0.00  0.00    -0.057 C 
ATOM    174  H   UNL     1     140.801 173.519 194.353  0.00  0.00    +0.023 HD
ATOM    175  H   UNL     1     139.417 172.955 193.410  0.00  0.00    +0.023 HD
ATOM    176  H   UNL     1     140.697 173.926 192.673  0.00  0.00    +0.023 HD
ENDBRANCH 171 173
BRANCH 171 177
ATOM    177  C   UNL     1     140.205 176.125 194.700  0.00  0.00    +0.064 C 
ATOM    178  H   UNL     1     141.249 175.790 194.652  0.00  0.00    +0.060 HD
BRANCH 177 179
ATOM    179  O   UNL     1     140.123 177.372 194.010  0.00  0.00    -0.391 OA
ATOM    180  H   UNL     1     139.555 177.982 194.523  0.00  0.00    +0.210 HD
ENDBRANCH 177 179
BRANCH 177 181
ATOM    181  C   UNL     1     139.859 176.440 196.191  0.00  0.00    -0.017 C 
ATOM    182  H   UNL     1     140.509 175.823 196.827  0.00  0.00    +0.032 HD
BRANCH 181 183
ATOM    183  C   UNL     1     140.077 177.898 196.595  0.00  0.00    -0.060 C 
ATOM    184  H   UNL     1     141.091 178.216 196.343  0.00  0.00    +0.023 HD
ATOM    185  H   UNL     1     140.008 178.046 197.676  0.00  0.00    +0.023 HD
ATOM    186  H   UNL     1     139.350 178.560 196.116  0.00  0.00    +0.023 HD
ENDBRANCH 181 183
BRANCH 181 187
ATOM    187  C   UNL     1     138.397 175.982 196.482  0.00  0.00    -0.046 C 
ATOM    188  H   UNL     1     138.413 174.939 196.821  0.00  0.00    +0.027 HD
ATOM    189  H   UNL     1     137.821 175.999 195.548  0.00  0.00    +0.027 HD
BRANCH 187 190
ATOM    190  C   UNL     1     137.657 176.817 197.537  0.00  0.00    -0.026 C 
ATOM    191  H   UNL     1     138.378 177.393 198.129  0.00  0.00    +0.029 HD
ATOM    192  H   UNL     1     137.002 177.528 197.016  0.00  0.00    +0.029 HD
BRANCH 190 193
ATOM    193  C   UNL     1     136.792 175.965 198.478  0.00  0.00    +0.061 C 
ATOM    194  O   UNL     1     137.251 176.161 199.820  0.00  0.00    -0.373 OA
ATOM    195  C   UNL     1     136.512 175.434 200.807  0.00  0.00    +0.059 C 
ATOM    196  C   UNL     1     136.523 173.931 200.511  0.00  0.00    -0.000 C 
ATOM    197  C   UNL     1     136.133 173.597 199.070  0.00  0.00    +0.063 C 
ATOM    198  C   UNL     1     136.905 174.487 198.097  0.00  0.00    -0.000 C 
ATOM    199  H   UNL     1     135.754 176.307 198.389  0.00  0.00    +0.060 HD
ATOM    200  H   UNL     1     137.058 175.582 201.748  0.00  0.00    +0.059 HD
ATOM    201  H   UNL     1     135.892 173.406 201.233  0.00  0.00    +0.032 HD
ATOM    202  H   UNL     1     137.550 173.571 200.661  0.00  0.00    +0.032 HD
ATOM    203  H   UNL     1     136.383 172.551 198.851  0.00  0.00    +0.060 HD
ATOM    204  H   UNL     1     136.536 174.338 197.076  0.00  0.00    +0.032 HD
ATOM    205  H   UNL     1     137.960 174.184 198.122  0.00  0.00    +0.032 HD
BRANCH 195 206
ATOM    206  C   UNL     1     135.120 176.022 201.025  0.00  0.00    -0.039 C 
ATOM    207  H   UNL     1     134.779 176.532 200.116  0.00  0.00    +0.025 HD
ATOM    208  H   UNL     1     135.127 176.746 201.846  0.00  0.00    +0.025 HD
ATOM    209  H   UNL     1     134.366 175.264 201.251  0.00  0.00    +0.025 HD
ENDBRANCH 195 206
BRANCH 197 210
ATOM    210  O   UNL     1     134.735 173.795 198.836  0.00  0.00    -0.380 OA
BRANCH 210 211
ATOM    211  C   UNL     1     134.212 172.975 197.800  0.00  0.00    +0.037 C 
ATOM    212  H   UNL     1     133.615 173.604 197.136  0.00  0.00    +0.052 HD
ATOM    213  H   UNL     1     135.025 172.531 197.219  0.00  0.00    +0.052 HD
ATOM    214  H   UNL     1     133.567 172.189 198.203  0.00  0.00    +0.052 HD
ENDBRANCH 210 211
ENDBRANCH 197 210
ENDBRANCH 190 193
ENDBRANCH 187 190
ENDBRANCH 181 187
ENDBRANCH 177 181
ENDBRANCH 171 177
ENDBRANCH  22 171
BRANCH  20 215
ATOM    215  O   UNL     1     137.248 174.702 189.771  0.00  0.00    -0.391 OA
ATOM    216  H   UNL     1     136.321 174.601 189.498  0.00  0.00    +0.210 HD
ENDBRANCH  20 215
BRANCH  18 217
ATOM    217  O   UNL     1     138.287 171.161 191.488  0.00  0.00    -0.391 OA
ATOM    218  H   UNL     1     138.008 170.384 192.007  0.00  0.00    +0.210 HD
ENDBRANCH  18 217
BRANCH  10 219
ATOM    219  O   UNL     1     143.781 174.813 192.259  0.00  0.00    -0.391 OA
ATOM    220  H   UNL     1     143.839 174.449 193.159  0.00  0.00    +0.210 HD
ENDBRANCH  10 219
BRANCH  37 221
ATOM    221  O   UNL     1     143.650 167.595 183.826  0.00  0.00    -0.379 OA
BRANCH 221 222
ATOM    222  C   UNL     1     142.312 167.707 184.293  0.00  0.00    +0.037 C 
ATOM    223  H   UNL     1     141.654 167.794 183.425  0.00  0.00    +0.052 HD
ATOM    224  H   UNL     1     142.031 166.807 184.847  0.00  0.00    +0.052 HD
ATOM    225  H   UNL     1     142.178 168.592 184.922  0.00  0.00    +0.052 HD
ENDBRANCH 221 222
ENDBRANCH  37 221
BRANCH  16 226
ATOM    226  O   UNL     1     139.218 170.512 187.402  0.00  0.00    -0.379 OA
BRANCH 226 227
ATOM    227  C   UNL     1     139.413 169.135 187.097  0.00  0.00    +0.037 C 
ATOM    228  H   UNL     1     138.434 168.650 187.054  0.00  0.00    +0.052 HD
ATOM    229  H   UNL     1     139.900 169.021 186.124  0.00  0.00    +0.052 HD
ATOM    230  H   UNL     1     140.010 168.648 187.874  0.00  0.00    +0.052 HD
ENDBRANCH 226 227
ENDBRANCH  16 226
TORSDOF 40
ENDMDL
MODEL 10
REMARK VINA RESULT:      -5.5      7.453     13.495
REMARK  Name = Swinholide A_conf3
REMARK  40 active torsions:
REMARK  status: ('A' for Active; 'I' for Inactive)
REMARK    1  A    between atoms: C_1  and  C_2
REMARK    2  A    between atoms: C_4  and  C_10
REMARK    3  A    between atoms: C_6  and  O_8
REMARK    4  A    between atoms: O_8  and  C_9
REMARK    5  A    between atoms: C_10  and  C_11
REMARK    6  A    between atoms: C_11  and  C_12
REMARK    7  A    between atoms: C_12  and  C_13
REMARK    8  A    between atoms: C_12  and  C_98
REMARK    9  A    between atoms: C_13  and  O_14
REMARK   10  A    between atoms: C_13  and  C_15
REMARK   11  A    between atoms: C_15  and  C_16
REMARK   12  A    between atoms: C_15  and  C_97
REMARK   13  A    between atoms: C_22  and  C_96
REMARK   14  A    between atoms: C_25  and  O_95
REMARK   15  A    between atoms: C_31  and  O_90
REMARK   16  A    between atoms: C_32  and  C_89
REMARK   17  A    between atoms: C_33  and  O_88
REMARK   18  A    between atoms: C_35  and  O_87
REMARK   19  A    between atoms: C_36  and  C_86
REMARK   20  A    between atoms: C_37  and  C_69
REMARK   21  A    between atoms: C_43  and  C_68
REMARK   22  A    between atoms: C_46  and  O_67
REMARK   23  A    between atoms: C_52  and  O_62
REMARK   24  A    between atoms: C_53  and  C_61
REMARK   25  A    between atoms: C_54  and  O_60
REMARK   26  A    between atoms: C_56  and  O_59
REMARK   27  A    between atoms: C_57  and  C_58
REMARK   28  A    between atoms: O_62  and  C_63
REMARK   29  A    between atoms: C_69  and  C_70
REMARK   30  A    between atoms: C_69  and  C_85
REMARK   31  A    between atoms: C_70  and  O_71
REMARK   32  A    between atoms: C_70  and  C_72
REMARK   33  A    between atoms: C_72  and  C_73
REMARK   34  A    between atoms: C_72  and  C_84
REMARK   35  A    between atoms: C_73  and  C_74
REMARK   36  A    between atoms: C_74  and  C_75
REMARK   37  A    between atoms: C_77  and  C_83
REMARK   38  A    between atoms: C_79  and  O_81
REMARK   39  A    between atoms: O_81  and  C_82
REMARK   40  A    between atoms: O_90  and  C_91
REMARK                            x       y       z     vdW  Elec       q    Type
REMARK                         _______ _______ _______ _____ _____    ______ ____
ROOT
ATOM      1  C   UNL     1     149.346 166.178 189.641  0.00  0.00    +0.113 C 
ATOM      2  O   UNL     1     149.124 167.549 190.064  0.00  0.00    -0.458 OA
ATOM      3  C   UNL     1     147.821 167.868 190.288  0.00  0.00    +0.332 C 
ATOM      4  O   UNL     1     146.877 167.090 190.268  0.00  0.00    -0.246 OA
ATOM      5  C   UNL     1     147.591 169.293 190.543  0.00  0.00    +0.023 C 
ATOM      6  C   UNL     1     148.478 170.178 191.021  0.00  0.00    -0.052 C 
ATOM      7  C   UNL     1     148.087 171.545 191.352  0.00  0.00    -0.054 C 
ATOM      8  C   UNL     1     146.947 171.773 192.036  0.00  0.00    -0.079 C 
ATOM      9  C   UNL     1     146.323 173.087 192.403  0.00  0.00    -0.008 C 
ATOM     10  C   UNL     1     145.555 173.832 191.288  0.00  0.00    +0.061 C 
ATOM     11  C   UNL     1     145.053 173.014 190.091  0.00  0.00    +0.003 C 
ATOM     12  C   UNL     1     143.755 172.200 190.220  0.00  0.00    +0.080 C 
ATOM     13  O   UNL     1     143.624 171.563 188.932  0.00  0.00    -0.369 OA
ATOM     14  C   UNL     1     142.704 170.459 188.863  0.00  0.00    +0.065 C 
ATOM     15  C   UNL     1     141.261 170.968 189.030  0.00  0.00    +0.000 C 
ATOM     16  C   UNL     1     140.154 169.950 188.694  0.00  0.00    +0.066 C 
ATOM     17  C   UNL     1     138.762 170.648 188.718  0.00  0.00    +0.009 C 
ATOM     18  C   UNL     1     138.144 170.839 190.134  0.00  0.00    +0.063 C 
ATOM     19  C   UNL     1     137.388 172.179 190.298  0.00  0.00    -0.000 C 
ATOM     20  C   UNL     1     138.323 173.404 190.176  0.00  0.00    +0.064 C 
ATOM     21  C   UNL     1     138.066 174.485 191.261  0.00  0.00    +0.020 C 
ATOM     22  C   UNL     1     139.339 175.325 191.640  0.00  0.00    +0.113 C 
ATOM     23  O   UNL     1     140.402 175.147 190.687  0.00  0.00    -0.458 OA
ATOM     24  C   UNL     1     140.393 175.954 189.598  0.00  0.00    +0.332 C 
ATOM     25  O   UNL     1     139.718 176.958 189.438  0.00  0.00    -0.246 OA
ATOM     26  C   UNL     1     141.338 175.388 188.614  0.00  0.00    +0.023 C 
ATOM     27  C   UNL     1     141.483 175.964 187.412  0.00  0.00    -0.052 C 
ATOM     28  C   UNL     1     142.349 175.469 186.350  0.00  0.00    -0.054 C 
ATOM     29  C   UNL     1     142.407 174.157 186.043  0.00  0.00    -0.079 C 
ATOM     30  C   UNL     1     143.205 173.517 184.937  0.00  0.00    -0.008 C 
ATOM     31  C   UNL     1     144.599 173.066 185.412  0.00  0.00    +0.061 C 
ATOM     32  C   UNL     1     144.691 171.541 185.574  0.00  0.00    +0.003 C 
ATOM     33  C   UNL     1     145.957 171.087 186.322  0.00  0.00    +0.080 C 
ATOM     34  O   UNL     1     145.774 169.758 186.853  0.00  0.00    -0.369 OA
ATOM     35  C   UNL     1     146.068 168.691 185.930  0.00  0.00    +0.065 C 
ATOM     36  C   UNL     1     145.724 167.375 186.658  0.00  0.00    +0.000 C 
ATOM     37  C   UNL     1     146.029 166.088 185.863  0.00  0.00    +0.066 C 
ATOM     38  C   UNL     1     145.707 164.798 186.677  0.00  0.00    +0.009 C 
ATOM     39  C   UNL     1     146.528 164.593 187.981  0.00  0.00    +0.063 C 
ATOM     40  C   UNL     1     147.920 163.928 187.934  0.00  0.00    -0.000 C 
ATOM     41  C   UNL     1     149.127 164.749 187.456  0.00  0.00    +0.064 C 
ATOM     42  C   UNL     1     149.294 166.153 188.081  0.00  0.00    +0.020 C 
ATOM     43  C   UNL     1     147.553 168.763 185.545  0.00  0.00    -0.008 C 
ATOM     44  C   UNL     1     147.957 170.141 185.135  0.00  0.00    -0.083 C 
ATOM     45  C   UNL     1     147.220 171.196 185.499  0.00  0.00    -0.059 C 
ATOM     46  C   UNL     1     143.143 169.360 189.840  0.00  0.00    -0.008 C 
ATOM     47  C   UNL     1     143.440 169.909 191.198  0.00  0.00    -0.083 C 
ATOM     48  C   UNL     1     143.708 171.214 191.356  0.00  0.00    -0.059 C 
ATOM     49  H   UNL     1     148.501 165.574 189.990  0.00  0.00    +0.074 HD
ATOM     50  H   UNL     1     146.557 169.578 190.370  0.00  0.00    +0.069 HD
ATOM     51  H   UNL     1     149.517 169.903 191.186  0.00  0.00    +0.062 HD
ATOM     52  H   UNL     1     146.363 170.915 192.369  0.00  0.00    +0.058 HD
ATOM     53  H   UNL     1     147.089 173.758 192.814  0.00  0.00    +0.033 HD
ATOM     54  H   UNL     1     145.651 172.909 193.252  0.00  0.00    +0.033 HD
ATOM     55  H   UNL     1     146.246 174.583 190.882  0.00  0.00    +0.060 HD
ATOM     56  H   UNL     1     145.854 172.378 189.693  0.00  0.00    +0.032 HD
ATOM     57  H   UNL     1     144.868 173.730 189.274  0.00  0.00    +0.032 HD
ATOM     58  H   UNL     1     142.917 172.896 190.333  0.00  0.00    +0.064 HD
ATOM     59  H   UNL     1     142.808 170.058 187.850  0.00  0.00    +0.060 HD
ATOM     60  H   UNL     1     141.157 171.837 188.367  0.00  0.00    +0.032 HD
ATOM     61  H   UNL     1     141.122 171.358 190.039  0.00  0.00    +0.032 HD
ATOM     62  H   UNL     1     140.166 169.116 189.408  0.00  0.00    +0.060 HD
ATOM     63  H   UNL     1     138.897 171.628 188.246  0.00  0.00    +0.035 HD
ATOM     64  H   UNL     1     137.426 170.027 190.309  0.00  0.00    +0.060 HD
ATOM     65  H   UNL     1     136.933 172.163 191.296  0.00  0.00    +0.032 HD
ATOM     66  H   UNL     1     136.576 172.236 189.565  0.00  0.00    +0.032 HD
ATOM     67  H   UNL     1     139.351 173.054 190.260  0.00  0.00    +0.060 HD
ATOM     68  H   UNL     1     137.731 173.974 192.170  0.00  0.00    +0.036 HD
ATOM     69  H   UNL     1     139.079 176.393 191.649  0.00  0.00    +0.074 HD
ATOM     70  H   UNL     1     141.859 174.482 188.895  0.00  0.00    +0.069 HD
ATOM     71  H   UNL     1     140.926 176.874 187.184  0.00  0.00    +0.062 HD
ATOM     72  H   UNL     1     141.810 173.448 186.618  0.00  0.00    +0.058 HD
ATOM     73  H   UNL     1     142.630 172.663 184.556  0.00  0.00    +0.033 HD
ATOM     74  H   UNL     1     143.281 174.203 184.085  0.00  0.00    +0.033 HD
ATOM     75  H   UNL     1     144.857 173.551 186.362  0.00  0.00    +0.060 HD
ATOM     76  H   UNL     1     143.814 171.181 186.121  0.00  0.00    +0.032 HD
ATOM     77  H   UNL     1     144.656 171.059 184.587  0.00  0.00    +0.032 HD
ATOM     78  H   UNL     1     146.085 171.723 187.206  0.00  0.00    +0.064 HD
ATOM     79  H   UNL     1     145.427 168.800 185.045  0.00  0.00    +0.060 HD
ATOM     80  H   UNL     1     146.242 167.378 187.620  0.00  0.00    +0.032 HD
ATOM     81  H   UNL     1     144.653 167.404 186.905  0.00  0.00    +0.032 HD
ATOM     82  H   UNL     1     147.077 166.082 185.560  0.00  0.00    +0.060 HD
ATOM     83  H   UNL     1     144.653 164.897 186.980  0.00  0.00    +0.035 HD
ATOM     84  H   UNL     1     146.596 165.528 188.527  0.00  0.00    +0.060 HD
ATOM     85  H   UNL     1     147.856 163.011 187.334  0.00  0.00    +0.032 HD
ATOM     86  H   UNL     1     148.150 163.568 188.947  0.00  0.00    +0.032 HD
ATOM     87  H   UNL     1     150.028 164.158 187.666  0.00  0.00    +0.060 HD
ATOM     88  H   UNL     1     148.399 166.719 187.806  0.00  0.00    +0.036 HD
ATOM     89  H   UNL     1     147.776 168.069 184.729  0.00  0.00    +0.033 HD
ATOM     90  H   UNL     1     148.176 168.492 186.400  0.00  0.00    +0.033 HD
ATOM     91  H   UNL     1     148.867 170.273 184.557  0.00  0.00    +0.057 HD
ATOM     92  H   UNL     1     147.531 172.190 185.191  0.00  0.00    +0.059 HD
ATOM     93  H   UNL     1     144.062 168.890 189.467  0.00  0.00    +0.033 HD
ATOM     94  H   UNL     1     142.385 168.576 189.909  0.00  0.00    +0.033 HD
ATOM     95  H   UNL     1     143.415 169.238 192.050  0.00  0.00    +0.057 HD
ATOM     96  H   UNL     1     143.841 171.606 192.358  0.00  0.00    +0.059 HD
ENDROOT
BRANCH  28  97
ATOM     97  C   UNL     1     143.103 176.555 185.631  0.00  0.00    -0.040 C 
ATOM     98  H   UNL     1     144.020 176.855 186.145  0.00  0.00    +0.028 HD
ATOM     99  H   UNL     1     143.378 176.229 184.622  0.00  0.00    +0.028 HD
ATOM    100  H   UNL     1     142.483 177.455 185.548  0.00  0.00    +0.028 HD
ENDBRANCH  28  97
BRANCH  21 101
ATOM    101  C   UNL     1     136.909 175.425 190.892  0.00  0.00    -0.057 C 
ATOM    102  H   UNL     1     137.020 176.411 191.353  0.00  0.00    +0.023 HD
ATOM    103  H   UNL     1     135.954 175.009 191.229  0.00  0.00    +0.023 HD
ATOM    104  H   UNL     1     136.843 175.559 189.807  0.00  0.00    +0.023 HD
ENDBRANCH  21 101
BRANCH  42 105
ATOM    105  C   UNL     1     150.424 166.941 187.398  0.00  0.00    -0.057 C 
ATOM    106  H   UNL     1     150.763 167.760 188.042  0.00  0.00    +0.023 HD
ATOM    107  H   UNL     1     151.296 166.311 187.192  0.00  0.00    +0.023 HD
ATOM    108  H   UNL     1     150.092 167.410 186.470  0.00  0.00    +0.023 HD
ENDBRANCH  42 105
BRANCH  17 109
ATOM    109  C   UNL     1     137.726 169.941 187.826  0.00  0.00    -0.058 C 
ATOM    110  H   UNL     1     138.204 169.222 187.155  0.00  0.00    +0.023 HD
ATOM    111  H   UNL     1     137.165 170.659 187.218  0.00  0.00    +0.023 HD
ATOM    112  H   UNL     1     136.991 169.399 188.432  0.00  0.00    +0.023 HD
ENDBRANCH  17 109
BRANCH  38 113
ATOM    113  C   UNL     1     145.726 163.534 185.802  0.00  0.00    -0.058 C 
ATOM    114  H   UNL     1     146.597 162.909 186.019  0.00  0.00    +0.023 HD
ATOM    115  H   UNL     1     144.823 162.933 185.957  0.00  0.00    +0.023 HD
ATOM    116  H   UNL     1     145.751 163.793 184.738  0.00  0.00    +0.023 HD
ENDBRANCH  38 113
BRANCH   7 117
ATOM    117  C   UNL     1     149.015 172.618 190.864  0.00  0.00    -0.040 C 
ATOM    118  H   UNL     1     150.045 172.252 190.864  0.00  0.00    +0.028 HD
ATOM    119  H   UNL     1     148.987 173.515 191.488  0.00  0.00    +0.028 HD
ATOM    120  H   UNL     1     148.757 172.926 189.844  0.00  0.00    +0.028 HD
ENDBRANCH   7 117
BRANCH   1 121
ATOM    121  C   UNL     1     150.568 165.550 190.377  0.00  0.00    +0.020 C 
ATOM    122  H   UNL     1     151.117 164.973 189.622  0.00  0.00    +0.036 HD
BRANCH 121 123
ATOM    123  C   UNL     1     151.581 166.534 190.954  0.00  0.00    -0.057 C 
ATOM    124  H   UNL     1     151.211 167.021 191.859  0.00  0.00    +0.023 HD
ATOM    125  H   UNL     1     152.526 166.031 191.184  0.00  0.00    +0.023 HD
ATOM    126  H   UNL     1     151.849 167.301 190.226  0.00  0.00    +0.023 HD
ENDBRANCH 121 123
BRANCH 121 127
ATOM    127  C   UNL     1     150.088 164.522 191.456  0.00  0.00    +0.064 C 
ATOM    128  H   UNL     1     150.548 164.825 192.404  0.00  0.00    +0.060 HD
BRANCH 127 129
ATOM    129  C   UNL     1     150.395 163.010 191.193  0.00  0.00    -0.017 C 
ATOM    130  H   UNL     1     150.947 162.609 192.046  0.00  0.00    +0.032 HD
BRANCH 129 131
ATOM    131  C   UNL     1     149.067 162.238 191.132  0.00  0.00    -0.060 C 
ATOM    132  H   UNL     1     148.480 162.382 192.046  0.00  0.00    +0.023 HD
ATOM    133  H   UNL     1     149.244 161.162 191.013  0.00  0.00    +0.023 HD
ATOM    134  H   UNL     1     148.458 162.556 190.280  0.00  0.00    +0.023 HD
ENDBRANCH 129 131
BRANCH 129 135
ATOM    135  C   UNL     1     151.208 162.749 189.902  0.00  0.00    -0.046 C 
ATOM    136  H   UNL     1     151.000 163.524 189.159  0.00  0.00    +0.027 HD
ATOM    137  H   UNL     1     150.875 161.806 189.447  0.00  0.00    +0.027 HD
BRANCH 135 138
ATOM    138  C   UNL     1     152.735 162.659 190.069  0.00  0.00    -0.026 C 
ATOM    139  H   UNL     1     152.991 161.592 190.005  0.00  0.00    +0.029 HD
ATOM    140  H   UNL     1     153.023 162.982 191.077  0.00  0.00    +0.029 HD
BRANCH 138 143
ATOM    141  C   UNL     1     154.810 165.489 188.806  0.00  0.00    +0.059 C 
ATOM    142  O   UNL     1     154.250 164.490 189.666  0.00  0.00    -0.373 OA
ATOM    143  C   UNL     1     153.558 163.421 189.019  0.00  0.00    +0.061 C 
ATOM    144  C   UNL     1     152.644 163.950 187.910  0.00  0.00    -0.000 C 
ATOM    145  C   UNL     1     153.437 164.731 186.855  0.00  0.00    +0.063 C 
ATOM    146  C   UNL     1     154.846 165.070 187.341  0.00  0.00    -0.000 C 
ATOM    147  H   UNL     1     154.185 166.384 188.913  0.00  0.00    +0.059 HD
ATOM    148  H   UNL     1     154.298 162.736 188.589  0.00  0.00    +0.060 HD
ATOM    149  H   UNL     1     152.080 163.124 187.464  0.00  0.00    +0.032 HD
ATOM    150  H   UNL     1     151.919 164.641 188.359  0.00  0.00    +0.032 HD
ATOM    151  H   UNL     1     152.912 165.669 186.626  0.00  0.00    +0.060 HD
ATOM    152  H   UNL     1     155.271 165.863 186.714  0.00  0.00    +0.032 HD
ATOM    153  H   UNL     1     155.503 164.204 187.213  0.00  0.00    +0.032 HD
BRANCH 141 154
ATOM    154  C   UNL     1     156.206 165.816 189.318  0.00  0.00    -0.039 C 
ATOM    155  H   UNL     1     156.751 166.448 188.609  0.00  0.00    +0.025 HD
ATOM    156  H   UNL     1     156.151 166.337 190.279  0.00  0.00    +0.025 HD
ATOM    157  H   UNL     1     156.784 164.902 189.485  0.00  0.00    +0.025 HD
ENDBRANCH 141 154
BRANCH 145 158
ATOM    158  O   UNL     1     153.575 163.970 185.649  0.00  0.00    -0.380 OA
BRANCH 158 159
ATOM    159  C   UNL     1     152.381 163.298 185.269  0.00  0.00    +0.037 C 
ATOM    160  H   UNL     1     151.738 163.221 186.152  0.00  0.00    +0.052 HD
ATOM    161  H   UNL     1     151.841 163.850 184.495  0.00  0.00    +0.052 HD
ATOM    162  H   UNL     1     152.611 162.288 184.917  0.00  0.00    +0.052 HD
ENDBRANCH 158 159
ENDBRANCH 145 158
ENDBRANCH 138 143
ENDBRANCH 135 138
ENDBRANCH 129 135
ENDBRANCH 127 129
BRANCH 127 163
ATOM    163  O   UNL     1     148.679 164.717 191.642  0.00  0.00    -0.391 OA
ATOM    164  H   UNL     1     148.426 165.498 191.119  0.00  0.00    +0.210 HD
ENDBRANCH 127 163
ENDBRANCH 121 127
ENDBRANCH   1 121
BRANCH  41 165
ATOM    165  O   UNL     1     149.044 164.861 186.033  0.00  0.00    -0.391 OA
ATOM    166  H   UNL     1     149.266 163.991 185.660  0.00  0.00    +0.210 HD
ENDBRANCH  41 165
BRANCH  39 167
ATOM    167  O   UNL     1     145.741 163.727 188.833  0.00  0.00    -0.391 OA
ATOM    168  H   UNL     1     146.343 163.033 189.154  0.00  0.00    +0.210 HD
ENDBRANCH  39 167
BRANCH  31 169
ATOM    169  O   UNL     1     145.566 173.505 184.451  0.00  0.00    -0.391 OA
ATOM    170  H   UNL     1     146.440 173.464 184.882  0.00  0.00    +0.210 HD
ENDBRANCH  31 169
BRANCH  22 171
ATOM    171  C   UNL     1     139.879 175.007 193.088  0.00  0.00    +0.020 C 
ATOM    172  H   UNL     1     138.993 174.879 193.723  0.00  0.00    +0.036 HD
BRANCH 171 173
ATOM    173  C   UNL     1     140.627 173.660 193.011  0.00  0.00    -0.057 C 
ATOM    174  H   UNL     1     140.231 173.022 192.215  0.00  0.00    +0.023 HD
ATOM    175  H   UNL     1     141.696 173.800 192.822  0.00  0.00    +0.023 HD
ATOM    176  H   UNL     1     140.519 173.071 193.922  0.00  0.00    +0.023 HD
ENDBRANCH 171 173
BRANCH 171 177
ATOM    177  C   UNL     1     140.749 176.140 193.729  0.00  0.00    +0.064 C 
ATOM    178  H   UNL     1     141.637 175.682 194.182  0.00  0.00    +0.060 HD
BRANCH 177 179
ATOM    179  O   UNL     1     141.199 177.002 192.684  0.00  0.00    -0.391 OA
ATOM    180  H   UNL     1     142.092 177.335 192.909  0.00  0.00    +0.210 HD
ENDBRANCH 177 179
BRANCH 177 181
ATOM    181  C   UNL     1     140.082 177.072 194.791  0.00  0.00    -0.017 C 
ATOM    182  H   UNL     1     140.840 177.789 195.135  0.00  0.00    +0.032 HD
BRANCH 181 183
ATOM    183  C   UNL     1     138.894 177.878 194.268  0.00  0.00    -0.060 C 
ATOM    184  H   UNL     1     138.939 177.960 193.179  0.00  0.00    +0.023 HD
ATOM    185  H   UNL     1     138.907 178.914 194.618  0.00  0.00    +0.023 HD
ATOM    186  H   UNL     1     137.942 177.431 194.567  0.00  0.00    +0.023 HD
ENDBRANCH 181 183
BRANCH 181 187
ATOM    187  C   UNL     1     139.686 176.221 196.036  0.00  0.00    -0.046 C 
ATOM    188  H   UNL     1     140.560 176.124 196.693  0.00  0.00    +0.027 HD
ATOM    189  H   UNL     1     139.425 175.206 195.711  0.00  0.00    +0.027 HD
BRANCH 187 190
ATOM    190  C   UNL     1     138.526 176.791 196.866  0.00  0.00    -0.026 C 
ATOM    191  H   UNL     1     138.888 177.089 197.857  0.00  0.00    +0.029 HD
ATOM    192  H   UNL     1     138.149 177.689 196.359  0.00  0.00    +0.029 HD
BRANCH 190 193
ATOM    193  C   UNL     1     137.360 175.803 197.026  0.00  0.00    +0.061 C 
ATOM    194  O   UNL     1     137.457 175.192 198.317  0.00  0.00    -0.373 OA
ATOM    195  C   UNL     1     136.413 174.257 198.605  0.00  0.00    +0.059 C 
ATOM    196  C   UNL     1     136.356 173.147 197.552  0.00  0.00    -0.000 C 
ATOM    197  C   UNL     1     136.339 173.677 196.117  0.00  0.00    +0.063 C 
ATOM    198  C   UNL     1     137.428 174.733 195.934  0.00  0.00    -0.000 C 
ATOM    199  H   UNL     1     136.423 176.368 196.955  0.00  0.00    +0.060 HD
ATOM    200  H   UNL     1     136.696 173.786 199.556  0.00  0.00    +0.059 HD
ATOM    201  H   UNL     1     135.506 172.489 197.750  0.00  0.00    +0.032 HD
ATOM    202  H   UNL     1     137.265 172.539 197.661  0.00  0.00    +0.032 HD
ATOM    203  H   UNL     1     136.536 172.856 195.416  0.00  0.00    +0.060 HD
ATOM    204  H   UNL     1     137.335 175.204 194.948  0.00  0.00    +0.032 HD
ATOM    205  H   UNL     1     138.403 174.230 195.977  0.00  0.00    +0.032 HD
BRANCH 195 206
ATOM    206  C   UNL     1     135.077 174.954 198.857  0.00  0.00    -0.039 C 
ATOM    207  H   UNL     1     134.614 174.562 199.770  0.00  0.00    +0.025 HD
ATOM    208  H   UNL     1     134.390 174.791 198.021  0.00  0.00    +0.025 HD
ATOM    209  H   UNL     1     135.179 176.032 199.005  0.00  0.00    +0.025 HD
ENDBRANCH 195 206
BRANCH 197 210
ATOM    210  O   UNL     1     135.083 174.275 195.784  0.00  0.00    -0.380 OA
BRANCH 210 211
ATOM    211  C   UNL     1     134.035 173.332 195.606  0.00  0.00    +0.037 C 
ATOM    212  H   UNL     1     134.452 172.330 195.731  0.00  0.00    +0.052 HD
ATOM    213  H   UNL     1     133.256 173.480 196.360  0.00  0.00    +0.052 HD
ATOM    214  H   UNL     1     133.604 173.402 194.603  0.00  0.00    +0.052 HD
ENDBRANCH 210 211
ENDBRANCH 197 210
ENDBRANCH 190 193
ENDBRANCH 187 190
ENDBRANCH 181 187
ENDBRANCH 177 181
ENDBRANCH 171 177
ENDBRANCH  22 171
BRANCH  20 215
ATOM    215  O   UNL     1     138.213 173.947 188.858  0.00  0.00    -0.391 OA
ATOM    216  H   UNL     1     137.872 174.854 188.913  0.00  0.00    +0.210 HD
ENDBRANCH  20 215
BRANCH  18 217
ATOM    217  O   UNL     1     139.101 170.734 191.193  0.00  0.00    -0.391 OA
ATOM    218  H   UNL     1     139.786 170.106 190.894  0.00  0.00    +0.210 HD
ENDBRANCH  18 217
BRANCH  10 219
ATOM    219  O   UNL     1     144.483 174.561 191.890  0.00  0.00    -0.391 OA
ATOM    220  H   UNL     1     144.635 175.510 191.736  0.00  0.00    +0.210 HD
ENDBRANCH  10 219
BRANCH  37 221
ATOM    221  O   UNL     1     145.173 166.126 184.706  0.00  0.00    -0.379 OA
BRANCH 221 222
ATOM    222  C   UNL     1     145.884 166.130 183.475  0.00  0.00    +0.037 C 
ATOM    223  H   UNL     1     145.441 165.371 182.824  0.00  0.00    +0.052 HD
ATOM    224  H   UNL     1     145.783 167.102 182.986  0.00  0.00    +0.052 HD
ATOM    225  H   UNL     1     146.941 165.891 183.620  0.00  0.00    +0.052 HD
ENDBRANCH 221 222
ENDBRANCH  37 221
BRANCH  16 226
ATOM    226  O   UNL     1     140.413 169.478 187.361  0.00  0.00    -0.379 OA
BRANCH 226 227
ATOM    227  C   UNL     1     140.609 168.070 187.289  0.00  0.00    +0.037 C 
ATOM    228  H   UNL     1     141.571 167.880 186.806  0.00  0.00    +0.052 HD
ATOM    229  H   UNL     1     140.632 167.633 188.292  0.00  0.00    +0.052 HD
ATOM    230  H   UNL     1     139.821 167.599 186.693  0.00  0.00    +0.052 HD
ENDBRANCH 226 227
ENDBRANCH  16 226
TORSDOF 40
ENDMDL
