MODEL 1
REMARK VINA RESULT:      -5.3      0.000      0.000
REMARK  Name = Swinholide A_conf2
REMARK  40 active torsions:
REMARK  status: ('A' for Active; 'I' for Inactive)
REMARK    1  A    between atoms: C_1  and  C_2
REMARK    2  A    between atoms: C_4  and  C_10
REMARK    3  A    between atoms: C_6  and  O_8
REMARK    4  A    between atoms: O_8  and  C_9
REMARK    5  A    between atoms: C_10  and  C_11
REMARK    6  A    between atoms: C_11  and  C_12
REMARK    7  A    between atoms: C_12  and  C_13
REMARK    8  A    between atoms: C_12  and  C_98
REMARK    9  A    between atoms: C_13  and  O_14
REMARK   10  A    between atoms: C_13  and  C_15
REMARK   11  A    between atoms: C_15  and  C_16
REMARK   12  A    between atoms: C_15  and  C_97
REMARK   13  A    between atoms: C_22  and  C_96
REMARK   14  A    between atoms: C_25  and  O_95
REMARK   15  A    between atoms: C_31  and  O_90
REMARK   16  A    between atoms: C_32  and  C_89
REMARK   17  A    between atoms: C_33  and  O_88
REMARK   18  A    between atoms: C_35  and  O_87
REMARK   19  A    between atoms: C_36  and  C_86
REMARK   20  A    between atoms: C_37  and  C_69
REMARK   21  A    between atoms: C_43  and  C_68
REMARK   22  A    between atoms: C_46  and  O_67
REMARK   23  A    between atoms: C_52  and  O_62
REMARK   24  A    between atoms: C_53  and  C_61
REMARK   25  A    between atoms: C_54  and  O_60
REMARK   26  A    between atoms: C_56  and  O_59
REMARK   27  A    between atoms: C_57  and  C_58
REMARK   28  A    between atoms: O_62  and  C_63
REMARK   29  A    between atoms: C_69  and  C_70
REMARK   30  A    between atoms: C_69  and  C_85
REMARK   31  A    between atoms: C_70  and  O_71
REMARK   32  A    between atoms: C_70  and  C_72
REMARK   33  A    between atoms: C_72  and  C_73
REMARK   34  A    between atoms: C_72  and  C_84
REMARK   35  A    between atoms: C_73  and  C_74
REMARK   36  A    between atoms: C_74  and  C_75
REMARK   37  A    between atoms: C_77  and  C_83
REMARK   38  A    between atoms: C_79  and  O_81
REMARK   39  A    between atoms: O_81  and  C_82
REMARK   40  A    between atoms: O_90  and  C_91
REMARK                            x       y       z     vdW  Elec       q    Type
REMARK                         _______ _______ _______ _____ _____    ______ ____
ROOT
ATOM      1  C   UNL     1     150.494 166.720 190.927  0.00  0.00    +0.113 C 
ATOM      2  O   UNL     1     151.708 165.961 190.690  0.00  0.00    -0.458 OA
ATOM      3  C   UNL     1     152.219 166.032 189.438  0.00  0.00    +0.332 C 
ATOM      4  O   UNL     1     151.791 166.689 188.505  0.00  0.00    -0.246 OA
ATOM      5  C   UNL     1     153.390 165.131 189.355  0.00  0.00    +0.023 C 
ATOM      6  C   UNL     1     154.119 165.107 188.229  0.00  0.00    -0.052 C 
ATOM      7  C   UNL     1     155.245 164.223 187.948  0.00  0.00    -0.054 C 
ATOM      8  C   UNL     1     156.081 163.788 188.911  0.00  0.00    -0.079 C 
ATOM      9  C   UNL     1     157.306 162.932 188.710  0.00  0.00    -0.008 C 
ATOM     10  C   UNL     1     157.210 161.528 189.342  0.00  0.00    +0.061 C 
ATOM     11  C   UNL     1     156.229 160.613 188.592  0.00  0.00    +0.003 C 
ATOM     12  C   UNL     1     156.263 159.136 189.040  0.00  0.00    +0.080 C 
ATOM     13  O   UNL     1     154.985 158.504 188.799  0.00  0.00    -0.369 OA
ATOM     14  C   UNL     1     154.773 158.117 187.427  0.00  0.00    +0.065 C 
ATOM     15  C   UNL     1     153.326 157.602 187.330  0.00  0.00    +0.000 C 
ATOM     16  C   UNL     1     152.932 157.021 185.954  0.00  0.00    +0.066 C 
ATOM     17  C   UNL     1     151.394 156.760 185.806  0.00  0.00    +0.009 C 
ATOM     18  C   UNL     1     150.515 158.012 186.047  0.00  0.00    +0.063 C 
ATOM     19  C   UNL     1     149.003 157.761 185.815  0.00  0.00    -0.000 C 
ATOM     20  C   UNL     1     148.234 159.088 185.896  0.00  0.00    +0.064 C 
ATOM     21  C   UNL     1     146.729 158.932 186.239  0.00  0.00    +0.020 C 
ATOM     22  C   UNL     1     146.077 160.273 186.704  0.00  0.00    +0.113 C 
ATOM     23  O   UNL     1     146.216 161.164 185.562  0.00  0.00    -0.458 OA
ATOM     24  C   UNL     1     145.187 161.951 185.182  0.00  0.00    +0.332 C 
ATOM     25  O   UNL     1     144.137 162.136 185.799  0.00  0.00    -0.246 OA
ATOM     26  C   UNL     1     145.471 162.606 183.887  0.00  0.00    +0.023 C 
ATOM     27  C   UNL     1     146.663 162.531 183.258  0.00  0.00    -0.052 C 
ATOM     28  C   UNL     1     147.046 163.152 181.993  0.00  0.00    -0.054 C 
ATOM     29  C   UNL     1     148.329 163.033 181.593  0.00  0.00    -0.079 C 
ATOM     30  C   UNL     1     148.991 163.641 180.390  0.00  0.00    -0.008 C 
ATOM     31  C   UNL     1     150.338 164.346 180.649  0.00  0.00    +0.061 C 
ATOM     32  C   UNL     1     150.308 165.587 181.566  0.00  0.00    +0.003 C 
ATOM     33  C   UNL     1     150.437 165.444 183.096  0.00  0.00    +0.080 C 
ATOM     34  O   UNL     1     149.240 164.884 183.645  0.00  0.00    -0.369 OA
ATOM     35  C   UNL     1     149.301 164.561 185.038  0.00  0.00    +0.065 C 
ATOM     36  C   UNL     1     149.411 165.793 185.953  0.00  0.00    +0.000 C 
ATOM     37  C   UNL     1     148.114 166.638 185.937  0.00  0.00    +0.066 C 
ATOM     38  C   UNL     1     147.963 167.456 187.251  0.00  0.00    +0.009 C 
ATOM     39  C   UNL     1     147.346 166.620 188.412  0.00  0.00    +0.063 C 
ATOM     40  C   UNL     1     147.593 167.274 189.798  0.00  0.00    -0.000 C 
ATOM     41  C   UNL     1     147.907 166.342 190.976  0.00  0.00    +0.064 C 
ATOM     42  C   UNL     1     149.316 165.697 190.973  0.00  0.00    +0.020 C 
ATOM     43  C   UNL     1     150.401 163.515 185.291  0.00  0.00    -0.008 C 
ATOM     44  C   UNL     1     151.664 163.808 184.537  0.00  0.00    -0.083 C 
ATOM     45  C   UNL     1     151.668 164.700 183.544  0.00  0.00    -0.059 C 
ATOM     46  C   UNL     1     155.799 157.054 187.009  0.00  0.00    -0.008 C 
ATOM     47  C   UNL     1     157.182 157.410 187.462  0.00  0.00    -0.083 C 
ATOM     48  C   UNL     1     157.379 158.345 188.398  0.00  0.00    -0.059 C 
ATOM     49  H   UNL     1     150.293 167.353 190.064  0.00  0.00    +0.074 HD
ATOM     50  H   UNL     1     153.588 164.497 190.206  0.00  0.00    +0.069 HD
ATOM     51  H   UNL     1     153.837 165.764 187.406  0.00  0.00    +0.062 HD
ATOM     52  H   UNL     1     155.923 164.104 189.942  0.00  0.00    +0.058 HD
ATOM     53  H   UNL     1     158.152 163.468 189.160  0.00  0.00    +0.033 HD
ATOM     54  H   UNL     1     157.580 162.835 187.655  0.00  0.00    +0.033 HD
ATOM     55  H   UNL     1     156.894 161.616 190.384  0.00  0.00    +0.060 HD
ATOM     56  H   UNL     1     155.212 161.003 188.715  0.00  0.00    +0.032 HD
ATOM     57  H   UNL     1     156.435 160.658 187.516  0.00  0.00    +0.032 HD
ATOM     58  H   UNL     1     156.394 159.093 190.126  0.00  0.00    +0.064 HD
ATOM     59  H   UNL     1     154.868 159.009 186.795  0.00  0.00    +0.060 HD
ATOM     60  H   UNL     1     153.147 156.850 188.108  0.00  0.00    +0.032 HD
ATOM     61  H   UNL     1     152.682 158.452 187.588  0.00  0.00    +0.032 HD
ATOM     62  H   UNL     1     153.445 156.054 185.846  0.00  0.00    +0.060 HD
ATOM     63  H   UNL     1     151.223 156.450 184.770  0.00  0.00    +0.035 HD
ATOM     64  H   UNL     1     150.620 158.341 187.088  0.00  0.00    +0.060 HD
ATOM     65  H   UNL     1     148.629 157.062 186.575  0.00  0.00    +0.032 HD
ATOM     66  H   UNL     1     148.856 157.307 184.831  0.00  0.00    +0.032 HD
ATOM     67  H   UNL     1     148.713 159.685 186.672  0.00  0.00    +0.060 HD
ATOM     68  H   UNL     1     146.662 158.207 187.055  0.00  0.00    +0.036 HD
ATOM     69  H   UNL     1     145.013 160.097 186.906  0.00  0.00    +0.074 HD
ATOM     70  H   UNL     1     144.644 163.183 183.492  0.00  0.00    +0.069 HD
ATOM     71  H   UNL     1     147.463 161.977 183.748  0.00  0.00    +0.062 HD
ATOM     72  H   UNL     1     149.016 162.465 182.225  0.00  0.00    +0.058 HD
ATOM     73  H   UNL     1     149.165 162.822 179.678  0.00  0.00    +0.033 HD
ATOM     74  H   UNL     1     148.334 164.356 179.891  0.00  0.00    +0.033 HD
ATOM     75  H   UNL     1     150.635 164.729 179.665  0.00  0.00    +0.060 HD
ATOM     76  H   UNL     1     149.392 166.150 181.347  0.00  0.00    +0.032 HD
ATOM     77  H   UNL     1     151.140 166.224 181.252  0.00  0.00    +0.032 HD
ATOM     78  H   UNL     1     150.515 166.468 183.475  0.00  0.00    +0.064 HD
ATOM     79  H   UNL     1     148.351 164.063 185.275  0.00  0.00    +0.060 HD
ATOM     80  H   UNL     1     150.261 166.421 185.663  0.00  0.00    +0.032 HD
ATOM     81  H   UNL     1     149.630 165.438 186.966  0.00  0.00    +0.032 HD
ATOM     82  H   UNL     1     147.234 165.992 185.822  0.00  0.00    +0.060 HD
ATOM     83  H   UNL     1     148.970 167.781 187.544  0.00  0.00    +0.035 HD
ATOM     84  H   UNL     1     146.260 166.570 188.253  0.00  0.00    +0.060 HD
ATOM     85  H   UNL     1     146.673 167.826 190.046  0.00  0.00    +0.032 HD
ATOM     86  H   UNL     1     148.356 168.051 189.722  0.00  0.00    +0.032 HD
ATOM     87  H   UNL     1     147.793 166.900 191.910  0.00  0.00    +0.060 HD
ATOM     88  H   UNL     1     149.417 165.091 190.062  0.00  0.00    +0.036 HD
ATOM     89  H   UNL     1     150.618 163.432 186.362  0.00  0.00    +0.033 HD
ATOM     90  H   UNL     1     150.052 162.533 184.949  0.00  0.00    +0.033 HD
ATOM     91  H   UNL     1     152.558 163.248 184.791  0.00  0.00    +0.057 HD
ATOM     92  H   UNL     1     152.594 164.898 183.004  0.00  0.00    +0.059 HD
ATOM     93  H   UNL     1     155.541 156.079 187.436  0.00  0.00    +0.033 HD
ATOM     94  H   UNL     1     155.796 156.945 185.919  0.00  0.00    +0.033 HD
ATOM     95  H   UNL     1     158.018 156.875 187.031  0.00  0.00    +0.057 HD
ATOM     96  H   UNL     1     158.393 158.579 188.711  0.00  0.00    +0.059 HD
ENDROOT
BRANCH  28  97
ATOM     97  C   UNL     1     145.984 163.903 181.229  0.00  0.00    -0.040 C 
ATOM     98  H   UNL     1     145.616 163.297 180.395  0.00  0.00    +0.028 HD
ATOM     99  H   UNL     1     146.342 164.834 180.781  0.00  0.00    +0.028 HD
ATOM    100  H   UNL     1     145.141 164.158 181.881  0.00  0.00    +0.028 HD
ENDBRANCH  28  97
BRANCH  21 101
ATOM    101  C   UNL     1     145.921 158.338 185.076  0.00  0.00    -0.057 C 
ATOM    102  H   UNL     1     146.577 157.989 184.276  0.00  0.00    +0.023 HD
ATOM    103  H   UNL     1     145.337 157.483 185.421  0.00  0.00    +0.023 HD
ATOM    104  H   UNL     1     145.220 159.058 184.642  0.00  0.00    +0.023 HD
ENDBRANCH  21 101
BRANCH  42 105
ATOM    105  C   UNL     1     149.431 164.655 192.100  0.00  0.00    -0.057 C 
ATOM    106  H   UNL     1     148.798 164.912 192.950  0.00  0.00    +0.023 HD
ATOM    107  H   UNL     1     150.463 164.529 192.436  0.00  0.00    +0.023 HD
ATOM    108  H   UNL     1     149.086 163.682 191.743  0.00  0.00    +0.023 HD
ENDBRANCH  42 105
BRANCH  17 109
ATOM    109  C   UNL     1     150.959 155.591 186.698  0.00  0.00    -0.058 C 
ATOM    110  H   UNL     1     150.489 155.944 187.616  0.00  0.00    +0.023 HD
ATOM    111  H   UNL     1     151.826 154.994 186.995  0.00  0.00    +0.023 HD
ATOM    112  H   UNL     1     150.259 154.931 186.186  0.00  0.00    +0.023 HD
ENDBRANCH  17 109
BRANCH  38 113
ATOM    113  C   UNL     1     147.127 168.736 187.071  0.00  0.00    -0.058 C 
ATOM    114  H   UNL     1     147.090 169.065 186.026  0.00  0.00    +0.023 HD
ATOM    115  H   UNL     1     146.092 168.577 187.412  0.00  0.00    +0.023 HD
ATOM    116  H   UNL     1     147.541 169.566 187.650  0.00  0.00    +0.023 HD
ENDBRANCH  38 113
BRANCH   7 117
ATOM    117  C   UNL     1     155.413 163.875 186.492  0.00  0.00    -0.040 C 
ATOM    118  H   UNL     1     155.742 164.752 185.928  0.00  0.00    +0.028 HD
ATOM    119  H   UNL     1     154.474 163.525 186.055  0.00  0.00    +0.028 HD
ATOM    120  H   UNL     1     156.143 163.070 186.343  0.00  0.00    +0.028 HD
ENDBRANCH   7 117
BRANCH   1 121
ATOM    121  C   UNL     1     150.685 167.682 192.136  0.00  0.00    +0.020 C 
ATOM    122  H   UNL     1     149.830 167.572 192.811  0.00  0.00    +0.036 HD
BRANCH 121 123
ATOM    123  C   UNL     1     151.938 167.380 192.979  0.00  0.00    -0.057 C 
ATOM    124  H   UNL     1     152.771 167.015 192.374  0.00  0.00    +0.023 HD
ATOM    125  H   UNL     1     152.275 168.270 193.518  0.00  0.00    +0.023 HD
ATOM    126  H   UNL     1     151.720 166.644 193.756  0.00  0.00    +0.023 HD
ENDBRANCH 121 123
BRANCH 121 127
ATOM    127  C   UNL     1     150.749 169.187 191.706  0.00  0.00    +0.064 C 
ATOM    128  H   UNL     1     151.290 169.746 192.480  0.00  0.00    +0.060 HD
BRANCH 127 129
ATOM    129  C   UNL     1     149.375 169.892 191.509  0.00  0.00    -0.017 C 
ATOM    130  H   UNL     1     148.958 169.610 190.538  0.00  0.00    +0.032 HD
BRANCH 129 131
ATOM    131  C   UNL     1     148.377 169.490 192.599  0.00  0.00    -0.060 C 
ATOM    132  H   UNL     1     148.103 168.433 192.543  0.00  0.00    +0.023 HD
ATOM    133  H   UNL     1     148.784 169.680 193.599  0.00  0.00    +0.023 HD
ATOM    134  H   UNL     1     147.446 170.060 192.501  0.00  0.00    +0.023 HD
ENDBRANCH 129 131
BRANCH 129 135
ATOM    135  C   UNL     1     149.476 171.439 191.511  0.00  0.00    -0.046 C 
ATOM    136  H   UNL     1     150.256 171.722 192.229  0.00  0.00    +0.027 HD
ATOM    137  H   UNL     1     149.814 171.802 190.533  0.00  0.00    +0.027 HD
BRANCH 135 138
ATOM    138  C   UNL     1     148.176 172.159 191.895  0.00  0.00    -0.026 C 
ATOM    139  H   UNL     1     147.541 171.489 192.481  0.00  0.00    +0.029 HD
ATOM    140  H   UNL     1     148.419 173.013 192.539  0.00  0.00    +0.029 HD
BRANCH 138 143
ATOM    141  C   UNL     1     145.238 172.986 191.741  0.00  0.00    +0.059 C 
ATOM    142  O   UNL     1     146.336 173.547 191.012  0.00  0.00    -0.373 OA
ATOM    143  C   UNL     1     147.372 172.621 190.668  0.00  0.00    +0.061 C 
ATOM    144  C   UNL     1     146.792 171.454 189.866  0.00  0.00    -0.000 C 
ATOM    145  C   UNL     1     145.624 170.792 190.593  0.00  0.00    +0.063 C 
ATOM    146  C   UNL     1     144.588 171.852 190.958  0.00  0.00    -0.000 C 
ATOM    147  H   UNL     1     145.599 172.626 192.710  0.00  0.00    +0.059 HD
ATOM    148  H   UNL     1     148.060 173.171 190.013  0.00  0.00    +0.060 HD
ATOM    149  H   UNL     1     146.431 171.834 188.899  0.00  0.00    +0.032 HD
ATOM    150  H   UNL     1     147.567 170.717 189.628  0.00  0.00    +0.032 HD
ATOM    151  H   UNL     1     145.995 170.297 191.498  0.00  0.00    +0.060 HD
ATOM    152  H   UNL     1     143.766 171.413 191.537  0.00  0.00    +0.032 HD
ATOM    153  H   UNL     1     144.139 172.239 190.032  0.00  0.00    +0.032 HD
BRANCH 141 154
ATOM    154  C   UNL     1     144.248 174.111 192.001  0.00  0.00    -0.039 C 
ATOM    155  H   UNL     1     143.277 173.906 191.541  0.00  0.00    +0.025 HD
ATOM    156  H   UNL     1     144.103 174.252 193.078  0.00  0.00    +0.025 HD
ATOM    157  H   UNL     1     144.628 175.062 191.611  0.00  0.00    +0.025 HD
ENDBRANCH 141 154
BRANCH 145 158
ATOM    158  O   UNL     1     145.087 169.795 189.718  0.00  0.00    -0.380 OA
BRANCH 158 159
ATOM    159  C   UNL     1     144.230 168.870 190.375  0.00  0.00    +0.037 C 
ATOM    160  H   UNL     1     143.536 169.436 191.000  0.00  0.00    +0.052 HD
ATOM    161  H   UNL     1     144.805 168.205 191.022  0.00  0.00    +0.052 HD
ATOM    162  H   UNL     1     143.645 168.286 189.658  0.00  0.00    +0.052 HD
ENDBRANCH 158 159
ENDBRANCH 145 158
ENDBRANCH 138 143
ENDBRANCH 135 138
ENDBRANCH 129 135
ENDBRANCH 127 129
BRANCH 127 163
ATOM    163  O   UNL     1     151.516 169.304 190.510  0.00  0.00    -0.391 OA
ATOM    164  H   UNL     1     152.380 169.683 190.739  0.00  0.00    +0.210 HD
ENDBRANCH 127 163
ENDBRANCH 121 127
ENDBRANCH   1 121
BRANCH  41 165
ATOM    165  O   UNL     1     146.914 165.304 190.987  0.00  0.00    -0.391 OA
ATOM    166  H   UNL     1     147.304 164.527 190.548  0.00  0.00    +0.210 HD
ENDBRANCH  41 165
BRANCH  39 167
ATOM    167  O   UNL     1     147.788 165.277 188.372  0.00  0.00    -0.391 OA
ATOM    168  H   UNL     1     148.766 165.296 188.290  0.00  0.00    +0.210 HD
ENDBRANCH  39 167
BRANCH  31 169
ATOM    169  O   UNL     1     151.381 163.440 180.998  0.00  0.00    -0.391 OA
ATOM    170  H   UNL     1     151.287 162.636 180.456  0.00  0.00    +0.210 HD
ENDBRANCH  31 169
BRANCH  22 171
ATOM    171  C   UNL     1     146.734 160.938 187.958  0.00  0.00    +0.020 C 
ATOM    172  H   UNL     1     147.609 160.339 188.216  0.00  0.00    +0.036 HD
BRANCH 171 173
ATOM    173  C   UNL     1     147.326 162.318 187.611  0.00  0.00    -0.057 C 
ATOM    174  H   UNL     1     146.545 163.003 187.259  0.00  0.00    +0.023 HD
ATOM    175  H   UNL     1     147.790 162.781 188.491  0.00  0.00    +0.023 HD
ATOM    176  H   UNL     1     148.103 162.242 186.845  0.00  0.00    +0.023 HD
ENDBRANCH 171 173
BRANCH 171 177
ATOM    177  C   UNL     1     145.835 161.112 189.231  0.00  0.00    +0.064 C 
ATOM    178  H   UNL     1     146.042 162.093 189.683  0.00  0.00    +0.060 HD
BRANCH 177 179
ATOM    179  O   UNL     1     144.454 161.155 188.876  0.00  0.00    -0.391 OA
ATOM    180  H   UNL     1     144.385 160.949 187.927  0.00  0.00    +0.210 HD
ENDBRANCH 177 179
BRANCH 177 181
ATOM    181  C   UNL     1     146.061 160.019 190.333  0.00  0.00    -0.017 C 
ATOM    182  H   UNL     1     145.483 160.310 191.222  0.00  0.00    +0.032 HD
BRANCH 181 183
ATOM    183  C   UNL     1     145.579 158.639 189.855  0.00  0.00    -0.060 C 
ATOM    184  H   UNL     1     144.526 158.504 190.124  0.00  0.00    +0.023 HD
ATOM    185  H   UNL     1     146.150 157.815 190.290  0.00  0.00    +0.023 HD
ATOM    186  H   UNL     1     145.685 158.525 188.775  0.00  0.00    +0.023 HD
ENDBRANCH 181 183
BRANCH 181 187
ATOM    187  C   UNL     1     147.559 159.943 190.756  0.00  0.00    -0.046 C 
ATOM    188  H   UNL     1     147.618 159.834 191.842  0.00  0.00    +0.027 HD
ATOM    189  H   UNL     1     148.031 160.897 190.492  0.00  0.00    +0.027 HD
BRANCH 187 190
ATOM    190  C   UNL     1     148.345 158.788 190.105  0.00  0.00    -0.026 C 
ATOM    191  H   UNL     1     147.707 158.327 189.345  0.00  0.00    +0.029 HD
ATOM    192  H   UNL     1     148.540 158.024 190.867  0.00  0.00    +0.029 HD
BRANCH 190 193
ATOM    193  C   UNL     1     149.670 159.117 189.382  0.00  0.00    +0.061 C 
ATOM    194  O   UNL     1     150.776 158.350 189.857  0.00  0.00    -0.373 OA
ATOM    195  C   UNL     1     151.475 158.870 190.982  0.00  0.00    +0.059 C 
ATOM    196  C   UNL     1     151.955 160.293 190.734  0.00  0.00    -0.000 C 
ATOM    197  C   UNL     1     150.773 161.198 190.373  0.00  0.00    +0.063 C 
ATOM    198  C   UNL     1     150.007 160.597 189.197  0.00  0.00    -0.000 C 
ATOM    199  H   UNL     1     149.514 158.726 188.367  0.00  0.00    +0.060 HD
ATOM    200  H   UNL     1     150.820 158.833 191.858  0.00  0.00    +0.059 HD
ATOM    201  H   UNL     1     152.472 160.675 191.621  0.00  0.00    +0.032 HD
ATOM    202  H   UNL     1     152.681 160.324 189.913  0.00  0.00    +0.032 HD
ATOM    203  H   UNL     1     150.114 161.299 191.238  0.00  0.00    +0.060 HD
ATOM    204  H   UNL     1     150.654 160.687 188.312  0.00  0.00    +0.032 HD
ATOM    205  H   UNL     1     149.113 161.188 188.965  0.00  0.00    +0.032 HD
BRANCH 195 206
ATOM    206  C   UNL     1     152.664 157.953 191.242  0.00  0.00    -0.039 C 
ATOM    207  H   UNL     1     153.357 158.406 191.952  0.00  0.00    +0.025 HD
ATOM    208  H   UNL     1     152.334 156.992 191.641  0.00  0.00    +0.025 HD
ATOM    209  H   UNL     1     153.205 157.740 190.317  0.00  0.00    +0.025 HD
ENDBRANCH 195 206
BRANCH 197 210
ATOM    210  O   UNL     1     151.178 162.515 189.979  0.00  0.00    -0.380 OA
BRANCH 210 211
ATOM    211  C   UNL     1     150.628 162.947 188.745  0.00  0.00    +0.037 C 
ATOM    212  H   UNL     1     150.869 163.997 188.575  0.00  0.00    +0.052 HD
ATOM    213  H   UNL     1     151.090 162.366 187.942  0.00  0.00    +0.052 HD
ATOM    214  H   UNL     1     149.548 162.792 188.713  0.00  0.00    +0.052 HD
ENDBRANCH 210 211
ENDBRANCH 197 210
ENDBRANCH 190 193
ENDBRANCH 187 190
ENDBRANCH 181 187
ENDBRANCH 177 181
ENDBRANCH 171 177
ENDBRANCH  22 171
BRANCH  20 215
ATOM    215  O   UNL     1     148.461 159.773 184.657  0.00  0.00    -0.391 OA
ATOM    216  H   UNL     1     148.094 159.240 183.932  0.00  0.00    +0.210 HD
ENDBRANCH  20 215
BRANCH  18 217
ATOM    217  O   UNL     1     150.986 159.076 185.225  0.00  0.00    -0.391 OA
ATOM    218  H   UNL     1     151.826 159.435 185.587  0.00  0.00    +0.210 HD
ENDBRANCH  18 217
BRANCH  10 219
ATOM    219  O   UNL     1     158.524 160.965 189.351  0.00  0.00    -0.391 OA
ATOM    220  H   UNL     1     158.891 161.053 188.453  0.00  0.00    +0.210 HD
ENDBRANCH  10 219
BRANCH  37 221
ATOM    221  O   UNL     1     148.217 167.545 184.827  0.00  0.00    -0.379 OA
BRANCH 221 222
ATOM    222  C   UNL     1     147.128 167.421 183.922  0.00  0.00    +0.037 C 
ATOM    223  H   UNL     1     146.271 168.007 184.270  0.00  0.00    +0.052 HD
ATOM    224  H   UNL     1     146.834 166.375 183.799  0.00  0.00    +0.052 HD
ATOM    225  H   UNL     1     147.439 167.808 182.945  0.00  0.00    +0.052 HD
ENDBRANCH 221 222
ENDBRANCH  37 221
BRANCH  16 226
ATOM    226  O   UNL     1     153.465 157.891 184.948  0.00  0.00    -0.379 OA
BRANCH 226 227
ATOM    227  C   UNL     1     153.698 157.275 183.690  0.00  0.00    +0.037 C 
ATOM    228  H   UNL     1     152.894 157.578 183.015  0.00  0.00    +0.052 HD
ATOM    229  H   UNL     1     154.649 157.608 183.258  0.00  0.00    +0.052 HD
ATOM    230  H   UNL     1     153.677 156.185 183.770  0.00  0.00    +0.052 HD
ENDBRANCH 226 227
ENDBRANCH  16 226
TORSDOF 40
ENDMDL
MODEL 2
REMARK VINA RESULT:      -5.2      2.445     10.660
REMARK  Name = Swinholide A_conf2
REMARK  40 active torsions:
REMARK  status: ('A' for Active; 'I' for Inactive)
REMARK    1  A    between atoms: C_1  and  C_2
REMARK    2  A    between atoms: C_4  and  C_10
REMARK    3  A    between atoms: C_6  and  O_8
REMARK    4  A    between atoms: O_8  and  C_9
REMARK    5  A    between atoms: C_10  and  C_11
REMARK    6  A    between atoms: C_11  and  C_12
REMARK    7  A    between atoms: C_12  and  C_13
REMARK    8  A    between atoms: C_12  and  C_98
REMARK    9  A    between atoms: C_13  and  O_14
REMARK   10  A    between atoms: C_13  and  C_15
REMARK   11  A    between atoms: C_15  and  C_16
REMARK   12  A    between atoms: C_15  and  C_97
REMARK   13  A    between atoms: C_22  and  C_96
REMARK   14  A    between atoms: C_25  and  O_95
REMARK   15  A    between atoms: C_31  and  O_90
REMARK   16  A    between atoms: C_32  and  C_89
REMARK   17  A    between atoms: C_33  and  O_88
REMARK   18  A    between atoms: C_35  and  O_87
REMARK   19  A    between atoms: C_36  and  C_86
REMARK   20  A    between atoms: C_37  and  C_69
REMARK   21  A    between atoms: C_43  and  C_68
REMARK   22  A    between atoms: C_46  and  O_67
REMARK   23  A    between atoms: C_52  and  O_62
REMARK   24  A    between atoms: C_53  and  C_61
REMARK   25  A    between atoms: C_54  and  O_60
REMARK   26  A    between atoms: C_56  and  O_59
REMARK   27  A    between atoms: C_57  and  C_58
REMARK   28  A    between atoms: O_62  and  C_63
REMARK   29  A    between atoms: C_69  and  C_70
REMARK   30  A    between atoms: C_69  and  C_85
REMARK   31  A    between atoms: C_70  and  O_71
REMARK   32  A    between atoms: C_70  and  C_72
REMARK   33  A    between atoms: C_72  and  C_73
REMARK   34  A    between atoms: C_72  and  C_84
REMARK   35  A    between atoms: C_73  and  C_74
REMARK   36  A    between atoms: C_74  and  C_75
REMARK   37  A    between atoms: C_77  and  C_83
REMARK   38  A    between atoms: C_79  and  O_81
REMARK   39  A    between atoms: O_81  and  C_82
REMARK   40  A    between atoms: O_90  and  C_91
REMARK                            x       y       z     vdW  Elec       q    Type
REMARK                         _______ _______ _______ _____ _____    ______ ____
ROOT
ATOM      1  C   UNL     1     154.756 163.408 188.599  0.00  0.00    +0.113 C 
ATOM      2  O   UNL     1     153.826 164.316 189.244  0.00  0.00    -0.458 OA
ATOM      3  C   UNL     1     152.890 163.743 190.039  0.00  0.00    +0.332 C 
ATOM      4  O   UNL     1     152.770 162.559 190.297  0.00  0.00    -0.246 OA
ATOM      5  C   UNL     1     151.979 164.801 190.531  0.00  0.00    +0.023 C 
ATOM      6  C   UNL     1     151.024 164.481 191.418  0.00  0.00    -0.052 C 
ATOM      7  C   UNL     1     149.995 165.375 191.938  0.00  0.00    -0.054 C 
ATOM      8  C   UNL     1     150.205 166.694 192.115  0.00  0.00    -0.079 C 
ATOM      9  C   UNL     1     149.231 167.681 192.708  0.00  0.00    -0.008 C 
ATOM     10  C   UNL     1     148.737 168.757 191.719  0.00  0.00    +0.061 C 
ATOM     11  C   UNL     1     147.786 168.185 190.656  0.00  0.00    +0.003 C 
ATOM     12  C   UNL     1     147.087 169.249 189.784  0.00  0.00    +0.080 C 
ATOM     13  O   UNL     1     146.746 168.701 188.491  0.00  0.00    -0.369 OA
ATOM     14  C   UNL     1     145.561 167.880 188.497  0.00  0.00    +0.065 C 
ATOM     15  C   UNL     1     145.436 167.273 187.088  0.00  0.00    +0.000 C 
ATOM     16  C   UNL     1     144.152 166.447 186.847  0.00  0.00    +0.066 C 
ATOM     17  C   UNL     1     144.183 165.625 185.513  0.00  0.00    +0.009 C 
ATOM     18  C   UNL     1     145.385 164.655 185.396  0.00  0.00    +0.063 C 
ATOM     19  C   UNL     1     145.357 163.789 184.111  0.00  0.00    -0.000 C 
ATOM     20  C   UNL     1     146.476 162.737 184.166  0.00  0.00    +0.064 C 
ATOM     21  C   UNL     1     146.916 162.202 182.778  0.00  0.00    +0.020 C 
ATOM     22  C   UNL     1     148.290 161.460 182.829  0.00  0.00    +0.113 C 
ATOM     23  O   UNL     1     148.067 160.336 183.724  0.00  0.00    -0.458 OA
ATOM     24  C   UNL     1     148.546 159.112 183.414  0.00  0.00    +0.332 C 
ATOM     25  O   UNL     1     149.319 158.837 182.495  0.00  0.00    -0.246 OA
ATOM     26  C   UNL     1     148.025 158.088 184.345  0.00  0.00    +0.023 C 
ATOM     27  C   UNL     1     147.289 158.378 185.439  0.00  0.00    -0.052 C 
ATOM     28  C   UNL     1     146.747 157.445 186.423  0.00  0.00    -0.054 C 
ATOM     29  C   UNL     1     146.124 157.959 187.504  0.00  0.00    -0.079 C 
ATOM     30  C   UNL     1     145.558 157.230 188.689  0.00  0.00    -0.008 C 
ATOM     31  C   UNL     1     145.947 157.792 190.072  0.00  0.00    +0.061 C 
ATOM     32  C   UNL     1     147.444 157.744 190.445  0.00  0.00    +0.003 C 
ATOM     33  C   UNL     1     148.396 158.892 190.051  0.00  0.00    +0.080 C 
ATOM     34  O   UNL     1     148.642 158.870 188.641  0.00  0.00    -0.369 OA
ATOM     35  C   UNL     1     149.388 159.982 188.135  0.00  0.00    +0.065 C 
ATOM     36  C   UNL     1     150.849 160.015 188.617  0.00  0.00    +0.000 C 
ATOM     37  C   UNL     1     151.678 158.851 188.021  0.00  0.00    +0.066 C 
ATOM     38  C   UNL     1     153.190 159.212 187.965  0.00  0.00    +0.009 C 
ATOM     39  C   UNL     1     153.561 160.055 186.709  0.00  0.00    +0.063 C 
ATOM     40  C   UNL     1     154.930 160.768 186.867  0.00  0.00    -0.000 C 
ATOM     41  C   UNL     1     155.058 162.190 186.305  0.00  0.00    +0.064 C 
ATOM     42  C   UNL     1     154.330 163.302 187.102  0.00  0.00    +0.020 C 
ATOM     43  C   UNL     1     148.630 161.294 188.402  0.00  0.00    -0.008 C 
ATOM     44  C   UNL     1     148.043 161.354 189.780  0.00  0.00    -0.083 C 
ATOM     45  C   UNL     1     147.953 160.251 190.527  0.00  0.00    -0.059 C 
ATOM     46  C   UNL     1     144.334 168.720 188.880  0.00  0.00    -0.008 C 
ATOM     47  C   UNL     1     144.614 169.606 190.055  0.00  0.00    -0.083 C 
ATOM     48  C   UNL     1     145.869 169.853 190.445  0.00  0.00    -0.059 C 
ATOM     49  H   UNL     1     154.622 162.408 189.009  0.00  0.00    +0.074 HD
ATOM     50  H   UNL     1     152.104 165.792 190.123  0.00  0.00    +0.069 HD
ATOM     51  H   UNL     1     150.951 163.450 191.762  0.00  0.00    +0.062 HD
ATOM     52  H   UNL     1     151.177 167.121 191.869  0.00  0.00    +0.058 HD
ATOM     53  H   UNL     1     149.741 168.174 193.546  0.00  0.00    +0.033 HD
ATOM     54  H   UNL     1     148.368 167.192 193.169  0.00  0.00    +0.033 HD
ATOM     55  H   UNL     1     149.594 169.219 191.222  0.00  0.00    +0.060 HD
ATOM     56  H   UNL     1     148.345 167.500 190.008  0.00  0.00    +0.032 HD
ATOM     57  H   UNL     1     147.019 167.571 191.143  0.00  0.00    +0.032 HD
ATOM     58  H   UNL     1     147.794 170.056 189.567  0.00  0.00    +0.064 HD
ATOM     59  H   UNL     1     145.706 167.065 189.216  0.00  0.00    +0.060 HD
ATOM     60  H   UNL     1     145.505 168.066 186.334  0.00  0.00    +0.032 HD
ATOM     61  H   UNL     1     146.327 166.649 186.944  0.00  0.00    +0.032 HD
ATOM     62  H   UNL     1     143.313 167.155 186.782  0.00  0.00    +0.060 HD
ATOM     63  H   UNL     1     143.279 165.009 185.499  0.00  0.00    +0.035 HD
ATOM     64  H   UNL     1     146.319 165.229 185.365  0.00  0.00    +0.060 HD
ATOM     65  H   UNL     1     145.491 164.434 183.233  0.00  0.00    +0.032 HD
ATOM     66  H   UNL     1     144.386 163.292 184.027  0.00  0.00    +0.032 HD
ATOM     67  H   UNL     1     147.331 163.208 184.651  0.00  0.00    +0.060 HD
ATOM     68  H   UNL     1     147.009 163.070 182.118  0.00  0.00    +0.036 HD
ATOM     69  H   UNL     1     148.528 161.089 181.824  0.00  0.00    +0.074 HD
ATOM     70  H   UNL     1     148.308 157.073 184.091  0.00  0.00    +0.069 HD
ATOM     71  H   UNL     1     147.093 159.428 185.656  0.00  0.00    +0.062 HD
ATOM     72  H   UNL     1     146.041 159.046 187.584  0.00  0.00    +0.058 HD
ATOM     73  H   UNL     1     144.465 157.277 188.596  0.00  0.00    +0.033 HD
ATOM     74  H   UNL     1     145.829 156.173 188.674  0.00  0.00    +0.033 HD
ATOM     75  H   UNL     1     145.456 157.117 190.784  0.00  0.00    +0.060 HD
ATOM     76  H   UNL     1     147.861 156.803 190.064  0.00  0.00    +0.032 HD
ATOM     77  H   UNL     1     147.488 157.678 191.536  0.00  0.00    +0.032 HD
ATOM     78  H   UNL     1     149.345 158.662 190.546  0.00  0.00    +0.064 HD
ATOM     79  H   UNL     1     149.409 159.861 187.044  0.00  0.00    +0.060 HD
ATOM     80  H   UNL     1     150.901 159.979 189.711  0.00  0.00    +0.032 HD
ATOM     81  H   UNL     1     151.275 160.982 188.326  0.00  0.00    +0.032 HD
ATOM     82  H   UNL     1     151.335 158.614 187.006  0.00  0.00    +0.060 HD
ATOM     83  H   UNL     1     153.412 159.800 188.865  0.00  0.00    +0.035 HD
ATOM     84  H   UNL     1     153.635 159.371 185.852  0.00  0.00    +0.060 HD
ATOM     85  H   UNL     1     155.668 160.136 186.348  0.00  0.00    +0.032 HD
ATOM     86  H   UNL     1     155.252 160.748 187.910  0.00  0.00    +0.032 HD
ATOM     87  H   UNL     1     156.119 162.454 186.247  0.00  0.00    +0.060 HD
ATOM     88  H   UNL     1     153.256 163.070 187.117  0.00  0.00    +0.036 HD
ATOM     89  H   UNL     1     149.282 162.159 188.236  0.00  0.00    +0.033 HD
ATOM     90  H   UNL     1     147.790 161.374 187.700  0.00  0.00    +0.033 HD
ATOM     91  H   UNL     1     147.658 162.304 190.136  0.00  0.00    +0.057 HD
ATOM     92  H   UNL     1     147.520 160.312 191.526  0.00  0.00    +0.059 HD
ATOM     93  H   UNL     1     144.021 169.353 188.043  0.00  0.00    +0.033 HD
ATOM     94  H   UNL     1     143.494 168.059 189.123  0.00  0.00    +0.033 HD
ATOM     95  H   UNL     1     143.776 170.063 190.566  0.00  0.00    +0.057 HD
ATOM     96  H   UNL     1     146.043 170.505 191.298  0.00  0.00    +0.059 HD
ENDROOT
BRANCH  28  97
ATOM     97  C   UNL     1     146.937 155.971 186.174  0.00  0.00    -0.040 C 
ATOM     98  H   UNL     1     146.036 155.541 185.725  0.00  0.00    +0.028 HD
ATOM     99  H   UNL     1     147.118 155.392 187.084  0.00  0.00    +0.028 HD
ATOM    100  H   UNL     1     147.785 155.795 185.502  0.00  0.00    +0.028 HD
ENDBRANCH  28  97
BRANCH  21 101
ATOM    101  C   UNL     1     145.859 161.292 182.138  0.00  0.00    -0.057 C 
ATOM    102  H   UNL     1     146.242 160.816 181.232  0.00  0.00    +0.023 HD
ATOM    103  H   UNL     1     145.572 160.499 182.832  0.00  0.00    +0.023 HD
ATOM    104  H   UNL     1     144.947 161.834 181.869  0.00  0.00    +0.023 HD
ENDBRANCH  21 101
BRANCH  42 105
ATOM    105  C   UNL     1     154.388 164.635 186.336  0.00  0.00    -0.057 C 
ATOM    106  H   UNL     1     153.878 165.433 186.879  0.00  0.00    +0.023 HD
ATOM    107  H   UNL     1     153.966 164.549 185.331  0.00  0.00    +0.023 HD
ATOM    108  H   UNL     1     155.427 164.956 186.225  0.00  0.00    +0.023 HD
ENDBRANCH  42 105
BRANCH  17 109
ATOM    109  C   UNL     1     144.101 166.562 184.302  0.00  0.00    -0.058 C 
ATOM    110  H   UNL     1     143.090 166.602 183.897  0.00  0.00    +0.023 HD
ATOM    111  H   UNL     1     144.750 166.204 183.497  0.00  0.00    +0.023 HD
ATOM    112  H   UNL     1     144.411 167.576 184.554  0.00  0.00    +0.023 HD
ENDBRANCH  17 109
BRANCH  38 113
ATOM    113  C   UNL     1     154.106 157.976 188.014  0.00  0.00    -0.058 C 
ATOM    114  H   UNL     1     154.187 157.558 189.025  0.00  0.00    +0.023 HD
ATOM    115  H   UNL     1     153.727 157.183 187.350  0.00  0.00    +0.023 HD
ATOM    116  H   UNL     1     155.121 158.220 187.690  0.00  0.00    +0.023 HD
ENDBRANCH  38 113
BRANCH   7 117
ATOM    117  C   UNL     1     148.701 164.691 192.293  0.00  0.00    -0.040 C 
ATOM    118  H   UNL     1     148.215 164.306 191.393  0.00  0.00    +0.028 HD
ATOM    119  H   UNL     1     148.006 165.382 192.782  0.00  0.00    +0.028 HD
ATOM    120  H   UNL     1     148.853 163.860 192.991  0.00  0.00    +0.028 HD
ENDBRANCH   7 117
BRANCH   1 121
ATOM    121  C   UNL     1     156.223 163.817 188.923  0.00  0.00    +0.020 C 
ATOM    122  H   UNL     1     156.834 163.673 188.027  0.00  0.00    +0.036 HD
BRANCH 121 123
ATOM    123  C   UNL     1     156.383 165.297 189.318  0.00  0.00    -0.057 C 
ATOM    124  H   UNL     1     156.592 165.939 188.458  0.00  0.00    +0.023 HD
ATOM    125  H   UNL     1     155.482 165.674 189.811  0.00  0.00    +0.023 HD
ATOM    126  H   UNL     1     157.182 165.423 190.051  0.00  0.00    +0.023 HD
ENDBRANCH 121 123
BRANCH 121 127
ATOM    127  C   UNL     1     156.854 162.947 190.063  0.00  0.00    +0.064 C 
ATOM    128  H   UNL     1     157.147 163.613 190.885  0.00  0.00    +0.060 HD
BRANCH 127 129
ATOM    129  C   UNL     1     158.117 162.128 189.668  0.00  0.00    -0.017 C 
ATOM    130  H   UNL     1     157.910 161.060 189.788  0.00  0.00    +0.032 HD
BRANCH 129 131
ATOM    131  C   UNL     1     158.516 162.380 188.210  0.00  0.00    -0.060 C 
ATOM    132  H   UNL     1     158.379 163.424 187.916  0.00  0.00    +0.023 HD
ATOM    133  H   UNL     1     159.565 162.116 188.035  0.00  0.00    +0.023 HD
ATOM    134  H   UNL     1     157.900 161.780 187.530  0.00  0.00    +0.023 HD
ENDBRANCH 129 131
BRANCH 129 135
ATOM    135  C   UNL     1     159.350 162.438 190.554  0.00  0.00    -0.046 C 
ATOM    136  H   UNL     1     160.229 161.995 190.070  0.00  0.00    +0.027 HD
ATOM    137  H   UNL     1     159.533 163.519 190.591  0.00  0.00    +0.027 HD
BRANCH 135 138
ATOM    138  C   UNL     1     159.256 161.894 191.985  0.00  0.00    -0.026 C 
ATOM    139  H   UNL     1     159.591 162.655 192.695  0.00  0.00    +0.029 HD
ATOM    140  H   UNL     1     158.205 161.682 192.217  0.00  0.00    +0.029 HD
BRANCH 138 143
ATOM    141  C   UNL     1     158.457 158.960 191.683  0.00  0.00    +0.059 C 
ATOM    142  O   UNL     1     159.717 159.553 191.352  0.00  0.00    -0.373 OA
ATOM    143  C   UNL     1     160.118 160.637 192.197  0.00  0.00    +0.061 C 
ATOM    144  C   UNL     1     160.155 160.182 193.657  0.00  0.00    -0.000 C 
ATOM    145  C   UNL     1     158.832 159.554 194.089  0.00  0.00    +0.063 C 
ATOM    146  C   UNL     1     158.460 158.439 193.115  0.00  0.00    -0.000 C 
ATOM    147  H   UNL     1     157.665 159.703 191.546  0.00  0.00    +0.059 HD
ATOM    148  H   UNL     1     161.144 160.888 191.896  0.00  0.00    +0.060 HD
ATOM    149  H   UNL     1     160.953 159.434 193.775  0.00  0.00    +0.032 HD
ATOM    150  H   UNL     1     160.422 161.013 194.320  0.00  0.00    +0.032 HD
ATOM    151  H   UNL     1     158.052 160.324 194.099  0.00  0.00    +0.060 HD
ATOM    152  H   UNL     1     157.482 158.010 193.366  0.00  0.00    +0.032 HD
ATOM    153  H   UNL     1     159.189 157.622 193.221  0.00  0.00    +0.032 HD
BRANCH 141 154
ATOM    154  C   UNL     1     158.215 157.833 190.691  0.00  0.00    -0.039 C 
ATOM    155  H   UNL     1     157.855 158.213 189.730  0.00  0.00    +0.025 HD
ATOM    156  H   UNL     1     159.139 157.268 190.518  0.00  0.00    +0.025 HD
ATOM    157  H   UNL     1     157.483 157.118 191.083  0.00  0.00    +0.025 HD
ENDBRANCH 141 154
BRANCH 145 158
ATOM    158  O   UNL     1     159.007 159.066 195.423  0.00  0.00    -0.380 OA
BRANCH 158 159
ATOM    159  C   UNL     1     158.436 159.913 196.412  0.00  0.00    +0.037 C 
ATOM    160  H   UNL     1     158.715 160.943 196.177  0.00  0.00    +0.052 HD
ATOM    161  H   UNL     1     158.830 159.671 197.400  0.00  0.00    +0.052 HD
ATOM    162  H   UNL     1     157.344 159.847 196.414  0.00  0.00    +0.052 HD
ENDBRANCH 158 159
ENDBRANCH 145 158
ENDBRANCH 138 143
ENDBRANCH 135 138
ENDBRANCH 129 135
ENDBRANCH 127 129
BRANCH 127 163
ATOM    163  O   UNL     1     155.864 162.066 190.589  0.00  0.00    -0.391 OA
ATOM    164  H   UNL     1     155.663 161.398 189.913  0.00  0.00    +0.210 HD
ENDBRANCH 127 163
ENDBRANCH 121 127
ENDBRANCH   1 121
BRANCH  41 165
ATOM    165  O   UNL     1     154.560 162.173 184.958  0.00  0.00    -0.391 OA
ATOM    166  H   UNL     1     154.698 163.064 184.588  0.00  0.00    +0.210 HD
ENDBRANCH  41 165
BRANCH  39 167
ATOM    167  O   UNL     1     152.527 160.959 186.371  0.00  0.00    -0.391 OA
ATOM    168  H   UNL     1     152.853 161.507 185.625  0.00  0.00    +0.210 HD
ENDBRANCH  39 167
BRANCH  31 169
ATOM    169  O   UNL     1     145.363 159.063 190.339  0.00  0.00    -0.391 OA
ATOM    170  H   UNL     1     145.075 159.455 189.495  0.00  0.00    +0.210 HD
ENDBRANCH  31 169
BRANCH  22 171
ATOM    171  C   UNL     1     149.491 162.310 183.360  0.00  0.00    +0.020 C 
ATOM    172  H   UNL     1     149.094 162.985 184.120  0.00  0.00    +0.036 HD
BRANCH 171 173
ATOM    173  C   UNL     1     150.493 161.434 184.137  0.00  0.00    -0.057 C 
ATOM    174  H   UNL     1     149.971 160.700 184.761  0.00  0.00    +0.023 HD
ATOM    175  H   UNL     1     151.142 160.874 183.452  0.00  0.00    +0.023 HD
ATOM    176  H   UNL     1     151.148 162.038 184.772  0.00  0.00    +0.023 HD
ENDBRANCH 171 173
BRANCH 171 177
ATOM    177  C   UNL     1     150.303 163.141 182.306  0.00  0.00    +0.064 C 
ATOM    178  H   UNL     1     151.331 162.754 182.262  0.00  0.00    +0.060 HD
BRANCH 177 179
ATOM    179  O   UNL     1     149.780 162.947 180.993  0.00  0.00    -0.391 OA
ATOM    180  H   UNL     1     150.030 162.051 180.704  0.00  0.00    +0.210 HD
ENDBRANCH 177 179
BRANCH 177 181
ATOM    181  C   UNL     1     150.382 164.676 182.619  0.00  0.00    -0.017 C 
ATOM    182  H   UNL     1     151.017 164.808 183.506  0.00  0.00    +0.032 HD
BRANCH 181 183
ATOM    183  C   UNL     1     151.000 165.452 181.444  0.00  0.00    -0.060 C 
ATOM    184  H   UNL     1     150.230 166.062 180.961  0.00  0.00    +0.023 HD
ATOM    185  H   UNL     1     151.442 164.798 180.688  0.00  0.00    +0.023 HD
ATOM    186  H   UNL     1     151.813 166.103 181.772  0.00  0.00    +0.023 HD
ENDBRANCH 181 183
BRANCH 181 187
ATOM    187  C   UNL     1     148.977 165.257 182.961  0.00  0.00    -0.046 C 
ATOM    188  H   UNL     1     148.225 164.476 182.823  0.00  0.00    +0.027 HD
ATOM    189  H   UNL     1     148.761 166.057 182.242  0.00  0.00    +0.027 HD
BRANCH 187 190
ATOM    190  C   UNL     1     148.850 165.811 184.394  0.00  0.00    -0.026 C 
ATOM    191  H   UNL     1     147.804 165.724 184.701  0.00  0.00    +0.029 HD
ATOM    192  H   UNL     1     149.093 166.880 184.379  0.00  0.00    +0.029 HD
BRANCH 190 193
ATOM    193  C   UNL     1     149.665 165.133 185.517  0.00  0.00    +0.061 C 
ATOM    194  O   UNL     1     148.860 164.704 186.616  0.00  0.00    -0.373 OA
ATOM    195  C   UNL     1     148.606 165.665 187.633  0.00  0.00    +0.059 C 
ATOM    196  C   UNL     1     149.898 166.246 188.190  0.00  0.00    -0.000 C 
ATOM    197  C   UNL     1     150.731 166.866 187.063  0.00  0.00    +0.063 C 
ATOM    198  C   UNL     1     150.950 165.834 185.959  0.00  0.00    -0.000 C 
ATOM    199  H   UNL     1     149.992 164.187 185.064  0.00  0.00    +0.060 HD
ATOM    200  H   UNL     1     147.972 166.459 187.224  0.00  0.00    +0.059 HD
ATOM    201  H   UNL     1     149.674 166.996 188.956  0.00  0.00    +0.032 HD
ATOM    202  H   UNL     1     150.498 165.470 188.679  0.00  0.00    +0.032 HD
ATOM    203  H   UNL     1     150.211 167.739 186.663  0.00  0.00    +0.060 HD
ATOM    204  H   UNL     1     151.629 165.069 186.364  0.00  0.00    +0.032 HD
ATOM    205  H   UNL     1     151.482 166.274 185.107  0.00  0.00    +0.032 HD
BRANCH 195 206
ATOM    206  C   UNL     1     147.828 164.962 188.739  0.00  0.00    -0.039 C 
ATOM    207  H   UNL     1     147.478 163.983 188.408  0.00  0.00    +0.025 HD
ATOM    208  H   UNL     1     148.451 164.828 189.626  0.00  0.00    +0.025 HD
ATOM    209  H   UNL     1     146.964 165.554 189.048  0.00  0.00    +0.025 HD
ENDBRANCH 195 206
BRANCH 197 210
ATOM    210  O   UNL     1     152.028 167.294 187.498  0.00  0.00    -0.380 OA
BRANCH 210 211
ATOM    211  C   UNL     1     152.083 167.689 188.860  0.00  0.00    +0.037 C 
ATOM    212  H   UNL     1     151.090 167.626 189.307  0.00  0.00    +0.052 HD
ATOM    213  H   UNL     1     152.732 166.990 189.393  0.00  0.00    +0.052 HD
ATOM    214  H   UNL     1     152.488 168.697 188.966  0.00  0.00    +0.052 HD
ENDBRANCH 210 211
ENDBRANCH 197 210
ENDBRANCH 190 193
ENDBRANCH 187 190
ENDBRANCH 181 187
ENDBRANCH 177 181
ENDBRANCH 171 177
ENDBRANCH  22 171
BRANCH  20 215
ATOM    215  O   UNL     1     146.027 161.703 185.052  0.00  0.00    -0.391 OA
ATOM    216  H   UNL     1     146.221 161.967 185.967  0.00  0.00    +0.210 HD
ENDBRANCH  20 215
BRANCH  18 217
ATOM    217  O   UNL     1     145.438 163.837 186.561  0.00  0.00    -0.391 OA
ATOM    218  H   UNL     1     145.403 164.397 187.367  0.00  0.00    +0.210 HD
ENDBRANCH  18 217
BRANCH  10 219
ATOM    219  O   UNL     1     148.093 169.782 192.478  0.00  0.00    -0.391 OA
ATOM    220  H   UNL     1     147.842 170.494 191.864  0.00  0.00    +0.210 HD
ENDBRANCH  10 219
BRANCH  37 221
ATOM    221  O   UNL     1     151.495 157.720 188.887  0.00  0.00    -0.379 OA
BRANCH 221 222
ATOM    222  C   UNL     1     150.977 156.588 188.200  0.00  0.00    +0.037 C 
ATOM    223  H   UNL     1     151.779 156.057 187.675  0.00  0.00    +0.052 HD
ATOM    224  H   UNL     1     150.200 156.880 187.488  0.00  0.00    +0.052 HD
ATOM    225  H   UNL     1     150.532 155.906 188.933  0.00  0.00    +0.052 HD
ENDBRANCH 221 222
ENDBRANCH  37 221
BRANCH  16 226
ATOM    226  O   UNL     1     143.930 165.641 188.011  0.00  0.00    -0.379 OA
BRANCH 226 227
ATOM    227  C   UNL     1     142.570 165.330 188.270  0.00  0.00    +0.037 C 
ATOM    228  H   UNL     1     142.526 164.301 188.636  0.00  0.00    +0.052 HD
ATOM    229  H   UNL     1     142.156 165.984 189.046  0.00  0.00    +0.052 HD
ATOM    230  H   UNL     1     141.967 165.388 187.360  0.00  0.00    +0.052 HD
ENDBRANCH 226 227
ENDBRANCH  16 226
TORSDOF 40
ENDMDL
MODEL 3
REMARK VINA RESULT:      -5.1      2.784     10.577
REMARK  Name = Swinholide A_conf2
REMARK  40 active torsions:
REMARK  status: ('A' for Active; 'I' for Inactive)
REMARK    1  A    between atoms: C_1  and  C_2
REMARK    2  A    between atoms: C_4  and  C_10
REMARK    3  A    between atoms: C_6  and  O_8
REMARK    4  A    between atoms: O_8  and  C_9
REMARK    5  A    between atoms: C_10  and  C_11
REMARK    6  A    between atoms: C_11  and  C_12
REMARK    7  A    between atoms: C_12  and  C_13
REMARK    8  A    between atoms: C_12  and  C_98
REMARK    9  A    between atoms: C_13  and  O_14
REMARK   10  A    between atoms: C_13  and  C_15
REMARK   11  A    between atoms: C_15  and  C_16
REMARK   12  A    between atoms: C_15  and  C_97
REMARK   13  A    between atoms: C_22  and  C_96
REMARK   14  A    between atoms: C_25  and  O_95
REMARK   15  A    between atoms: C_31  and  O_90
REMARK   16  A    between atoms: C_32  and  C_89
REMARK   17  A    between atoms: C_33  and  O_88
REMARK   18  A    between atoms: C_35  and  O_87
REMARK   19  A    between atoms: C_36  and  C_86
REMARK   20  A    between atoms: C_37  and  C_69
REMARK   21  A    between atoms: C_43  and  C_68
REMARK   22  A    between atoms: C_46  and  O_67
REMARK   23  A    between atoms: C_52  and  O_62
REMARK   24  A    between atoms: C_53  and  C_61
REMARK   25  A    between atoms: C_54  and  O_60
REMARK   26  A    between atoms: C_56  and  O_59
REMARK   27  A    between atoms: C_57  and  C_58
REMARK   28  A    between atoms: O_62  and  C_63
REMARK   29  A    between atoms: C_69  and  C_70
REMARK   30  A    between atoms: C_69  and  C_85
REMARK   31  A    between atoms: C_70  and  O_71
REMARK   32  A    between atoms: C_70  and  C_72
REMARK   33  A    between atoms: C_72  and  C_73
REMARK   34  A    between atoms: C_72  and  C_84
REMARK   35  A    between atoms: C_73  and  C_74
REMARK   36  A    between atoms: C_74  and  C_75
REMARK   37  A    between atoms: C_77  and  C_83
REMARK   38  A    between atoms: C_79  and  O_81
REMARK   39  A    between atoms: O_81  and  C_82
REMARK   40  A    between atoms: O_90  and  C_91
REMARK                            x       y       z     vdW  Elec       q    Type
REMARK                         _______ _______ _______ _____ _____    ______ ____
ROOT
ATOM      1  C   UNL     1     155.060 163.362 188.521  0.00  0.00    +0.113 C 
ATOM      2  O   UNL     1     154.080 164.196 189.193  0.00  0.00    -0.458 OA
ATOM      3  C   UNL     1     153.175 163.547 189.963  0.00  0.00    +0.332 C 
ATOM      4  O   UNL     1     153.118 162.349 190.179  0.00  0.00    -0.246 OA
ATOM      5  C   UNL     1     152.206 164.536 190.487  0.00  0.00    +0.023 C 
ATOM      6  C   UNL     1     151.267 164.134 191.358  0.00  0.00    -0.052 C 
ATOM      7  C   UNL     1     150.191 164.953 191.903  0.00  0.00    -0.054 C 
ATOM      8  C   UNL     1     150.328 166.275 192.127  0.00  0.00    -0.079 C 
ATOM      9  C   UNL     1     149.300 167.186 192.750  0.00  0.00    -0.008 C 
ATOM     10  C   UNL     1     148.752 168.268 191.796  0.00  0.00    +0.061 C 
ATOM     11  C   UNL     1     147.836 167.682 190.709  0.00  0.00    +0.003 C 
ATOM     12  C   UNL     1     147.083 168.737 189.871  0.00  0.00    +0.080 C 
ATOM     13  O   UNL     1     146.775 168.216 188.559  0.00  0.00    -0.369 OA
ATOM     14  C   UNL     1     145.637 167.333 188.531  0.00  0.00    +0.065 C 
ATOM     15  C   UNL     1     145.549 166.769 187.101  0.00  0.00    +0.000 C 
ATOM     16  C   UNL     1     144.312 165.884 186.826  0.00  0.00    +0.066 C 
ATOM     17  C   UNL     1     144.391 165.112 185.464  0.00  0.00    +0.009 C 
ATOM     18  C   UNL     1     145.644 164.213 185.319  0.00  0.00    +0.063 C 
ATOM     19  C   UNL     1     145.667 163.392 184.006  0.00  0.00    -0.000 C 
ATOM     20  C   UNL     1     146.841 162.400 184.029  0.00  0.00    +0.064 C 
ATOM     21  C   UNL     1     147.313 161.938 182.625  0.00  0.00    +0.020 C 
ATOM     22  C   UNL     1     148.725 161.271 182.657  0.00  0.00    +0.113 C 
ATOM     23  O   UNL     1     148.560 160.105 183.512  0.00  0.00    -0.458 OA
ATOM     24  C   UNL     1     149.105 158.921 183.162  0.00  0.00    +0.332 C 
ATOM     25  O   UNL     1     149.894 158.720 182.238  0.00  0.00    -0.246 OA
ATOM     26  C   UNL     1     148.638 157.838 184.054  0.00  0.00    +0.023 C 
ATOM     27  C   UNL     1     147.885 158.050 185.154  0.00  0.00    -0.052 C 
ATOM     28  C   UNL     1     147.391 157.056 186.103  0.00  0.00    -0.054 C 
ATOM     29  C   UNL     1     146.738 157.498 187.199  0.00  0.00    -0.079 C 
ATOM     30  C   UNL     1     146.209 156.698 188.355  0.00  0.00    -0.008 C 
ATOM     31  C   UNL     1     146.564 157.232 189.758  0.00  0.00    +0.061 C 
ATOM     32  C   UNL     1     148.059 157.252 190.136  0.00  0.00    +0.003 C 
ATOM     33  C   UNL     1     148.949 158.462 189.786  0.00  0.00    +0.080 C 
ATOM     34  O   UNL     1     149.200 158.503 188.378  0.00  0.00    -0.369 OA
ATOM     35  C   UNL     1     149.886 159.670 187.914  0.00  0.00    +0.065 C 
ATOM     36  C   UNL     1     151.342 159.765 188.404  0.00  0.00    +0.000 C 
ATOM     37  C   UNL     1     152.234 158.669 187.772  0.00  0.00    +0.066 C 
ATOM     38  C   UNL     1     153.724 159.113 187.736  0.00  0.00    +0.009 C 
ATOM     39  C   UNL     1     154.053 160.017 186.511  0.00  0.00    +0.063 C 
ATOM     40  C   UNL     1     155.381 160.797 186.700  0.00  0.00    -0.000 C 
ATOM     41  C   UNL     1     155.434 162.243 186.188  0.00  0.00    +0.064 C 
ATOM     42  C   UNL     1     154.645 163.286 187.019  0.00  0.00    +0.020 C 
ATOM     43  C   UNL     1     149.057 160.929 188.223  0.00  0.00    -0.008 C 
ATOM     44  C   UNL     1     148.464 160.910 189.599  0.00  0.00    -0.083 C 
ATOM     45  C   UNL     1     148.432 159.778 190.307  0.00  0.00    -0.059 C 
ATOM     46  C   UNL     1     144.365 168.092 188.937  0.00  0.00    -0.008 C 
ATOM     47  C   UNL     1     144.593 168.951 190.143  0.00  0.00    -0.083 C 
ATOM     48  C   UNL     1     145.833 169.251 190.547  0.00  0.00    -0.059 C 
ATOM     49  H   UNL     1     154.979 162.343 188.896  0.00  0.00    +0.074 HD
ATOM     50  H   UNL     1     152.279 165.546 190.114  0.00  0.00    +0.069 HD
ATOM     51  H   UNL     1     151.249 163.089 191.666  0.00  0.00    +0.062 HD
ATOM     52  H   UNL     1     151.276 166.761 191.901  0.00  0.00    +0.058 HD
ATOM     53  H   UNL     1     149.781 167.677 193.606  0.00  0.00    +0.033 HD
ATOM     54  H   UNL     1     148.464 166.635 193.189  0.00  0.00    +0.033 HD
ATOM     55  H   UNL     1     149.584 168.792 191.319  0.00  0.00    +0.060 HD
ATOM     56  H   UNL     1     148.433 167.051 190.041  0.00  0.00    +0.032 HD
ATOM     57  H   UNL     1     147.102 167.012 191.171  0.00  0.00    +0.032 HD
ATOM     58  H   UNL     1     147.746 169.588 189.686  0.00  0.00    +0.064 HD
ATOM     59  H   UNL     1     145.824 166.502 189.222  0.00  0.00    +0.060 HD
ATOM     60  H   UNL     1     145.577 167.591 186.375  0.00  0.00    +0.032 HD
ATOM     61  H   UNL     1     146.472 166.200 186.940  0.00  0.00    +0.032 HD
ATOM     62  H   UNL     1     143.436 166.548 186.782  0.00  0.00    +0.060 HD
ATOM     63  H   UNL     1     143.521 164.449 185.425  0.00  0.00    +0.035 HD
ATOM     64  H   UNL     1     146.546 164.837 185.312  0.00  0.00    +0.060 HD
ATOM     65  H   UNL     1     145.768 164.073 183.151  0.00  0.00    +0.032 HD
ATOM     66  H   UNL     1     144.724 162.847 183.899  0.00  0.00    +0.032 HD
ATOM     67  H   UNL     1     147.668 162.900 184.534  0.00  0.00    +0.060 HD
ATOM     68  H   UNL     1     147.360 162.832 181.996  0.00  0.00    +0.036 HD
ATOM     69  H   UNL     1     148.985 160.948 181.641  0.00  0.00    +0.074 HD
ATOM     70  H   UNL     1     148.976 156.850 183.767  0.00  0.00    +0.069 HD
ATOM     71  H   UNL     1     147.632 159.080 185.407  0.00  0.00    +0.062 HD
ATOM     72  H   UNL     1     146.596 158.575 187.315  0.00  0.00    +0.058 HD
ATOM     73  H   UNL     1     145.115 156.690 188.259  0.00  0.00    +0.033 HD
ATOM     74  H   UNL     1     146.536 155.658 188.304  0.00  0.00    +0.033 HD
ATOM     75  H   UNL     1     146.108 156.507 190.444  0.00  0.00    +0.060 HD
ATOM     76  H   UNL     1     148.528 156.349 189.725  0.00  0.00    +0.032 HD
ATOM     77  H   UNL     1     148.104 157.150 191.225  0.00  0.00    +0.032 HD
ATOM     78  H   UNL     1     149.908 158.267 190.278  0.00  0.00    +0.064 HD
ATOM     79  H   UNL     1     149.917 159.588 186.819  0.00  0.00    +0.060 HD
ATOM     80  H   UNL     1     151.393 159.694 189.496  0.00  0.00    +0.032 HD
ATOM     81  H   UNL     1     151.715 160.763 188.149  0.00  0.00    +0.032 HD
ATOM     82  H   UNL     1     151.908 158.450 186.747  0.00  0.00    +0.060 HD
ATOM     83  H   UNL     1     153.912 159.680 188.656  0.00  0.00    +0.035 HD
ATOM     84  H   UNL     1     154.166 159.368 185.632  0.00  0.00    +0.060 HD
ATOM     85  H   UNL     1     156.153 160.225 186.163  0.00  0.00    +0.032 HD
ATOM     86  H   UNL     1     155.700 160.759 187.743  0.00  0.00    +0.032 HD
ATOM     87  H   UNL     1     156.478 162.566 186.144  0.00  0.00    +0.060 HD
ATOM     88  H   UNL     1     153.585 162.996 187.021  0.00  0.00    +0.036 HD
ATOM     89  H   UNL     1     149.662 161.833 188.090  0.00  0.00    +0.033 HD
ATOM     90  H   UNL     1     148.217 160.989 187.520  0.00  0.00    +0.033 HD
ATOM     91  H   UNL     1     148.027 161.825 189.986  0.00  0.00    +0.057 HD
ATOM     92  H   UNL     1     147.994 159.781 191.305  0.00  0.00    +0.059 HD
ATOM     93  H   UNL     1     144.021 168.735 188.120  0.00  0.00    +0.033 HD
ATOM     94  H   UNL     1     143.562 167.379 189.153  0.00  0.00    +0.033 HD
ATOM     95  H   UNL     1     143.731 169.344 190.666  0.00  0.00    +0.057 HD
ATOM     96  H   UNL     1     145.968 169.882 191.422  0.00  0.00    +0.059 HD
ENDROOT
BRANCH  28  97
ATOM     97  C   UNL     1     147.661 155.603 185.804  0.00  0.00    -0.040 C 
ATOM     98  H   UNL     1     148.682 155.339 186.097  0.00  0.00    +0.028 HD
ATOM     99  H   UNL     1     147.585 155.352 184.742  0.00  0.00    +0.028 HD
ATOM    100  H   UNL     1     146.960 154.956 186.343  0.00  0.00    +0.028 HD
ENDBRANCH  28  97
BRANCH  21 101
ATOM    101  C   UNL     1     146.308 160.996 181.949  0.00  0.00    -0.057 C 
ATOM    102  H   UNL     1     145.311 161.440 181.912  0.00  0.00    +0.023 HD
ATOM    103  H   UNL     1     146.616 160.789 180.922  0.00  0.00    +0.023 HD
ATOM    104  H   UNL     1     146.224 160.034 182.464  0.00  0.00    +0.023 HD
ENDBRANCH  21 101
BRANCH  42 105
ATOM    105  C   UNL     1     154.632 164.646 186.300  0.00  0.00    -0.057 C 
ATOM    106  H   UNL     1     155.469 165.272 186.612  0.00  0.00    +0.023 HD
ATOM    107  H   UNL     1     153.694 165.184 186.458  0.00  0.00    +0.023 HD
ATOM    108  H   UNL     1     154.744 164.499 185.223  0.00  0.00    +0.023 HD
ENDBRANCH  42 105
BRANCH  17 109
ATOM    109  C   UNL     1     144.262 166.085 184.286  0.00  0.00    -0.058 C 
ATOM    110  H   UNL     1     143.254 166.494 184.216  0.00  0.00    +0.023 HD
ATOM    111  H   UNL     1     144.460 165.569 183.341  0.00  0.00    +0.023 HD
ATOM    112  H   UNL     1     144.965 166.914 184.367  0.00  0.00    +0.023 HD
ENDBRANCH  17 109
BRANCH  38 113
ATOM    113  C   UNL     1     154.706 157.927 187.746  0.00  0.00    -0.058 C 
ATOM    114  H   UNL     1     155.329 157.911 188.648  0.00  0.00    +0.023 HD
ATOM    115  H   UNL     1     154.162 156.970 187.694  0.00  0.00    +0.023 HD
ATOM    116  H   UNL     1     155.387 157.966 186.891  0.00  0.00    +0.023 HD
ENDBRANCH  38 113
BRANCH   7 117
ATOM    117  C   UNL     1     148.934 164.188 192.229  0.00  0.00    -0.040 C 
ATOM    118  H   UNL     1     148.943 163.214 191.733  0.00  0.00    +0.028 HD
ATOM    119  H   UNL     1     148.042 164.728 191.897  0.00  0.00    +0.028 HD
ATOM    120  H   UNL     1     148.816 164.031 193.308  0.00  0.00    +0.028 HD
ENDBRANCH   7 117
BRANCH   1 121
ATOM    121  C   UNL     1     156.502 163.839 188.866  0.00  0.00    +0.020 C 
ATOM    122  H   UNL     1     157.118 163.775 187.963  0.00  0.00    +0.036 HD
BRANCH 121 123
ATOM    123  C   UNL     1     156.577 165.304 189.334  0.00  0.00    -0.057 C 
ATOM    124  H   UNL     1     155.589 165.748 189.480  0.00  0.00    +0.023 HD
ATOM    125  H   UNL     1     157.129 165.390 190.275  0.00  0.00    +0.023 HD
ATOM    126  H   UNL     1     157.135 165.915 188.621  0.00  0.00    +0.023 HD
ENDBRANCH 121 123
BRANCH 121 127
ATOM    127  C   UNL     1     157.184 162.951 189.961  0.00  0.00    +0.064 C 
ATOM    128  H   UNL     1     157.550 163.607 190.761  0.00  0.00    +0.060 HD
BRANCH 127 129
ATOM    129  C   UNL     1     158.395 162.098 189.482  0.00  0.00    -0.017 C 
ATOM    130  H   UNL     1     158.203 161.042 189.693  0.00  0.00    +0.032 HD
BRANCH 129 131
ATOM    131  C   UNL     1     158.631 162.254 187.976  0.00  0.00    -0.060 C 
ATOM    132  H   UNL     1     158.142 163.143 187.569  0.00  0.00    +0.023 HD
ATOM    133  H   UNL     1     159.700 162.323 187.747  0.00  0.00    +0.023 HD
ATOM    134  H   UNL     1     158.224 161.396 187.429  0.00  0.00    +0.023 HD
ENDBRANCH 129 131
BRANCH 129 135
ATOM    135  C   UNL     1     159.720 162.456 190.204  0.00  0.00    -0.046 C 
ATOM    136  H   UNL     1     160.354 161.561 190.202  0.00  0.00    +0.027 HD
ATOM    137  H   UNL     1     160.267 163.222 189.642  0.00  0.00    +0.027 HD
BRANCH 135 138
ATOM    138  C   UNL     1     159.544 162.925 191.655  0.00  0.00    -0.026 C 
ATOM    139  H   UNL     1     159.584 164.017 191.699  0.00  0.00    +0.029 HD
ATOM    140  H   UNL     1     158.549 162.627 192.007  0.00  0.00    +0.029 HD
BRANCH 138 143
ATOM    141  C   UNL     1     160.735 164.206 194.160  0.00  0.00    +0.059 C 
ATOM    142  O   UNL     1     160.468 162.817 193.941  0.00  0.00    -0.373 OA
ATOM    143  C   UNL     1     160.634 162.373 192.590  0.00  0.00    +0.061 C 
ATOM    144  C   UNL     1     162.049 162.687 192.101  0.00  0.00    -0.000 C 
ATOM    145  C   UNL     1     162.399 164.163 192.287  0.00  0.00    +0.063 C 
ATOM    146  C   UNL     1     162.156 164.561 193.740  0.00  0.00    -0.000 C 
ATOM    147  H   UNL     1     160.008 164.803 193.600  0.00  0.00    +0.059 HD
ATOM    148  H   UNL     1     160.521 161.281 192.617  0.00  0.00    +0.060 HD
ATOM    149  H   UNL     1     162.765 162.083 192.677  0.00  0.00    +0.032 HD
ATOM    150  H   UNL     1     162.179 162.389 191.055  0.00  0.00    +0.032 HD
ATOM    151  H   UNL     1     161.776 164.769 191.618  0.00  0.00    +0.060 HD
ATOM    152  H   UNL     1     162.340 165.632 193.888  0.00  0.00    +0.032 HD
ATOM    153  H   UNL     1     162.883 164.034 194.375  0.00  0.00    +0.032 HD
BRANCH 141 154
ATOM    154  C   UNL     1     160.518 164.478 195.641  0.00  0.00    -0.039 C 
ATOM    155  H   UNL     1     159.651 165.126 195.808  0.00  0.00    +0.025 HD
ATOM    156  H   UNL     1     160.362 163.539 196.185  0.00  0.00    +0.025 HD
ATOM    157  H   UNL     1     161.401 164.951 196.085  0.00  0.00    +0.025 HD
ENDBRANCH 141 154
BRANCH 145 158
ATOM    158  O   UNL     1     163.768 164.327 191.906  0.00  0.00    -0.380 OA
BRANCH 158 159
ATOM    159  C   UNL     1     163.930 164.805 190.576  0.00  0.00    +0.037 C 
ATOM    160  H   UNL     1     163.083 165.455 190.344  0.00  0.00    +0.052 HD
ATOM    161  H   UNL     1     163.927 163.976 189.866  0.00  0.00    +0.052 HD
ATOM    162  H   UNL     1     164.848 165.390 190.470  0.00  0.00    +0.052 HD
ENDBRANCH 158 159
ENDBRANCH 145 158
ENDBRANCH 138 143
ENDBRANCH 135 138
ENDBRANCH 129 135
ENDBRANCH 127 129
BRANCH 127 163
ATOM    163  O   UNL     1     156.209 162.095 190.552  0.00  0.00    -0.391 OA
ATOM    164  H   UNL     1     156.668 161.333 190.940  0.00  0.00    +0.210 HD
ENDBRANCH 127 163
ENDBRANCH 121 127
ENDBRANCH   1 121
BRANCH  41 165
ATOM    165  O   UNL     1     154.941 162.246 184.838  0.00  0.00    -0.391 OA
ATOM    166  H   UNL     1     154.206 162.884 184.801  0.00  0.00    +0.210 HD
ENDBRANCH  41 165
BRANCH  39 167
ATOM    167  O   UNL     1     152.973 160.876 186.199  0.00  0.00    -0.391 OA
ATOM    168  H   UNL     1     152.685 161.296 187.038  0.00  0.00    +0.210 HD
ENDBRANCH  39 167
BRANCH  31 169
ATOM    169  O   UNL     1     145.911 158.460 190.066  0.00  0.00    -0.391 OA
ATOM    170  H   UNL     1     146.577 159.093 190.389  0.00  0.00    +0.210 HD
ENDBRANCH  31 169
BRANCH  22 171
ATOM    171  C   UNL     1     149.877 162.165 183.222  0.00  0.00    +0.020 C 
ATOM    172  H   UNL     1     149.441 162.790 184.004  0.00  0.00    +0.036 HD
BRANCH 171 173
ATOM    173  C   UNL     1     150.922 161.318 183.974  0.00  0.00    -0.057 C 
ATOM    174  H   UNL     1     150.436 160.575 184.618  0.00  0.00    +0.023 HD
ATOM    175  H   UNL     1     151.563 160.769 183.273  0.00  0.00    +0.023 HD
ATOM    176  H   UNL     1     151.582 161.941 184.585  0.00  0.00    +0.023 HD
ENDBRANCH 171 173
BRANCH 171 177
ATOM    177  C   UNL     1     150.645 163.074 182.202  0.00  0.00    +0.064 C 
ATOM    178  H   UNL     1     151.693 162.744 182.149  0.00  0.00    +0.060 HD
BRANCH 177 179
ATOM    179  O   UNL     1     150.137 162.898 180.881  0.00  0.00    -0.391 OA
ATOM    180  H   UNL     1     150.285 161.970 180.627  0.00  0.00    +0.210 HD
ENDBRANCH 177 179
BRANCH 177 181
ATOM    181  C   UNL     1     150.641 164.599 182.568  0.00  0.00    -0.017 C 
ATOM    182  H   UNL     1     151.261 164.733 183.466  0.00  0.00    +0.032 HD
BRANCH 181 183
ATOM    183  C   UNL     1     151.229 165.447 181.426  0.00  0.00    -0.060 C 
ATOM    184  H   UNL     1     150.806 165.119 180.471  0.00  0.00    +0.023 HD
ATOM    185  H   UNL     1     152.317 165.376 181.361  0.00  0.00    +0.023 HD
ATOM    186  H   UNL     1     151.016 166.509 181.561  0.00  0.00    +0.023 HD
ENDBRANCH 181 183
BRANCH 181 187
ATOM    187  C   UNL     1     149.206 165.095 182.915  0.00  0.00    -0.046 C 
ATOM    188  H   UNL     1     148.500 164.272 182.771  0.00  0.00    +0.027 HD
ATOM    189  H   UNL     1     148.942 165.886 182.203  0.00  0.00    +0.027 HD
BRANCH 187 190
ATOM    190  C   UNL     1     149.048 165.629 184.352  0.00  0.00    -0.026 C 
ATOM    191  H   UNL     1     148.018 165.444 184.673  0.00  0.00    +0.029 HD
ATOM    192  H   UNL     1     149.190 166.716 184.339  0.00  0.00    +0.029 HD
BRANCH 190 193
ATOM    193  C   UNL     1     149.937 165.025 185.462  0.00  0.00    +0.061 C 
ATOM    194  O   UNL     1     149.189 164.474 186.545  0.00  0.00    -0.373 OA
ATOM    195  C   UNL     1     148.820 165.372 187.585  0.00  0.00    +0.059 C 
ATOM    196  C   UNL     1     150.032 166.089 188.162  0.00  0.00    -0.000 C 
ATOM    197  C   UNL     1     150.786 166.833 187.055  0.00  0.00    +0.063 C 
ATOM    198  C   UNL     1     151.128 165.864 185.926  0.00  0.00    -0.000 C 
ATOM    199  H   UNL     1     150.376 164.137 184.986  0.00  0.00    +0.060 HD
ATOM    200  H   UNL     1     148.096 166.093 187.194  0.00  0.00    +0.059 HD
ATOM    201  H   UNL     1     149.719 166.787 188.946  0.00  0.00    +0.032 HD
ATOM    202  H   UNL     1     150.720 165.379 188.634  0.00  0.00    +0.032 HD
ATOM    203  H   UNL     1     150.165 167.648 186.675  0.00  0.00    +0.060 HD
ATOM    204  H   UNL     1     151.893 165.176 186.314  0.00  0.00    +0.032 HD
ATOM    205  H   UNL     1     151.603 166.387 185.087  0.00  0.00    +0.032 HD
BRANCH 195 206
ATOM    206  C   UNL     1     148.132 164.552 188.670  0.00  0.00    -0.039 C 
ATOM    207  H   UNL     1     148.643 163.601 188.824  0.00  0.00    +0.025 HD
ATOM    208  H   UNL     1     148.117 165.096 189.617  0.00  0.00    +0.025 HD
ATOM    209  H   UNL     1     147.091 164.348 188.408  0.00  0.00    +0.025 HD
ENDBRANCH 195 206
BRANCH 197 210
ATOM    210  O   UNL     1     152.021 167.403 187.505  0.00  0.00    -0.380 OA
BRANCH 210 211
ATOM    211  C   UNL     1     152.117 167.541 188.915  0.00  0.00    +0.037 C 
ATOM    212  H   UNL     1     152.948 168.199 189.170  0.00  0.00    +0.052 HD
ATOM    213  H   UNL     1     151.198 168.012 189.276  0.00  0.00    +0.052 HD
ATOM    214  H   UNL     1     152.231 166.572 189.404  0.00  0.00    +0.052 HD
ENDBRANCH 210 211
ENDBRANCH 197 210
ENDBRANCH 190 193
ENDBRANCH 187 190
ENDBRANCH 181 187
ENDBRANCH 177 181
ENDBRANCH 171 177
ENDBRANCH  22 171
BRANCH  20 215
ATOM    215  O   UNL     1     146.445 161.313 184.876  0.00  0.00    -0.391 OA
ATOM    216  H   UNL     1     146.068 160.607 184.324  0.00  0.00    +0.210 HD
ENDBRANCH  20 215
BRANCH  18 217
ATOM    217  O   UNL     1     145.738 163.359 186.456  0.00  0.00    -0.391 OA
ATOM    218  H   UNL     1     146.648 163.000 186.533  0.00  0.00    +0.210 HD
ENDBRANCH  18 217
BRANCH  10 219
ATOM    219  O   UNL     1     148.051 169.229 192.587  0.00  0.00    -0.391 OA
ATOM    220  H   UNL     1     148.405 170.109 192.368  0.00  0.00    +0.210 HD
ENDBRANCH  10 219
BRANCH  37 221
ATOM    221  O   UNL     1     152.111 157.500 188.597  0.00  0.00    -0.379 OA
BRANCH 221 222
ATOM    222  C   UNL     1     151.651 156.368 187.871  0.00  0.00    +0.037 C 
ATOM    223  H   UNL     1     150.557 156.359 187.826  0.00  0.00    +0.052 HD
ATOM    224  H   UNL     1     152.009 155.437 188.321  0.00  0.00    +0.052 HD
ATOM    225  H   UNL     1     152.040 156.426 186.848  0.00  0.00    +0.052 HD
ENDBRANCH 221 222
ENDBRANCH  37 221
BRANCH  16 226
ATOM    226  O   UNL     1     144.131 165.027 187.960  0.00  0.00    -0.379 OA
BRANCH 226 227
ATOM    227  C   UNL     1     142.793 164.606 188.182  0.00  0.00    +0.037 C 
ATOM    228  H   UNL     1     142.790 163.514 188.229  0.00  0.00    +0.052 HD
ATOM    229  H   UNL     1     142.411 164.990 189.134  0.00  0.00    +0.052 HD
ATOM    230  H   UNL     1     142.139 164.908 187.359  0.00  0.00    +0.052 HD
ENDBRANCH 226 227
ENDBRANCH  16 226
TORSDOF 40
ENDMDL
MODEL 4
REMARK VINA RESULT:      -5.1      2.263      7.501
REMARK  Name = Swinholide A_conf2
REMARK  40 active torsions:
REMARK  status: ('A' for Active; 'I' for Inactive)
REMARK    1  A    between atoms: C_1  and  C_2
REMARK    2  A    between atoms: C_4  and  C_10
REMARK    3  A    between atoms: C_6  and  O_8
REMARK    4  A    between atoms: O_8  and  C_9
REMARK    5  A    between atoms: C_10  and  C_11
REMARK    6  A    between atoms: C_11  and  C_12
REMARK    7  A    between atoms: C_12  and  C_13
REMARK    8  A    between atoms: C_12  and  C_98
REMARK    9  A    between atoms: C_13  and  O_14
REMARK   10  A    between atoms: C_13  and  C_15
REMARK   11  A    between atoms: C_15  and  C_16
REMARK   12  A    between atoms: C_15  and  C_97
REMARK   13  A    between atoms: C_22  and  C_96
REMARK   14  A    between atoms: C_25  and  O_95
REMARK   15  A    between atoms: C_31  and  O_90
REMARK   16  A    between atoms: C_32  and  C_89
REMARK   17  A    between atoms: C_33  and  O_88
REMARK   18  A    between atoms: C_35  and  O_87
REMARK   19  A    between atoms: C_36  and  C_86
REMARK   20  A    between atoms: C_37  and  C_69
REMARK   21  A    between atoms: C_43  and  C_68
REMARK   22  A    between atoms: C_46  and  O_67
REMARK   23  A    between atoms: C_52  and  O_62
REMARK   24  A    between atoms: C_53  and  C_61
REMARK   25  A    between atoms: C_54  and  O_60
REMARK   26  A    between atoms: C_56  and  O_59
REMARK   27  A    between atoms: C_57  and  C_58
REMARK   28  A    between atoms: O_62  and  C_63
REMARK   29  A    between atoms: C_69  and  C_70
REMARK   30  A    between atoms: C_69  and  C_85
REMARK   31  A    between atoms: C_70  and  O_71
REMARK   32  A    between atoms: C_70  and  C_72
REMARK   33  A    between atoms: C_72  and  C_73
REMARK   34  A    between atoms: C_72  and  C_84
REMARK   35  A    between atoms: C_73  and  C_74
REMARK   36  A    between atoms: C_74  and  C_75
REMARK   37  A    between atoms: C_77  and  C_83
REMARK   38  A    between atoms: C_79  and  O_81
REMARK   39  A    between atoms: O_81  and  C_82
REMARK   40  A    between atoms: O_90  and  C_91
REMARK                            x       y       z     vdW  Elec       q    Type
REMARK                         _______ _______ _______ _____ _____    ______ ____
ROOT
ATOM      1  C   UNL     1     149.753 165.842 190.336  0.00  0.00    +0.113 C 
ATOM      2  O   UNL     1     148.969 164.624 190.431  0.00  0.00    -0.458 OA
ATOM      3  C   UNL     1     149.671 163.477 190.595  0.00  0.00    +0.332 C 
ATOM      4  O   UNL     1     150.879 163.363 190.706  0.00  0.00    -0.246 OA
ATOM      5  C   UNL     1     148.725 162.339 190.577  0.00  0.00    +0.023 C 
ATOM      6  C   UNL     1     149.184 161.101 190.818  0.00  0.00    -0.052 C 
ATOM      7  C   UNL     1     148.411 159.867 190.756  0.00  0.00    -0.054 C 
ATOM      8  C   UNL     1     147.101 159.816 191.067  0.00  0.00    -0.079 C 
ATOM      9  C   UNL     1     146.238 158.580 191.099  0.00  0.00    -0.008 C 
ATOM     10  C   UNL     1     145.116 158.562 190.040  0.00  0.00    +0.061 C 
ATOM     11  C   UNL     1     145.657 158.365 188.616  0.00  0.00    +0.003 C 
ATOM     12  C   UNL     1     144.570 158.114 187.548  0.00  0.00    +0.080 C 
ATOM     13  O   UNL     1     145.027 158.551 186.248  0.00  0.00    -0.369 OA
ATOM     14  C   UNL     1     145.923 157.628 185.601  0.00  0.00    +0.065 C 
ATOM     15  C   UNL     1     146.413 158.314 184.313  0.00  0.00    +0.000 C 
ATOM     16  C   UNL     1     147.300 157.435 183.403  0.00  0.00    +0.066 C 
ATOM     17  C   UNL     1     147.998 158.238 182.252  0.00  0.00    +0.009 C 
ATOM     18  C   UNL     1     148.871 159.419 182.746  0.00  0.00    +0.063 C 
ATOM     19  C   UNL     1     149.622 160.151 181.605  0.00  0.00    -0.000 C 
ATOM     20  C   UNL     1     150.596 161.181 182.197  0.00  0.00    +0.064 C 
ATOM     21  C   UNL     1     150.978 162.329 181.227  0.00  0.00    +0.020 C 
ATOM     22  C   UNL     1     151.626 163.546 181.962  0.00  0.00    +0.113 C 
ATOM     23  O   UNL     1     152.837 163.008 182.563  0.00  0.00    -0.458 OA
ATOM     24  C   UNL     1     153.993 163.702 182.503  0.00  0.00    +0.332 C 
ATOM     25  O   UNL     1     154.134 164.863 182.116  0.00  0.00    -0.246 OA
ATOM     26  C   UNL     1     155.128 162.883 182.982  0.00  0.00    +0.023 C 
ATOM     27  C   UNL     1     154.984 161.662 183.538  0.00  0.00    -0.052 C 
ATOM     28  C   UNL     1     156.033 160.787 184.055  0.00  0.00    -0.054 C 
ATOM     29  C   UNL     1     155.659 159.644 184.668  0.00  0.00    -0.079 C 
ATOM     30  C   UNL     1     156.525 158.626 185.352  0.00  0.00    -0.008 C 
ATOM     31  C   UNL     1     156.061 158.181 186.754  0.00  0.00    +0.061 C 
ATOM     32  C   UNL     1     156.038 159.263 187.854  0.00  0.00    +0.003 C 
ATOM     33  C   UNL     1     154.799 160.157 188.061  0.00  0.00    +0.080 C 
ATOM     34  O   UNL     1     154.682 161.099 186.991  0.00  0.00    -0.369 OA
ATOM     35  C   UNL     1     153.482 161.880 186.994  0.00  0.00    +0.065 C 
ATOM     36  C   UNL     1     153.392 162.866 188.172  0.00  0.00    +0.000 C 
ATOM     37  C   UNL     1     154.440 163.999 188.054  0.00  0.00    +0.066 C 
ATOM     38  C   UNL     1     153.974 165.274 188.813  0.00  0.00    +0.009 C 
ATOM     39  C   UNL     1     153.002 166.153 187.972  0.00  0.00    +0.063 C 
ATOM     40  C   UNL     1     152.214 167.160 188.851  0.00  0.00    -0.000 C 
ATOM     41  C   UNL     1     150.743 167.413 188.495  0.00  0.00    +0.064 C 
ATOM     42  C   UNL     1     149.756 166.268 188.834  0.00  0.00    +0.020 C 
ATOM     43  C   UNL     1     152.253 160.962 186.875  0.00  0.00    -0.008 C 
ATOM     44  C   UNL     1     152.352 159.743 187.742  0.00  0.00    -0.083 C 
ATOM     45  C   UNL     1     153.520 159.393 188.287  0.00  0.00    -0.059 C 
ATOM     46  C   UNL     1     145.205 156.300 185.315  0.00  0.00    -0.008 C 
ATOM     47  C   UNL     1     144.407 155.837 186.496  0.00  0.00    -0.083 C 
ATOM     48  C   UNL     1     144.110 156.675 187.496  0.00  0.00    -0.059 C 
ATOM     49  H   UNL     1     150.791 165.619 190.575  0.00  0.00    +0.074 HD
ATOM     50  H   UNL     1     147.695 162.555 190.333  0.00  0.00    +0.069 HD
ATOM     51  H   UNL     1     150.244 160.968 191.033  0.00  0.00    +0.062 HD
ATOM     52  H   UNL     1     146.590 160.725 191.384  0.00  0.00    +0.058 HD
ATOM     53  H   UNL     1     145.786 158.528 192.098  0.00  0.00    +0.033 HD
ATOM     54  H   UNL     1     146.823 157.659 191.020  0.00  0.00    +0.033 HD
ATOM     55  H   UNL     1     144.556 159.500 190.085  0.00  0.00    +0.060 HD
ATOM     56  H   UNL     1     146.243 159.246 188.331  0.00  0.00    +0.032 HD
ATOM     57  H   UNL     1     146.361 157.525 188.604  0.00  0.00    +0.032 HD
ATOM     58  H   UNL     1     143.701 158.743 187.765  0.00  0.00    +0.064 HD
ATOM     59  H   UNL     1     146.786 157.462 186.257  0.00  0.00    +0.060 HD
ATOM     60  H   UNL     1     145.554 158.682 183.739  0.00  0.00    +0.032 HD
ATOM     61  H   UNL     1     146.959 159.209 184.634  0.00  0.00    +0.032 HD
ATOM     62  H   UNL     1     146.647 156.683 182.935  0.00  0.00    +0.060 HD
ATOM     63  H   UNL     1     148.671 157.541 181.743  0.00  0.00    +0.035 HD
ATOM     64  H   UNL     1     148.234 160.169 183.231  0.00  0.00    +0.060 HD
ATOM     65  H   UNL     1     148.895 160.653 180.953  0.00  0.00    +0.032 HD
ATOM     66  H   UNL     1     150.174 159.422 181.005  0.00  0.00    +0.032 HD
ATOM     67  H   UNL     1     150.112 161.607 183.076  0.00  0.00    +0.060 HD
ATOM     68  H   UNL     1     150.052 162.661 180.747  0.00  0.00    +0.036 HD
ATOM     69  H   UNL     1     151.891 164.307 181.217  0.00  0.00    +0.074 HD
ATOM     70  H   UNL     1     156.094 163.360 182.875  0.00  0.00    +0.069 HD
ATOM     71  H   UNL     1     153.973 161.274 183.661  0.00  0.00    +0.062 HD
ATOM     72  H   UNL     1     154.591 159.421 184.734  0.00  0.00    +0.058 HD
ATOM     73  H   UNL     1     156.544 157.741 184.701  0.00  0.00    +0.033 HD
ATOM     74  H   UNL     1     157.556 158.972 185.440  0.00  0.00    +0.033 HD
ATOM     75  H   UNL     1     156.826 157.465 187.076  0.00  0.00    +0.060 HD
ATOM     76  H   UNL     1     156.913 159.912 187.712  0.00  0.00    +0.032 HD
ATOM     77  H   UNL     1     156.196 158.742 188.803  0.00  0.00    +0.032 HD
ATOM     78  H   UNL     1     155.006 160.729 188.972  0.00  0.00    +0.064 HD
ATOM     79  H   UNL     1     153.506 162.476 186.072  0.00  0.00    +0.060 HD
ATOM     80  H   UNL     1     153.519 162.347 189.128  0.00  0.00    +0.032 HD
ATOM     81  H   UNL     1     152.376 163.278 188.185  0.00  0.00    +0.032 HD
ATOM     82  H   UNL     1     154.611 164.260 187.001  0.00  0.00    +0.060 HD
ATOM     83  H   UNL     1     153.453 164.936 189.718  0.00  0.00    +0.035 HD
ATOM     84  H   UNL     1     153.603 166.731 187.255  0.00  0.00    +0.060 HD
ATOM     85  H   UNL     1     152.747 168.121 188.772  0.00  0.00    +0.032 HD
ATOM     86  H   UNL     1     152.303 166.894 189.906  0.00  0.00    +0.032 HD
ATOM     87  H   UNL     1     150.403 168.316 189.012  0.00  0.00    +0.060 HD
ATOM     88  H   UNL     1     150.062 165.372 188.275  0.00  0.00    +0.036 HD
ATOM     89  H   UNL     1     151.334 161.512 187.108  0.00  0.00    +0.033 HD
ATOM     90  H   UNL     1     152.168 160.605 185.840  0.00  0.00    +0.033 HD
ATOM     91  H   UNL     1     151.465 159.134 187.879  0.00  0.00    +0.057 HD
ATOM     92  H   UNL     1     153.575 158.502 188.912  0.00  0.00    +0.059 HD
ATOM     93  H   UNL     1     144.525 156.404 184.464  0.00  0.00    +0.033 HD
ATOM     94  H   UNL     1     145.940 155.530 185.056  0.00  0.00    +0.033 HD
ATOM     95  H   UNL     1     144.054 154.814 186.509  0.00  0.00    +0.057 HD
ATOM     96  H   UNL     1     143.525 156.313 188.337  0.00  0.00    +0.059 HD
ENDROOT
BRANCH  28  97
ATOM     97  C   UNL     1     157.464 161.230 183.886  0.00  0.00    -0.040 C 
ATOM     98  H   UNL     1     157.537 162.319 183.970  0.00  0.00    +0.028 HD
ATOM     99  H   UNL     1     157.888 160.981 182.909  0.00  0.00    +0.028 HD
ATOM    100  H   UNL     1     158.107 160.773 184.647  0.00  0.00    +0.028 HD
ENDBRANCH  28  97
BRANCH  21 101
ATOM    101  C   UNL     1     151.898 161.858 180.093  0.00  0.00    -0.057 C 
ATOM    102  H   UNL     1     151.329 161.638 179.186  0.00  0.00    +0.023 HD
ATOM    103  H   UNL     1     152.624 162.635 179.847  0.00  0.00    +0.023 HD
ATOM    104  H   UNL     1     152.462 160.958 180.357  0.00  0.00    +0.023 HD
ENDBRANCH  21 101
BRANCH  42 105
ATOM    105  C   UNL     1     148.361 166.576 188.264  0.00  0.00    -0.057 C 
ATOM    106  H   UNL     1     147.911 167.442 188.751  0.00  0.00    +0.023 HD
ATOM    107  H   UNL     1     147.687 165.719 188.346  0.00  0.00    +0.023 HD
ATOM    108  H   UNL     1     148.439 166.826 187.204  0.00  0.00    +0.023 HD
ENDBRANCH  42 105
BRANCH  17 109
ATOM    109  C   UNL     1     146.967 158.699 181.216  0.00  0.00    -0.058 C 
ATOM    110  H   UNL     1     146.611 159.706 181.429  0.00  0.00    +0.023 HD
ATOM    111  H   UNL     1     146.091 158.043 181.231  0.00  0.00    +0.023 HD
ATOM    112  H   UNL     1     147.376 158.685 180.206  0.00  0.00    +0.023 HD
ENDBRANCH  17 109
BRANCH  38 113
ATOM    113  C   UNL     1     155.145 166.154 189.287  0.00  0.00    -0.058 C 
ATOM    114  H   UNL     1     155.301 166.090 190.371  0.00  0.00    +0.023 HD
ATOM    115  H   UNL     1     156.083 165.856 188.792  0.00  0.00    +0.023 HD
ATOM    116  H   UNL     1     154.971 167.208 189.054  0.00  0.00    +0.023 HD
ENDBRANCH  38 113
BRANCH   7 117
ATOM    117  C   UNL     1     149.209 158.654 190.353  0.00  0.00    -0.040 C 
ATOM    118  H   UNL     1     148.562 157.774 190.299  0.00  0.00    +0.028 HD
ATOM    119  H   UNL     1     150.005 158.444 191.073  0.00  0.00    +0.028 HD
ATOM    120  H   UNL     1     149.698 158.788 189.381  0.00  0.00    +0.028 HD
ENDBRANCH   7 117
BRANCH   1 121
ATOM    121  C   UNL     1     149.275 166.877 191.396  0.00  0.00    +0.020 C 
ATOM    122  H   UNL     1     149.287 167.874 190.944  0.00  0.00    +0.036 HD
BRANCH 121 123
ATOM    123  C   UNL     1     147.832 166.645 191.884  0.00  0.00    -0.057 C 
ATOM    124  H   UNL     1     147.538 167.350 192.666  0.00  0.00    +0.023 HD
ATOM    125  H   UNL     1     147.118 166.735 191.061  0.00  0.00    +0.023 HD
ATOM    126  H   UNL     1     147.704 165.629 192.262  0.00  0.00    +0.023 HD
ENDBRANCH 121 123
BRANCH 121 127
ATOM    127  C   UNL     1     150.205 166.923 192.656  0.00  0.00    +0.064 C 
ATOM    128  H   UNL     1     149.574 167.022 193.549  0.00  0.00    +0.060 HD
BRANCH 127 129
ATOM    129  C   UNL     1     151.234 168.090 192.693  0.00  0.00    -0.017 C 
ATOM    130  H   UNL     1     151.095 168.669 193.611  0.00  0.00    +0.032 HD
BRANCH 129 131
ATOM    131  C   UNL     1     152.675 167.568 192.666  0.00  0.00    -0.060 C 
ATOM    132  H   UNL     1     153.190 167.820 191.735  0.00  0.00    +0.023 HD
ATOM    133  H   UNL     1     153.260 167.978 193.497  0.00  0.00    +0.023 HD
ATOM    134  H   UNL     1     152.693 166.476 192.748  0.00  0.00    +0.023 HD
ENDBRANCH 129 131
BRANCH 129 135
ATOM    135  C   UNL     1     151.072 169.087 191.517  0.00  0.00    -0.046 C 
ATOM    136  H   UNL     1     152.021 169.111 190.967  0.00  0.00    +0.027 HD
ATOM    137  H   UNL     1     150.316 168.725 190.810  0.00  0.00    +0.027 HD
BRANCH 135 138
ATOM    138  C   UNL     1     150.720 170.518 191.943  0.00  0.00    -0.026 C 
ATOM    139  H   UNL     1     151.480 170.898 192.631  0.00  0.00    +0.029 HD
ATOM    140  H   UNL     1     150.737 171.168 191.059  0.00  0.00    +0.029 HD
BRANCH 138 143
ATOM    141  C   UNL     1     147.961 170.975 190.712  0.00  0.00    +0.059 C 
ATOM    142  O   UNL     1     148.285 170.134 191.825  0.00  0.00    -0.373 OA
ATOM    143  C   UNL     1     149.356 170.605 192.649  0.00  0.00    +0.061 C 
ATOM    144  C   UNL     1     149.045 172.011 193.167  0.00  0.00    -0.000 C 
ATOM    145  C   UNL     1     148.707 172.972 192.029  0.00  0.00    +0.063 C 
ATOM    146  C   UNL     1     147.588 172.376 191.179  0.00  0.00    -0.000 C 
ATOM    147  H   UNL     1     148.817 171.012 190.030  0.00  0.00    +0.059 HD
ATOM    148  H   UNL     1     149.390 169.928 193.513  0.00  0.00    +0.060 HD
ATOM    149  H   UNL     1     148.181 171.955 193.845  0.00  0.00    +0.032 HD
ATOM    150  H   UNL     1     149.874 172.401 193.768  0.00  0.00    +0.032 HD
ATOM    151  H   UNL     1     149.602 173.136 191.417  0.00  0.00    +0.060 HD
ATOM    152  H   UNL     1     147.367 173.018 190.317  0.00  0.00    +0.032 HD
ATOM    153  H   UNL     1     146.668 172.344 191.781  0.00  0.00    +0.032 HD
BRANCH 141 154
ATOM    154  C   UNL     1     146.805 170.318 189.973  0.00  0.00    -0.039 C 
ATOM    155  H   UNL     1     145.986 171.022 189.799  0.00  0.00    +0.025 HD
ATOM    156  H   UNL     1     147.141 169.927 189.005  0.00  0.00    +0.025 HD
ATOM    157  H   UNL     1     146.418 169.461 190.537  0.00  0.00    +0.025 HD
ENDBRANCH 141 154
BRANCH 145 158
ATOM    158  O   UNL     1     148.327 174.218 192.622  0.00  0.00    -0.380 OA
BRANCH 158 159
ATOM    159  C   UNL     1     147.573 174.066 193.818  0.00  0.00    +0.037 C 
ATOM    160  H   UNL     1     146.560 173.762 193.543  0.00  0.00    +0.052 HD
ATOM    161  H   UNL     1     147.509 175.013 194.356  0.00  0.00    +0.052 HD
ATOM    162  H   UNL     1     147.998 173.292 194.464  0.00  0.00    +0.052 HD
ENDBRANCH 158 159
ENDBRANCH 145 158
ENDBRANCH 138 143
ENDBRANCH 135 138
ENDBRANCH 129 135
ENDBRANCH 127 129
BRANCH 127 163
ATOM    163  O   UNL     1     150.893 165.681 192.781  0.00  0.00    -0.391 OA
ATOM    164  H   UNL     1     150.919 165.441 193.721  0.00  0.00    +0.210 HD
ENDBRANCH 127 163
ENDBRANCH 121 127
ENDBRANCH   1 121
BRANCH  41 165
ATOM    165  O   UNL     1     150.677 167.691 187.087  0.00  0.00    -0.391 OA
ATOM    166  H   UNL     1     150.095 167.020 186.688  0.00  0.00    +0.210 HD
ENDBRANCH  41 165
BRANCH  39 167
ATOM    167  O   UNL     1     152.144 165.358 187.177  0.00  0.00    -0.391 OA
ATOM    168  H   UNL     1     151.644 164.773 187.786  0.00  0.00    +0.210 HD
ENDBRANCH  39 167
BRANCH  31 169
ATOM    169  O   UNL     1     154.860 157.415 186.723  0.00  0.00    -0.391 OA
ATOM    170  H   UNL     1     154.884 156.831 185.944  0.00  0.00    +0.210 HD
ENDBRANCH  31 169
BRANCH  22 171
ATOM    171  C   UNL     1     150.746 164.203 183.076  0.00  0.00    +0.020 C 
ATOM    172  H   UNL     1     150.132 163.410 183.507  0.00  0.00    +0.036 HD
BRANCH 171 173
ATOM    173  C   UNL     1     151.610 164.679 184.260  0.00  0.00    -0.057 C 
ATOM    174  H   UNL     1     151.019 165.280 184.960  0.00  0.00    +0.023 HD
ATOM    175  H   UNL     1     152.012 163.827 184.822  0.00  0.00    +0.023 HD
ATOM    176  H   UNL     1     152.468 165.268 183.921  0.00  0.00    +0.023 HD
ENDBRANCH 171 173
BRANCH 171 177
ATOM    177  C   UNL     1     149.822 165.396 182.649  0.00  0.00    +0.064 C 
ATOM    178  H   UNL     1     150.117 166.293 183.213  0.00  0.00    +0.060 HD
BRANCH 177 179
ATOM    179  O   UNL     1     150.031 165.737 181.280  0.00  0.00    -0.391 OA
ATOM    180  H   UNL     1     150.902 166.166 181.211  0.00  0.00    +0.210 HD
ENDBRANCH 177 179
BRANCH 177 181
ATOM    181  C   UNL     1     148.294 165.151 182.904  0.00  0.00    -0.017 C 
ATOM    182  H   UNL     1     148.113 165.240 183.984  0.00  0.00    +0.032 HD
BRANCH 181 183
ATOM    183  C   UNL     1     147.434 166.191 182.166  0.00  0.00    -0.060 C 
ATOM    184  H   UNL     1     148.052 167.053 181.895  0.00  0.00    +0.023 HD
ATOM    185  H   UNL     1     146.592 166.548 182.764  0.00  0.00    +0.023 HD
ATOM    186  H   UNL     1     146.989 165.778 181.259  0.00  0.00    +0.023 HD
ENDBRANCH 181 183
BRANCH 181 187
ATOM    187  C   UNL     1     147.873 163.713 182.478  0.00  0.00    -0.046 C 
ATOM    188  H   UNL     1     148.739 163.199 182.052  0.00  0.00    +0.027 HD
ATOM    189  H   UNL     1     147.120 163.804 181.686  0.00  0.00    +0.027 HD
BRANCH 187 190
ATOM    190  C   UNL     1     147.307 162.851 183.623  0.00  0.00    -0.026 C 
ATOM    191  H   UNL     1     147.591 161.810 183.439  0.00  0.00    +0.029 HD
ATOM    192  H   UNL     1     146.212 162.896 183.588  0.00  0.00    +0.029 HD
BRANCH 190 193
ATOM    193  C   UNL     1     147.769 163.152 185.066  0.00  0.00    +0.061 C 
ATOM    194  O   UNL     1     148.457 162.060 185.677  0.00  0.00    -0.373 OA
ATOM    195  C   UNL     1     147.652 161.089 186.334  0.00  0.00    +0.059 C 
ATOM    196  C   UNL     1     146.749 161.726 187.381  0.00  0.00    -0.000 C 
ATOM    197  C   UNL     1     145.870 162.805 186.739  0.00  0.00    +0.063 C 
ATOM    198  C   UNL     1     146.748 163.809 185.996  0.00  0.00    -0.000 C 
ATOM    199  H   UNL     1     148.562 163.901 184.932  0.00  0.00    +0.060 HD
ATOM    200  H   UNL     1     147.057 160.553 185.588  0.00  0.00    +0.059 HD
ATOM    201  H   UNL     1     146.127 160.961 187.858  0.00  0.00    +0.032 HD
ATOM    202  H   UNL     1     147.339 162.189 188.180  0.00  0.00    +0.032 HD
ATOM    203  H   UNL     1     145.166 162.337 186.046  0.00  0.00    +0.060 HD
ATOM    204  H   UNL     1     147.303 164.376 186.758  0.00  0.00    +0.032 HD
ATOM    205  H   UNL     1     146.139 164.550 185.466  0.00  0.00    +0.032 HD
BRANCH 195 206
ATOM    206  C   UNL     1     148.594 160.090 186.995  0.00  0.00    -0.039 C 
ATOM    207  H   UNL     1     149.216 159.590 186.250  0.00  0.00    +0.025 HD
ATOM    208  H   UNL     1     149.246 160.588 187.715  0.00  0.00    +0.025 HD
ATOM    209  H   UNL     1     148.036 159.331 187.548  0.00  0.00    +0.025 HD
ENDBRANCH 195 206
BRANCH 197 210
ATOM    210  O   UNL     1     145.106 163.547 187.698  0.00  0.00    -0.380 OA
BRANCH 210 211
ATOM    211  C   UNL     1     145.807 163.843 188.895  0.00  0.00    +0.037 C 
ATOM    212  H   UNL     1     145.194 164.470 189.542  0.00  0.00    +0.052 HD
ATOM    213  H   UNL     1     145.994 162.904 189.423  0.00  0.00    +0.052 HD
ATOM    214  H   UNL     1     146.764 164.326 188.688  0.00  0.00    +0.052 HD
ENDBRANCH 210 211
ENDBRANCH 197 210
ENDBRANCH 190 193
ENDBRANCH 187 190
ENDBRANCH 181 187
ENDBRANCH 177 181
ENDBRANCH 171 177
ENDBRANCH  22 171
BRANCH  20 215
ATOM    215  O   UNL     1     151.732 160.447 182.675  0.00  0.00    -0.391 OA
ATOM    216  H   UNL     1     151.744 159.574 182.246  0.00  0.00    +0.210 HD
ENDBRANCH  20 215
BRANCH  18 217
ATOM    217  O   UNL     1     149.781 158.944 183.733  0.00  0.00    -0.391 OA
ATOM    218  H   UNL     1     149.738 159.512 184.532  0.00  0.00    +0.210 HD
ENDBRANCH  18 217
BRANCH  10 219
ATOM    219  O   UNL     1     144.207 157.516 190.388  0.00  0.00    -0.391 OA
ATOM    220  H   UNL     1     144.562 157.062 191.173  0.00  0.00    +0.210 HD
ENDBRANCH  10 219
BRANCH  37 221
ATOM    221  O   UNL     1     155.653 163.512 188.651  0.00  0.00    -0.379 OA
BRANCH 221 222
ATOM    222  C   UNL     1     156.753 163.547 187.753  0.00  0.00    +0.037 C 
ATOM    223  H   UNL     1     156.487 163.076 186.801  0.00  0.00    +0.052 HD
ATOM    224  H   UNL     1     157.628 163.047 188.179  0.00  0.00    +0.052 HD
ATOM    225  H   UNL     1     157.015 164.593 187.560  0.00  0.00    +0.052 HD
ENDBRANCH 221 222
ENDBRANCH  37 221
BRANCH  16 226
ATOM    226  O   UNL     1     148.217 156.727 184.246  0.00  0.00    -0.379 OA
BRANCH 226 227
ATOM    227  C   UNL     1     148.705 155.508 183.705  0.00  0.00    +0.037 C 
ATOM    228  H   UNL     1     148.038 155.213 182.890  0.00  0.00    +0.052 HD
ATOM    229  H   UNL     1     149.712 155.634 183.291  0.00  0.00    +0.052 HD
ATOM    230  H   UNL     1     148.696 154.709 184.451  0.00  0.00    +0.052 HD
ENDBRANCH 226 227
ENDBRANCH  16 226
TORSDOF 40
ENDMDL
MODEL 5
REMARK VINA RESULT:      -5.1      1.457      2.342
REMARK  Name = Swinholide A_conf2
REMARK  40 active torsions:
REMARK  status: ('A' for Active; 'I' for Inactive)
REMARK    1  A    between atoms: C_1  and  C_2
REMARK    2  A    between atoms: C_4  and  C_10
REMARK    3  A    between atoms: C_6  and  O_8
REMARK    4  A    between atoms: O_8  and  C_9
REMARK    5  A    between atoms: C_10  and  C_11
REMARK    6  A    between atoms: C_11  and  C_12
REMARK    7  A    between atoms: C_12  and  C_13
REMARK    8  A    between atoms: C_12  and  C_98
REMARK    9  A    between atoms: C_13  and  O_14
REMARK   10  A    between atoms: C_13  and  C_15
REMARK   11  A    between atoms: C_15  and  C_16
REMARK   12  A    between atoms: C_15  and  C_97
REMARK   13  A    between atoms: C_22  and  C_96
REMARK   14  A    between atoms: C_25  and  O_95
REMARK   15  A    between atoms: C_31  and  O_90
REMARK   16  A    between atoms: C_32  and  C_89
REMARK   17  A    between atoms: C_33  and  O_88
REMARK   18  A    between atoms: C_35  and  O_87
REMARK   19  A    between atoms: C_36  and  C_86
REMARK   20  A    between atoms: C_37  and  C_69
REMARK   21  A    between atoms: C_43  and  C_68
REMARK   22  A    between atoms: C_46  and  O_67
REMARK   23  A    between atoms: C_52  and  O_62
REMARK   24  A    between atoms: C_53  and  C_61
REMARK   25  A    between atoms: C_54  and  O_60
REMARK   26  A    between atoms: C_56  and  O_59
REMARK   27  A    between atoms: C_57  and  C_58
REMARK   28  A    between atoms: O_62  and  C_63
REMARK   29  A    between atoms: C_69  and  C_70
REMARK   30  A    between atoms: C_69  and  C_85
REMARK   31  A    between atoms: C_70  and  O_71
REMARK   32  A    between atoms: C_70  and  C_72
REMARK   33  A    between atoms: C_72  and  C_73
REMARK   34  A    between atoms: C_72  and  C_84
REMARK   35  A    between atoms: C_73  and  C_74
REMARK   36  A    between atoms: C_74  and  C_75
REMARK   37  A    between atoms: C_77  and  C_83
REMARK   38  A    between atoms: C_79  and  O_81
REMARK   39  A    between atoms: O_81  and  C_82
REMARK   40  A    between atoms: O_90  and  C_91
REMARK                            x       y       z     vdW  Elec       q    Type
REMARK                         _______ _______ _______ _____ _____    ______ ____
ROOT
ATOM      1  C   UNL     1     151.230 166.041 190.719  0.00  0.00    +0.113 C 
ATOM      2  O   UNL     1     152.544 165.490 190.440  0.00  0.00    -0.458 OA
ATOM      3  C   UNL     1     153.022 165.697 189.189  0.00  0.00    +0.332 C 
ATOM      4  O   UNL     1     152.485 166.321 188.291  0.00  0.00    -0.246 OA
ATOM      5  C   UNL     1     154.316 164.992 189.057  0.00  0.00    +0.023 C 
ATOM      6  C   UNL     1     155.026 165.133 187.927  0.00  0.00    -0.052 C 
ATOM      7  C   UNL     1     156.271 164.448 187.599  0.00  0.00    -0.054 C 
ATOM      8  C   UNL     1     157.176 164.103 188.536  0.00  0.00    -0.079 C 
ATOM      9  C   UNL     1     158.517 163.458 188.287  0.00  0.00    -0.008 C 
ATOM     10  C   UNL     1     158.647 162.028 188.853  0.00  0.00    +0.061 C 
ATOM     11  C   UNL     1     157.809 161.008 188.067  0.00  0.00    +0.003 C 
ATOM     12  C   UNL     1     158.076 159.535 188.445  0.00  0.00    +0.080 C 
ATOM     13  O   UNL     1     156.908 158.725 188.181  0.00  0.00    -0.369 OA
ATOM     14  C   UNL     1     156.741 158.373 186.794  0.00  0.00    +0.065 C 
ATOM     15  C   UNL     1     155.389 157.645 186.681  0.00  0.00    +0.000 C 
ATOM     16  C   UNL     1     155.072 157.073 185.281  0.00  0.00    +0.066 C 
ATOM     17  C   UNL     1     153.591 156.584 185.130  0.00  0.00    +0.009 C 
ATOM     18  C   UNL     1     152.532 157.673 185.434  0.00  0.00    +0.063 C 
ATOM     19  C   UNL     1     151.075 157.201 185.199  0.00  0.00    -0.000 C 
ATOM     20  C   UNL     1     150.111 158.388 185.347  0.00  0.00    +0.064 C 
ATOM     21  C   UNL     1     148.652 157.986 185.690  0.00  0.00    +0.020 C 
ATOM     22  C   UNL     1     147.808 159.187 186.222  0.00  0.00    +0.113 C 
ATOM     23  O   UNL     1     147.793 160.140 185.122  0.00  0.00    -0.458 OA
ATOM     24  C   UNL     1     146.650 160.774 184.786  0.00  0.00    +0.332 C 
ATOM     25  O   UNL     1     145.592 160.766 185.417  0.00  0.00    -0.246 OA
ATOM     26  C   UNL     1     146.813 161.524 183.521  0.00  0.00    +0.023 C 
ATOM     27  C   UNL     1     147.993 161.663 182.883  0.00  0.00    -0.052 C 
ATOM     28  C   UNL     1     148.259 162.393 181.646  0.00  0.00    -0.054 C 
ATOM     29  C   UNL     1     149.541 162.493 181.234  0.00  0.00    -0.079 C 
ATOM     30  C   UNL     1     150.085 163.250 180.057  0.00  0.00    -0.008 C 
ATOM     31  C   UNL     1     151.311 164.143 180.341  0.00  0.00    +0.061 C 
ATOM     32  C   UNL     1     151.101 165.320 181.316  0.00  0.00    +0.003 C 
ATOM     33  C   UNL     1     151.270 165.130 182.837  0.00  0.00    +0.080 C 
ATOM     34  O   UNL     1     150.182 164.367 183.365  0.00  0.00    -0.369 OA
ATOM     35  C   UNL     1     150.309 163.993 184.741  0.00  0.00    +0.065 C 
ATOM     36  C   UNL     1     150.239 165.185 185.712  0.00  0.00    +0.000 C 
ATOM     37  C   UNL     1     148.827 165.819 185.744  0.00  0.00    +0.066 C 
ATOM     38  C   UNL     1     148.569 166.543 187.096  0.00  0.00    +0.009 C 
ATOM     39  C   UNL     1     148.104 165.570 188.220  0.00  0.00    +0.063 C 
ATOM     40  C   UNL     1     148.264 166.189 189.633  0.00  0.00    -0.000 C 
ATOM     41  C   UNL     1     148.734 165.265 190.764  0.00  0.00    +0.064 C 
ATOM     42  C   UNL     1     150.225 164.847 190.723  0.00  0.00    +0.020 C 
ATOM     43  C   UNL     1     151.561 163.121 184.939  0.00  0.00    -0.008 C 
ATOM     44  C   UNL     1     152.753 163.639 184.193  0.00  0.00    -0.083 C 
ATOM     45  C   UNL     1     152.607 164.566 183.242  0.00  0.00    -0.059 C 
ATOM     46  C   UNL     1     157.913 157.501 186.320  0.00  0.00    -0.008 C 
ATOM     47  C   UNL     1     159.230 158.046 186.781  0.00  0.00    -0.083 C 
ATOM     48  C   UNL     1     159.292 158.957 187.759  0.00  0.00    -0.059 C 
ATOM     49  H   UNL     1     150.923 166.674 189.888  0.00  0.00    +0.074 HD
ATOM     50  H   UNL     1     154.621 164.358 189.876  0.00  0.00    +0.069 HD
ATOM     51  H   UNL     1     154.635 165.775 187.138  0.00  0.00    +0.062 HD
ATOM     52  H   UNL     1     156.985 164.344 189.581  0.00  0.00    +0.058 HD
ATOM     53  H   UNL     1     159.275 164.098 188.757  0.00  0.00    +0.033 HD
ATOM     54  H   UNL     1     158.788 163.452 187.228  0.00  0.00    +0.033 HD
ATOM     55  H   UNL     1     158.333 162.019 189.900  0.00  0.00    +0.060 HD
ATOM     56  H   UNL     1     156.745 161.229 188.214  0.00  0.00    +0.032 HD
ATOM     57  H   UNL     1     157.992 161.133 186.993  0.00  0.00    +0.032 HD
ATOM     58  H   UNL     1     158.226 159.464 189.527  0.00  0.00    +0.064 HD
ATOM     59  H   UNL     1     156.688 159.296 186.204  0.00  0.00    +0.060 HD
ATOM     60  H   UNL     1     155.339 156.839 187.423  0.00  0.00    +0.032 HD
ATOM     61  H   UNL     1     154.625 158.372 186.982  0.00  0.00    +0.032 HD
ATOM     62  H   UNL     1     155.727 156.203 185.125  0.00  0.00    +0.060 HD
ATOM     63  H   UNL     1     153.457 156.299 184.081  0.00  0.00    +0.035 HD
ATOM     64  H   UNL     1     152.599 157.966 186.489  0.00  0.00    +0.060 HD
ATOM     65  H   UNL     1     150.823 156.419 185.927  0.00  0.00    +0.032 HD
ATOM     66  H   UNL     1     150.986 156.775 184.195  0.00  0.00    +0.032 HD
ATOM     67  H   UNL     1     150.502 159.016 186.147  0.00  0.00    +0.060 HD
ATOM     68  H   UNL     1     148.709 157.222 186.472  0.00  0.00    +0.036 HD
ATOM     69  H   UNL     1     146.786 158.840 186.421  0.00  0.00    +0.074 HD
ATOM     70  H   UNL     1     145.901 161.983 183.158  0.00  0.00    +0.069 HD
ATOM     71  H   UNL     1     148.876 161.217 183.342  0.00  0.00    +0.062 HD
ATOM     72  H   UNL     1     150.315 162.009 181.835  0.00  0.00    +0.058 HD
ATOM     73  H   UNL     1     150.374 162.501 179.307  0.00  0.00    +0.033 HD
ATOM     74  H   UNL     1     149.320 163.877 179.596  0.00  0.00    +0.033 HD
ATOM     75  H   UNL     1     151.532 164.611 179.374  0.00  0.00    +0.060 HD
ATOM     76  H   UNL     1     150.106 165.745 181.129  0.00  0.00    +0.032 HD
ATOM     77  H   UNL     1     151.821 166.092 181.027  0.00  0.00    +0.032 HD
ATOM     78  H   UNL     1     151.194 166.135 183.264  0.00  0.00    +0.064 HD
ATOM     79  H   UNL     1     149.450 163.345 184.960  0.00  0.00    +0.060 HD
ATOM     80  H   UNL     1     150.978 165.949 185.448  0.00  0.00    +0.032 HD
ATOM     81  H   UNL     1     150.523 164.822 186.707  0.00  0.00    +0.032 HD
ATOM     82  H   UNL     1     148.056 165.050 185.604  0.00  0.00    +0.060 HD
ATOM     83  H   UNL     1     149.517 167.006 187.398  0.00  0.00    +0.035 HD
ATOM     84  H   UNL     1     147.036 165.359 188.064  0.00  0.00    +0.060 HD
ATOM     85  H   UNL     1     147.273 166.581 189.912  0.00  0.00    +0.032 HD
ATOM     86  H   UNL     1     148.897 167.078 189.590  0.00  0.00    +0.032 HD
ATOM     87  H   UNL     1     148.546 165.755 191.724  0.00  0.00    +0.060 HD
ATOM     88  H   UNL     1     150.407 164.306 189.784  0.00  0.00    +0.036 HD
ATOM     89  H   UNL     1     151.801 163.023 186.004  0.00  0.00    +0.033 HD
ATOM     90  H   UNL     1     151.363 162.113 184.552  0.00  0.00    +0.033 HD
ATOM     91  H   UNL     1     153.726 163.213 184.414  0.00  0.00    +0.057 HD
ATOM     92  H   UNL     1     153.484 164.929 182.707  0.00  0.00    +0.059 HD
ATOM     93  H   UNL     1     157.814 156.480 186.702  0.00  0.00    +0.033 HD
ATOM     94  H   UNL     1     157.913 157.443 185.226  0.00  0.00    +0.033 HD
ATOM     95  H   UNL     1     160.133 157.667 186.322  0.00  0.00    +0.057 HD
ATOM     96  H   UNL     1     160.262 159.330 188.078  0.00  0.00    +0.059 HD
ENDROOT
BRANCH  28  97
ATOM     97  C   UNL     1     147.085 163.004 180.925  0.00  0.00    -0.040 C 
ATOM     98  H   UNL     1     146.742 162.339 180.126  0.00  0.00    +0.028 HD
ATOM     99  H   UNL     1     147.317 163.955 180.436  0.00  0.00    +0.028 HD
ATOM    100  H   UNL     1     146.254 163.187 181.615  0.00  0.00    +0.028 HD
ENDBRANCH  28  97
BRANCH  21 101
ATOM    101  C   UNL     1     147.931 157.328 184.506  0.00  0.00    -0.057 C 
ATOM    102  H   UNL     1     146.878 157.618 184.473  0.00  0.00    +0.023 HD
ATOM    103  H   UNL     1     148.389 157.638 183.565  0.00  0.00    +0.023 HD
ATOM    104  H   UNL     1     147.974 156.235 184.544  0.00  0.00    +0.023 HD
ENDBRANCH  21 101
BRANCH  42 105
ATOM    105  C   UNL     1     150.514 163.785 191.799  0.00  0.00    -0.057 C 
ATOM    106  H   UNL     1     150.364 164.181 192.804  0.00  0.00    +0.023 HD
ATOM    107  H   UNL     1     151.525 163.380 191.713  0.00  0.00    +0.023 HD
ATOM    108  H   UNL     1     149.820 162.948 191.691  0.00  0.00    +0.023 HD
ENDBRANCH  42 105
BRANCH  17 109
ATOM    109  C   UNL     1     153.353 155.322 185.968  0.00  0.00    -0.058 C 
ATOM    110  H   UNL     1     152.290 155.108 186.071  0.00  0.00    +0.023 HD
ATOM    111  H   UNL     1     153.748 155.456 186.980  0.00  0.00    +0.023 HD
ATOM    112  H   UNL     1     153.839 154.450 185.532  0.00  0.00    +0.023 HD
ENDBRANCH  17 109
BRANCH  38 113
ATOM    113  C   UNL     1     147.543 167.685 186.981  0.00  0.00    -0.058 C 
ATOM    114  H   UNL     1     148.016 168.673 187.011  0.00  0.00    +0.023 HD
ATOM    115  H   UNL     1     146.979 167.609 186.038  0.00  0.00    +0.023 HD
ATOM    116  H   UNL     1     146.820 167.655 187.801  0.00  0.00    +0.023 HD
ENDBRANCH  38 113
BRANCH   7 117
ATOM    117  C   UNL     1     156.472 164.197 186.127  0.00  0.00    -0.040 C 
ATOM    118  H   UNL     1     157.351 163.567 185.966  0.00  0.00    +0.028 HD
ATOM    119  H   UNL     1     156.622 165.132 185.580  0.00  0.00    +0.028 HD
ATOM    120  H   UNL     1     155.604 163.707 185.671  0.00  0.00    +0.028 HD
ENDBRANCH   7 117
BRANCH   1 121
ATOM    121  C   UNL     1     151.286 166.964 191.971  0.00  0.00    +0.020 C 
ATOM    122  H   UNL     1     150.294 166.988 192.434  0.00  0.00    +0.036 HD
BRANCH 121 123
ATOM    123  C   UNL     1     152.257 166.475 193.062  0.00  0.00    -0.057 C 
ATOM    124  H   UNL     1     152.208 167.083 193.969  0.00  0.00    +0.023 HD
ATOM    125  H   UNL     1     152.050 165.437 193.338  0.00  0.00    +0.023 HD
ATOM    126  H   UNL     1     153.286 166.471 192.697  0.00  0.00    +0.023 HD
ENDBRANCH 121 123
BRANCH 121 127
ATOM    127  C   UNL     1     151.671 168.440 191.615  0.00  0.00    +0.064 C 
ATOM    128  H   UNL     1     152.657 168.655 192.045  0.00  0.00    +0.060 HD
BRANCH 127 129
ATOM    129  C   UNL     1     150.697 169.537 192.136  0.00  0.00    -0.017 C 
ATOM    130  H   UNL     1     150.847 169.675 193.211  0.00  0.00    +0.032 HD
BRANCH 129 131
ATOM    131  C   UNL     1     150.939 170.880 191.439  0.00  0.00    -0.060 C 
ATOM    132  H   UNL     1     151.946 170.956 191.022  0.00  0.00    +0.023 HD
ATOM    133  H   UNL     1     150.224 171.037 190.623  0.00  0.00    +0.023 HD
ATOM    134  H   UNL     1     150.829 171.709 192.147  0.00  0.00    +0.023 HD
ENDBRANCH 129 131
BRANCH 129 135
ATOM    135  C   UNL     1     149.203 169.170 191.945  0.00  0.00    -0.046 C 
ATOM    136  H   UNL     1     149.156 168.132 191.595  0.00  0.00    +0.027 HD
ATOM    137  H   UNL     1     148.677 169.194 192.907  0.00  0.00    +0.027 HD
BRANCH 135 138
ATOM    138  C   UNL     1     148.456 170.057 190.939  0.00  0.00    -0.026 C 
ATOM    139  H   UNL     1     149.120 170.846 190.577  0.00  0.00    +0.029 HD
ATOM    140  H   UNL     1     148.176 169.450 190.069  0.00  0.00    +0.029 HD
BRANCH 138 143
ATOM    141  C   UNL     1     146.746 172.313 189.790  0.00  0.00    +0.059 C 
ATOM    142  O   UNL     1     146.297 171.188 190.553  0.00  0.00    -0.373 OA
ATOM    143  C   UNL     1     147.214 170.727 191.551  0.00  0.00    +0.061 C 
ATOM    144  C   UNL     1     147.566 171.866 192.510  0.00  0.00    -0.000 C 
ATOM    145  C   UNL     1     148.073 173.099 191.765  0.00  0.00    +0.063 C 
ATOM    146  C   UNL     1     147.058 173.496 190.696  0.00  0.00    -0.000 C 
ATOM    147  H   UNL     1     147.632 172.024 189.215  0.00  0.00    +0.059 HD
ATOM    148  H   UNL     1     146.675 169.960 192.122  0.00  0.00    +0.060 HD
ATOM    149  H   UNL     1     146.665 172.145 193.075  0.00  0.00    +0.032 HD
ATOM    150  H   UNL     1     148.298 171.538 193.256  0.00  0.00    +0.032 HD
ATOM    151  H   UNL     1     149.040 172.869 191.302  0.00  0.00    +0.060 HD
ATOM    152  H   UNL     1     147.426 174.343 190.103  0.00  0.00    +0.032 HD
ATOM    153  H   UNL     1     146.142 173.846 191.195  0.00  0.00    +0.032 HD
BRANCH 141 154
ATOM    154  C   UNL     1     145.641 172.656 188.801  0.00  0.00    -0.039 C 
ATOM    155  H   UNL     1     144.822 173.197 189.285  0.00  0.00    +0.025 HD
ATOM    156  H   UNL     1     146.035 173.275 187.986  0.00  0.00    +0.025 HD
ATOM    157  H   UNL     1     145.238 171.749 188.337  0.00  0.00    +0.025 HD
ENDBRANCH 141 154
BRANCH 145 158
ATOM    158  O   UNL     1     148.267 174.133 192.734  0.00  0.00    -0.380 OA
BRANCH 158 159
ATOM    159  C   UNL     1     147.745 173.809 194.017  0.00  0.00    +0.037 C 
ATOM    160  H   UNL     1     146.755 174.264 194.104  0.00  0.00    +0.052 HD
ATOM    161  H   UNL     1     148.378 174.219 194.805  0.00  0.00    +0.052 HD
ATOM    162  H   UNL     1     147.636 172.728 194.143  0.00  0.00    +0.052 HD
ENDBRANCH 158 159
ENDBRANCH 145 158
ENDBRANCH 138 143
ENDBRANCH 135 138
ENDBRANCH 129 135
ENDBRANCH 127 129
BRANCH 127 163
ATOM    163  O   UNL     1     151.809 168.565 190.201  0.00  0.00    -0.391 OA
ATOM    164  H   UNL     1     151.431 169.418 189.933  0.00  0.00    +0.210 HD
ENDBRANCH 127 163
ENDBRANCH 121 127
ENDBRANCH   1 121
BRANCH  41 165
ATOM    165  O   UNL     1     147.913 164.086 190.733  0.00  0.00    -0.391 OA
ATOM    166  H   UNL     1     148.446 163.354 191.092  0.00  0.00    +0.210 HD
ENDBRANCH  41 165
BRANCH  39 167
ATOM    167  O   UNL     1     148.747 164.314 188.114  0.00  0.00    -0.391 OA
ATOM    168  H   UNL     1     148.358 163.730 188.800  0.00  0.00    +0.210 HD
ENDBRANCH  39 167
BRANCH  31 169
ATOM    169  O   UNL     1     152.485 163.394 180.641  0.00  0.00    -0.391 OA
ATOM    170  H   UNL     1     153.096 163.964 181.142  0.00  0.00    +0.210 HD
ENDBRANCH  31 169
BRANCH  22 171
ATOM    171  C   UNL     1     148.370 159.888 187.502  0.00  0.00    +0.020 C 
ATOM    172  H   UNL     1     149.191 159.270 187.870  0.00  0.00    +0.036 HD
BRANCH 171 173
ATOM    173  C   UNL     1     149.049 161.226 187.152  0.00  0.00    -0.057 C 
ATOM    174  H   UNL     1     148.310 161.967 186.823  0.00  0.00    +0.023 HD
ATOM    175  H   UNL     1     149.564 161.648 188.025  0.00  0.00    +0.023 HD
ATOM    176  H   UNL     1     149.802 161.103 186.368  0.00  0.00    +0.023 HD
ENDBRANCH 171 173
BRANCH 171 177
ATOM    177  C   UNL     1     147.362 160.157 188.674  0.00  0.00    +0.064 C 
ATOM    178  H   UNL     1     147.413 161.220 188.950  0.00  0.00    +0.060 HD
BRANCH 177 179
ATOM    179  O   UNL     1     146.018 159.952 188.244  0.00  0.00    -0.391 OA
ATOM    180  H   UNL     1     145.995 159.132 187.720  0.00  0.00    +0.210 HD
ENDBRANCH 177 179
BRANCH 177 181
ATOM    181  C   UNL     1     147.637 159.311 189.966  0.00  0.00    -0.017 C 
ATOM    182  H   UNL     1     147.274 159.887 190.829  0.00  0.00    +0.032 HD
BRANCH 181 183
ATOM    183  C   UNL     1     146.896 157.964 189.917  0.00  0.00    -0.060 C 
ATOM    184  H   UNL     1     147.197 157.348 190.770  0.00  0.00    +0.023 HD
ATOM    185  H   UNL     1     147.095 157.402 189.002  0.00  0.00    +0.023 HD
ATOM    186  H   UNL     1     145.812 158.098 189.944  0.00  0.00    +0.023 HD
ENDBRANCH 181 183
BRANCH 181 187
ATOM    187  C   UNL     1     149.162 159.073 190.173  0.00  0.00    -0.046 C 
ATOM    188  H   UNL     1     149.614 158.804 189.214  0.00  0.00    +0.027 HD
ATOM    189  H   UNL     1     149.279 158.216 190.847  0.00  0.00    +0.027 HD
BRANCH 187 190
ATOM    190  C   UNL     1     149.923 160.283 190.750  0.00  0.00    -0.026 C 
ATOM    191  H   UNL     1     149.564 160.456 191.769  0.00  0.00    +0.029 HD
ATOM    192  H   UNL     1     149.663 161.172 190.162  0.00  0.00    +0.029 HD
BRANCH 190 193
ATOM    193  C   UNL     1     151.460 160.197 190.865  0.00  0.00    +0.061 C 
ATOM    194  O   UNL     1     152.142 161.088 189.983  0.00  0.00    -0.373 OA
ATOM    195  C   UNL     1     152.399 160.609 188.668  0.00  0.00    +0.059 C 
ATOM    196  C   UNL     1     153.158 159.291 188.691  0.00  0.00    -0.000 C 
ATOM    197  C   UNL     1     152.384 158.245 189.500  0.00  0.00    +0.063 C 
ATOM    198  C   UNL     1     152.075 158.797 190.890  0.00  0.00    -0.000 C 
ATOM    199  H   UNL     1     151.669 160.622 191.857  0.00  0.00    +0.060 HD
ATOM    200  H   UNL     1     151.448 160.497 188.137  0.00  0.00    +0.059 HD
ATOM    201  H   UNL     1     153.326 158.935 187.668  0.00  0.00    +0.032 HD
ATOM    202  H   UNL     1     154.149 159.416 189.143  0.00  0.00    +0.032 HD
ATOM    203  H   UNL     1     151.456 157.995 188.980  0.00  0.00    +0.060 HD
ATOM    204  H   UNL     1     153.030 158.858 191.432  0.00  0.00    +0.032 HD
ATOM    205  H   UNL     1     151.457 158.096 191.464  0.00  0.00    +0.032 HD
BRANCH 195 206
ATOM    206  C   UNL     1     153.219 161.674 187.949  0.00  0.00    -0.039 C 
ATOM    207  H   UNL     1     152.709 162.638 187.968  0.00  0.00    +0.025 HD
ATOM    208  H   UNL     1     154.200 161.789 188.415  0.00  0.00    +0.025 HD
ATOM    209  H   UNL     1     153.396 161.396 186.908  0.00  0.00    +0.025 HD
ENDBRANCH 195 206
BRANCH 197 210
ATOM    210  O   UNL     1     153.117 157.028 189.687  0.00  0.00    -0.380 OA
BRANCH 210 211
ATOM    211  C   UNL     1     154.386 157.203 190.298  0.00  0.00    +0.037 C 
ATOM    212  H   UNL     1     154.287 157.164 191.383  0.00  0.00    +0.052 HD
ATOM    213  H   UNL     1     155.030 156.373 189.993  0.00  0.00    +0.052 HD
ATOM    214  H   UNL     1     154.852 158.140 189.988  0.00  0.00    +0.052 HD
ENDBRANCH 210 211
ENDBRANCH 197 210
ENDBRANCH 190 193
ENDBRANCH 187 190
ENDBRANCH 181 187
ENDBRANCH 177 181
ENDBRANCH 171 177
ENDBRANCH  22 171
BRANCH  20 215
ATOM    215  O   UNL     1     150.214 159.156 184.141  0.00  0.00    -0.391 OA
ATOM    216  H   UNL     1     149.796 160.022 184.283  0.00  0.00    +0.210 HD
ENDBRANCH  20 215
BRANCH  18 217
ATOM    217  O   UNL     1     152.823 158.833 184.661  0.00  0.00    -0.391 OA
ATOM    218  H   UNL     1     152.119 159.506 184.785  0.00  0.00    +0.210 HD
ENDBRANCH  18 217
BRANCH  10 219
ATOM    219  O   UNL     1     160.031 161.676 188.828  0.00  0.00    -0.391 OA
ATOM    220  H   UNL     1     160.547 162.487 188.984  0.00  0.00    +0.210 HD
ENDBRANCH  10 219
BRANCH  37 221
ATOM    221  O   UNL     1     148.775 166.780 184.678  0.00  0.00    -0.379 OA
BRANCH 221 222
ATOM    222  C   UNL     1     147.722 166.517 183.760  0.00  0.00    +0.037 C 
ATOM    223  H   UNL     1     147.701 165.454 183.494  0.00  0.00    +0.052 HD
ATOM    224  H   UNL     1     147.827 167.120 182.854  0.00  0.00    +0.052 HD
ATOM    225  H   UNL     1     146.770 166.774 184.236  0.00  0.00    +0.052 HD
ENDBRANCH 221 222
ENDBRANCH  37 221
BRANCH  16 226
ATOM    226  O   UNL     1     155.451 158.060 184.314  0.00  0.00    -0.379 OA
BRANCH 226 227
ATOM    227  C   UNL     1     155.762 157.546 183.027  0.00  0.00    +0.037 C 
ATOM    228  H   UNL     1     155.271 156.574 182.928  0.00  0.00    +0.052 HD
ATOM    229  H   UNL     1     155.380 158.202 182.237  0.00  0.00    +0.052 HD
ATOM    230  H   UNL     1     156.837 157.391 182.909  0.00  0.00    +0.052 HD
ENDBRANCH 226 227
ENDBRANCH  16 226
TORSDOF 40
ENDMDL
MODEL 6
REMARK VINA RESULT:      -5.1      4.755     10.987
REMARK  Name = Swinholide A_conf2
REMARK  40 active torsions:
REMARK  status: ('A' for Active; 'I' for Inactive)
REMARK    1  A    between atoms: C_1  and  C_2
REMARK    2  A    between atoms: C_4  and  C_10
REMARK    3  A    between atoms: C_6  and  O_8
REMARK    4  A    between atoms: O_8  and  C_9
REMARK    5  A    between atoms: C_10  and  C_11
REMARK    6  A    between atoms: C_11  and  C_12
REMARK    7  A    between atoms: C_12  and  C_13
REMARK    8  A    between atoms: C_12  and  C_98
REMARK    9  A    between atoms: C_13  and  O_14
REMARK   10  A    between atoms: C_13  and  C_15
REMARK   11  A    between atoms: C_15  and  C_16
REMARK   12  A    between atoms: C_15  and  C_97
REMARK   13  A    between atoms: C_22  and  C_96
REMARK   14  A    between atoms: C_25  and  O_95
REMARK   15  A    between atoms: C_31  and  O_90
REMARK   16  A    between atoms: C_32  and  C_89
REMARK   17  A    between atoms: C_33  and  O_88
REMARK   18  A    between atoms: C_35  and  O_87
REMARK   19  A    between atoms: C_36  and  C_86
REMARK   20  A    between atoms: C_37  and  C_69
REMARK   21  A    between atoms: C_43  and  C_68
REMARK   22  A    between atoms: C_46  and  O_67
REMARK   23  A    between atoms: C_52  and  O_62
REMARK   24  A    between atoms: C_53  and  C_61
REMARK   25  A    between atoms: C_54  and  O_60
REMARK   26  A    between atoms: C_56  and  O_59
REMARK   27  A    between atoms: C_57  and  C_58
REMARK   28  A    between atoms: O_62  and  C_63
REMARK   29  A    between atoms: C_69  and  C_70
REMARK   30  A    between atoms: C_69  and  C_85
REMARK   31  A    between atoms: C_70  and  O_71
REMARK   32  A    between atoms: C_70  and  C_72
REMARK   33  A    between atoms: C_72  and  C_73
REMARK   34  A    between atoms: C_72  and  C_84
REMARK   35  A    between atoms: C_73  and  C_74
REMARK   36  A    between atoms: C_74  and  C_75
REMARK   37  A    between atoms: C_77  and  C_83
REMARK   38  A    between atoms: C_79  and  O_81
REMARK   39  A    between atoms: O_81  and  C_82
REMARK   40  A    between atoms: O_90  and  C_91
REMARK                            x       y       z     vdW  Elec       q    Type
REMARK                         _______ _______ _______ _____ _____    ______ ____
ROOT
ATOM      1  C   UNL     1     157.007 166.720 183.597  0.00  0.00    +0.113 C 
ATOM      2  O   UNL     1     155.828 166.757 184.442  0.00  0.00    -0.458 OA
ATOM      3  C   UNL     1     156.046 166.629 185.773  0.00  0.00    +0.332 C 
ATOM      4  O   UNL     1     157.122 166.521 186.334  0.00  0.00    -0.246 OA
ATOM      5  C   UNL     1     154.738 166.594 186.464  0.00  0.00    +0.023 C 
ATOM      6  C   UNL     1     154.707 166.566 187.805  0.00  0.00    -0.052 C 
ATOM      7  C   UNL     1     153.516 166.445 188.638  0.00  0.00    -0.054 C 
ATOM      8  C   UNL     1     152.323 166.956 188.274  0.00  0.00    -0.079 C 
ATOM      9  C   UNL     1     151.058 166.942 189.095  0.00  0.00    -0.008 C 
ATOM     10  C   UNL     1     149.921 166.091 188.493  0.00  0.00    +0.061 C 
ATOM     11  C   UNL     1     150.207 164.584 188.580  0.00  0.00    +0.003 C 
ATOM     12  C   UNL     1     149.012 163.683 188.201  0.00  0.00    +0.080 C 
ATOM     13  O   UNL     1     149.476 162.407 187.705  0.00  0.00    -0.369 OA
ATOM     14  C   UNL     1     149.882 161.490 188.739  0.00  0.00    +0.065 C 
ATOM     15  C   UNL     1     150.474 160.258 188.030  0.00  0.00    +0.000 C 
ATOM     16  C   UNL     1     150.864 159.092 188.967  0.00  0.00    +0.066 C 
ATOM     17  C   UNL     1     151.705 157.978 188.256  0.00  0.00    +0.009 C 
ATOM     18  C   UNL     1     153.008 158.494 187.595  0.00  0.00    +0.063 C 
ATOM     19  C   UNL     1     153.871 157.370 186.969  0.00  0.00    -0.000 C 
ATOM     20  C   UNL     1     155.218 157.943 186.502  0.00  0.00    +0.064 C 
ATOM     21  C   UNL     1     155.918 157.108 185.398  0.00  0.00    +0.020 C 
ATOM     22  C   UNL     1     157.051 157.903 184.672  0.00  0.00    +0.113 C 
ATOM     23  O   UNL     1     158.013 158.209 185.720  0.00  0.00    -0.458 OA
ATOM     24  C   UNL     1     159.335 158.066 185.493  0.00  0.00    +0.332 C 
ATOM     25  O   UNL     1     159.875 157.841 184.409  0.00  0.00    -0.246 OA
ATOM     26  C   UNL     1     160.108 158.223 186.745  0.00  0.00    +0.023 C 
ATOM     27  C   UNL     1     159.559 158.604 187.918  0.00  0.00    -0.052 C 
ATOM     28  C   UNL     1     160.234 158.804 189.197  0.00  0.00    -0.054 C 
ATOM     29  C   UNL     1     159.509 159.290 190.226  0.00  0.00    -0.079 C 
ATOM     30  C   UNL     1     159.977 159.660 191.604  0.00  0.00    -0.008 C 
ATOM     31  C   UNL     1     159.512 161.036 192.125  0.00  0.00    +0.061 C 
ATOM     32  C   UNL     1     160.012 162.275 191.353  0.00  0.00    +0.003 C 
ATOM     33  C   UNL     1     159.238 162.816 190.134  0.00  0.00    +0.080 C 
ATOM     34  O   UNL     1     159.391 161.935 189.018  0.00  0.00    -0.369 OA
ATOM     35  C   UNL     1     158.591 162.252 187.875  0.00  0.00    +0.065 C 
ATOM     36  C   UNL     1     158.999 163.564 187.182  0.00  0.00    +0.000 C 
ATOM     37  C   UNL     1     160.386 163.449 186.505  0.00  0.00    +0.066 C 
ATOM     38  C   UNL     1     160.521 164.458 185.329  0.00  0.00    +0.009 C 
ATOM     39  C   UNL     1     159.887 163.930 184.008  0.00  0.00    +0.063 C 
ATOM     40  C   UNL     1     159.633 165.069 182.985  0.00  0.00    -0.000 C 
ATOM     41  C   UNL     1     158.346 165.001 182.152  0.00  0.00    +0.064 C 
ATOM     42  C   UNL     1     157.032 165.320 182.907  0.00  0.00    +0.020 C 
ATOM     43  C   UNL     1     157.097 162.198 188.243  0.00  0.00    -0.008 C 
ATOM     44  C   UNL     1     156.802 162.843 189.564  0.00  0.00    -0.083 C 
ATOM     45  C   UNL     1     157.791 163.130 190.414  0.00  0.00    -0.059 C 
ATOM     46  C   UNL     1     148.685 161.128 189.631  0.00  0.00    -0.008 C 
ATOM     47  C   UNL     1     147.886 162.340 190.003  0.00  0.00    -0.083 C 
ATOM     48  C   UNL     1     148.031 163.490 189.335  0.00  0.00    -0.059 C 
ATOM     49  H   UNL     1     157.898 166.750 184.222  0.00  0.00    +0.074 HD
ATOM     50  H   UNL     1     153.853 166.558 185.847  0.00  0.00    +0.069 HD
ATOM     51  H   UNL     1     155.649 166.582 188.353  0.00  0.00    +0.062 HD
ATOM     52  H   UNL     1     152.233 167.486 187.327  0.00  0.00    +0.058 HD
ATOM     53  H   UNL     1     150.718 167.982 189.182  0.00  0.00    +0.033 HD
ATOM     54  H   UNL     1     151.234 166.630 190.129  0.00  0.00    +0.033 HD
ATOM     55  H   UNL     1     149.772 166.368 187.446  0.00  0.00    +0.060 HD
ATOM     56  H   UNL     1     151.058 164.343 187.932  0.00  0.00    +0.032 HD
ATOM     57  H   UNL     1     150.529 164.330 189.597  0.00  0.00    +0.032 HD
ATOM     58  H   UNL     1     148.476 164.132 187.359  0.00  0.00    +0.064 HD
ATOM     59  H   UNL     1     150.673 161.963 189.333  0.00  0.00    +0.060 HD
ATOM     60  H   UNL     1     149.773 159.894 187.270  0.00  0.00    +0.032 HD
ATOM     61  H   UNL     1     151.351 160.616 187.477  0.00  0.00    +0.032 HD
ATOM     62  H   UNL     1     149.931 158.630 189.322  0.00  0.00    +0.060 HD
ATOM     63  H   UNL     1     152.007 157.265 189.031  0.00  0.00    +0.035 HD
ATOM     64  H   UNL     1     152.758 159.185 186.781  0.00  0.00    +0.060 HD
ATOM     65  H   UNL     1     153.335 156.929 186.118  0.00  0.00    +0.032 HD
ATOM     66  H   UNL     1     154.041 156.584 187.711  0.00  0.00    +0.032 HD
ATOM     67  H   UNL     1     155.020 158.944 186.117  0.00  0.00    +0.060 HD
ATOM     68  H   UNL     1     155.150 156.843 184.665  0.00  0.00    +0.036 HD
ATOM     69  H   UNL     1     157.517 157.249 183.925  0.00  0.00    +0.074 HD
ATOM     70  H   UNL     1     161.169 158.033 186.638  0.00  0.00    +0.069 HD
ATOM     71  H   UNL     1     158.493 158.831 187.930  0.00  0.00    +0.062 HD
ATOM     72  H   UNL     1     158.449 159.496 190.058  0.00  0.00    +0.058 HD
ATOM     73  H   UNL     1     159.593 158.889 192.285  0.00  0.00    +0.033 HD
ATOM     74  H   UNL     1     161.066 159.629 191.678  0.00  0.00    +0.033 HD
ATOM     75  H   UNL     1     159.971 161.116 193.118  0.00  0.00    +0.060 HD
ATOM     76  H   UNL     1     161.051 162.092 191.049  0.00  0.00    +0.032 HD
ATOM     77  H   UNL     1     160.047 163.096 192.076  0.00  0.00    +0.032 HD
ATOM     78  H   UNL     1     159.734 163.756 189.871  0.00  0.00    +0.064 HD
ATOM     79  H   UNL     1     158.754 161.439 187.155  0.00  0.00    +0.060 HD
ATOM     80  H   UNL     1     159.006 164.397 187.893  0.00  0.00    +0.032 HD
ATOM     81  H   UNL     1     158.226 163.805 186.443  0.00  0.00    +0.032 HD
ATOM     82  H   UNL     1     160.543 162.434 186.117  0.00  0.00    +0.060 HD
ATOM     83  H   UNL     1     159.998 165.374 185.632  0.00  0.00    +0.035 HD
ATOM     84  H   UNL     1     160.592 163.220 183.554  0.00  0.00    +0.060 HD
ATOM     85  H   UNL     1     160.485 165.049 182.286  0.00  0.00    +0.032 HD
ATOM     86  H   UNL     1     159.713 166.043 183.472  0.00  0.00    +0.032 HD
ATOM     87  H   UNL     1     158.431 165.697 181.311  0.00  0.00    +0.060 HD
ATOM     88  H   UNL     1     156.915 164.589 183.720  0.00  0.00    +0.036 HD
ATOM     89  H   UNL     1     156.488 162.660 187.458  0.00  0.00    +0.033 HD
ATOM     90  H   UNL     1     156.785 161.150 188.329  0.00  0.00    +0.033 HD
ATOM     91  H   UNL     1     155.766 163.030 189.827  0.00  0.00    +0.057 HD
ATOM     92  H   UNL     1     157.558 163.596 191.371  0.00  0.00    +0.059 HD
ATOM     93  H   UNL     1     148.020 160.425 189.119  0.00  0.00    +0.033 HD
ATOM     94  H   UNL     1     149.039 160.639 190.545  0.00  0.00    +0.033 HD
ATOM     95  H   UNL     1     147.170 162.256 190.810  0.00  0.00    +0.057 HD
ATOM     96  H   UNL     1     147.433 164.351 189.623  0.00  0.00    +0.059 HD
ENDROOT
BRANCH  28  97
ATOM     97  C   UNL     1     161.703 158.472 189.275  0.00  0.00    -0.040 C 
ATOM     98  H   UNL     1     162.162 158.977 190.131  0.00  0.00    +0.028 HD
ATOM     99  H   UNL     1     162.274 158.797 188.400  0.00  0.00    +0.028 HD
ATOM    100  H   UNL     1     161.854 157.391 189.379  0.00  0.00    +0.028 HD
ENDBRANCH  28  97
BRANCH  21 101
ATOM    101  C   UNL     1     156.474 155.781 185.930  0.00  0.00    -0.057 C 
ATOM    102  H   UNL     1     156.176 154.943 185.295  0.00  0.00    +0.023 HD
ATOM    103  H   UNL     1     157.566 155.809 185.949  0.00  0.00    +0.023 HD
ATOM    104  H   UNL     1     156.137 155.563 186.948  0.00  0.00    +0.023 HD
ENDBRANCH  21 101
BRANCH  42 105
ATOM    105  C   UNL     1     155.815 165.040 182.008  0.00  0.00    -0.057 C 
ATOM    106  H   UNL     1     155.526 165.924 181.438  0.00  0.00    +0.023 HD
ATOM    107  H   UNL     1     154.958 164.677 182.581  0.00  0.00    +0.023 HD
ATOM    108  H   UNL     1     156.064 164.269 181.274  0.00  0.00    +0.023 HD
ENDBRANCH  42 105
BRANCH  17 109
ATOM    109  C   UNL     1     150.838 157.206 187.255  0.00  0.00    -0.058 C 
ATOM    110  H   UNL     1     149.796 157.175 187.572  0.00  0.00    +0.023 HD
ATOM    111  H   UNL     1     151.176 156.168 187.178  0.00  0.00    +0.023 HD
ATOM    112  H   UNL     1     150.882 157.645 186.259  0.00  0.00    +0.023 HD
ENDBRANCH  17 109
BRANCH  38 113
ATOM    113  C   UNL     1     161.979 164.861 185.045  0.00  0.00    -0.058 C 
ATOM    114  H   UNL     1     162.114 165.949 185.031  0.00  0.00    +0.023 HD
ATOM    115  H   UNL     1     162.654 164.447 185.811  0.00  0.00    +0.023 HD
ATOM    116  H   UNL     1     162.314 164.488 184.074  0.00  0.00    +0.023 HD
ENDBRANCH  38 113
BRANCH   7 117
ATOM    117  C   UNL     1     153.744 165.739 189.949  0.00  0.00    -0.040 C 
ATOM    118  H   UNL     1     152.794 165.391 190.364  0.00  0.00    +0.028 HD
ATOM    119  H   UNL     1     154.210 166.402 190.684  0.00  0.00    +0.028 HD
ATOM    120  H   UNL     1     154.414 164.877 189.840  0.00  0.00    +0.028 HD
ENDBRANCH   7 117
BRANCH   1 121
ATOM    121  C   UNL     1     157.066 167.988 182.696  0.00  0.00    +0.020 C 
ATOM    122  H   UNL     1     157.267 167.678 181.665  0.00  0.00    +0.036 HD
BRANCH 121 123
ATOM    123  C   UNL     1     155.749 168.785 182.655  0.00  0.00    -0.057 C 
ATOM    124  H   UNL     1     155.107 168.576 183.516  0.00  0.00    +0.023 HD
ATOM    125  H   UNL     1     155.939 169.861 182.628  0.00  0.00    +0.023 HD
ATOM    126  H   UNL     1     155.190 168.572 181.741  0.00  0.00    +0.023 HD
ENDBRANCH 121 123
BRANCH 121 127
ATOM    127  C   UNL     1     158.209 168.974 183.117  0.00  0.00    +0.064 C 
ATOM    128  H   UNL     1     159.158 168.423 183.121  0.00  0.00    +0.060 HD
BRANCH 127 129
ATOM    129  C   UNL     1     158.054 169.626 184.523  0.00  0.00    -0.017 C 
ATOM    130  H   UNL     1     157.142 169.253 184.998  0.00  0.00    +0.032 HD
BRANCH 129 131
ATOM    131  C   UNL     1     159.243 169.292 185.430  0.00  0.00    -0.060 C 
ATOM    132  H   UNL     1     158.933 169.057 186.452  0.00  0.00    +0.023 HD
ATOM    133  H   UNL     1     159.807 168.434 185.044  0.00  0.00    +0.023 HD
ATOM    134  H   UNL     1     159.929 170.143 185.499  0.00  0.00    +0.023 HD
ENDBRANCH 129 131
BRANCH 129 135
ATOM    135  C   UNL     1     157.922 171.170 184.470  0.00  0.00    -0.046 C 
ATOM    136  H   UNL     1     158.557 171.586 185.262  0.00  0.00    +0.027 HD
ATOM    137  H   UNL     1     158.319 171.556 183.523  0.00  0.00    +0.027 HD
BRANCH 135 138
ATOM    138  C   UNL     1     156.492 171.691 184.668  0.00  0.00    -0.026 C 
ATOM    139  H   UNL     1     155.817 171.196 183.964  0.00  0.00    +0.029 HD
ATOM    140  H   UNL     1     156.153 171.426 185.677  0.00  0.00    +0.029 HD
BRANCH 138 143
ATOM    141  C   UNL     1     154.860 173.192 182.565  0.00  0.00    +0.059 C 
ATOM    142  O   UNL     1     155.103 173.589 183.919  0.00  0.00    -0.373 OA
ATOM    143  C   UNL     1     156.380 173.208 184.443  0.00  0.00    +0.061 C 
ATOM    144  C   UNL     1     157.499 173.761 183.557  0.00  0.00    -0.000 C 
ATOM    145  C   UNL     1     157.316 173.360 182.095  0.00  0.00    +0.063 C 
ATOM    146  C   UNL     1     155.918 173.764 181.631  0.00  0.00    -0.000 C 
ATOM    147  H   UNL     1     154.848 172.098 182.510  0.00  0.00    +0.059 HD
ATOM    148  H   UNL     1     156.458 173.692 185.425  0.00  0.00    +0.060 HD
ATOM    149  H   UNL     1     157.493 174.859 183.622  0.00  0.00    +0.032 HD
ATOM    150  H   UNL     1     158.482 173.444 183.924  0.00  0.00    +0.032 HD
ATOM    151  H   UNL     1     157.448 172.275 181.999  0.00  0.00    +0.060 HD
ATOM    152  H   UNL     1     155.737 173.432 180.602  0.00  0.00    +0.032 HD
ATOM    153  H   UNL     1     155.858 174.862 181.615  0.00  0.00    +0.032 HD
BRANCH 141 154
ATOM    154  C   UNL     1     153.472 173.691 182.192  0.00  0.00    -0.039 C 
ATOM    155  H   UNL     1     153.107 173.216 181.277  0.00  0.00    +0.025 HD
ATOM    156  H   UNL     1     152.761 173.486 183.001  0.00  0.00    +0.025 HD
ATOM    157  H   UNL     1     153.474 174.778 182.048  0.00  0.00    +0.025 HD
ENDBRANCH 141 154
BRANCH 145 158
ATOM    158  O   UNL     1     158.342 174.013 181.342  0.00  0.00    -0.380 OA
BRANCH 158 159
ATOM    159  C   UNL     1     159.582 173.316 181.357  0.00  0.00    +0.037 C 
ATOM    160  H   UNL     1     160.316 173.942 181.870  0.00  0.00    +0.052 HD
ATOM    161  H   UNL     1     159.937 173.140 180.340  0.00  0.00    +0.052 HD
ATOM    162  H   UNL     1     159.503 172.369 181.899  0.00  0.00    +0.052 HD
ENDBRANCH 158 159
ENDBRANCH 145 158
ENDBRANCH 138 143
ENDBRANCH 135 138
ENDBRANCH 129 135
ENDBRANCH 127 129
BRANCH 127 163
ATOM    163  O   UNL     1     158.337 169.998 182.133  0.00  0.00    -0.391 OA
ATOM    164  H   UNL     1     159.283 170.154 181.979  0.00  0.00    +0.210 HD
ENDBRANCH 127 163
ENDBRANCH 121 127
ENDBRANCH   1 121
BRANCH  41 165
ATOM    165  O   UNL     1     158.260 163.681 181.590  0.00  0.00    -0.391 OA
ATOM    166  H   UNL     1     157.400 163.617 181.137  0.00  0.00    +0.210 HD
ENDBRANCH  41 165
BRANCH  39 167
ATOM    167  O   UNL     1     158.717 163.175 184.262  0.00  0.00    -0.391 OA
ATOM    168  H   UNL     1     158.312 162.967 183.393  0.00  0.00    +0.210 HD
ENDBRANCH  39 167
BRANCH  31 169
ATOM    169  O   UNL     1     158.113 161.087 192.382  0.00  0.00    -0.391 OA
ATOM    170  H   UNL     1     157.724 161.799 191.842  0.00  0.00    +0.210 HD
ENDBRANCH  31 169
BRANCH  22 171
ATOM    171  C   UNL     1     156.601 159.232 183.982  0.00  0.00    +0.020 C 
ATOM    172  H   UNL     1     155.510 159.240 183.984  0.00  0.00    +0.036 HD
BRANCH 171 173
ATOM    173  C   UNL     1     156.977 160.458 184.836  0.00  0.00    -0.057 C 
ATOM    174  H   UNL     1     156.800 161.389 184.285  0.00  0.00    +0.023 HD
ATOM    175  H   UNL     1     156.371 160.502 185.750  0.00  0.00    +0.023 HD
ATOM    176  H   UNL     1     158.024 160.425 185.151  0.00  0.00    +0.023 HD
ENDBRANCH 171 173
BRANCH 171 177
ATOM    177  C   UNL     1     157.115 159.492 182.523  0.00  0.00    +0.064 C 
ATOM    178  H   UNL     1     157.732 160.402 182.520  0.00  0.00    +0.060 HD
BRANCH 177 179
ATOM    179  O   UNL     1     157.994 158.451 182.101  0.00  0.00    -0.391 OA
ATOM    180  H   UNL     1     157.609 157.603 182.388  0.00  0.00    +0.210 HD
ENDBRANCH 177 179
BRANCH 177 181
ATOM    181  C   UNL     1     155.975 159.682 181.463  0.00  0.00    -0.017 C 
ATOM    182  H   UNL     1     156.163 160.625 180.930  0.00  0.00    +0.032 HD
BRANCH 181 183
ATOM    183  C   UNL     1     155.965 158.528 180.445  0.00  0.00    -0.060 C 
ATOM    184  H   UNL     1     155.053 157.935 180.571  0.00  0.00    +0.023 HD
ATOM    185  H   UNL     1     156.823 157.860 180.551  0.00  0.00    +0.023 HD
ATOM    186  H   UNL     1     156.009 158.894 179.418  0.00  0.00    +0.023 HD
ENDBRANCH 181 183
BRANCH 181 187
ATOM    187  C   UNL     1     154.580 159.802 182.146  0.00  0.00    -0.046 C 
ATOM    188  H   UNL     1     154.597 159.251 183.090  0.00  0.00    +0.027 HD
ATOM    189  H   UNL     1     153.844 159.319 181.493  0.00  0.00    +0.027 HD
BRANCH 187 190
ATOM    190  C   UNL     1     154.136 161.250 182.433  0.00  0.00    -0.026 C 
ATOM    191  H   UNL     1     153.796 161.694 181.493  0.00  0.00    +0.029 HD
ATOM    192  H   UNL     1     155.010 161.825 182.762  0.00  0.00    +0.029 HD
BRANCH 190 193
ATOM    193  C   UNL     1     152.984 161.479 183.436  0.00  0.00    +0.061 C 
ATOM    194  O   UNL     1     152.385 162.770 183.320  0.00  0.00    -0.373 OA
ATOM    195  C   UNL     1     152.993 163.822 184.060  0.00  0.00    +0.059 C 
ATOM    196  C   UNL     1     153.097 163.479 185.539  0.00  0.00    -0.000 C 
ATOM    197  C   UNL     1     153.876 162.173 185.727  0.00  0.00    +0.063 C 
ATOM    198  C   UNL     1     153.238 161.069 184.887  0.00  0.00    -0.000 C 
ATOM    199  H   UNL     1     152.193 160.805 183.079  0.00  0.00    +0.060 HD
ATOM    200  H   UNL     1     153.983 164.028 183.642  0.00  0.00    +0.059 HD
ATOM    201  H   UNL     1     153.585 164.296 186.082  0.00  0.00    +0.032 HD
ATOM    202  H   UNL     1     152.103 163.358 185.985  0.00  0.00    +0.032 HD
ATOM    203  H   UNL     1     154.916 162.321 185.427  0.00  0.00    +0.060 HD
ATOM    204  H   UNL     1     152.267 160.835 185.345  0.00  0.00    +0.032 HD
ATOM    205  H   UNL     1     153.821 160.141 184.946  0.00  0.00    +0.032 HD
BRANCH 195 206
ATOM    206  C   UNL     1     152.133 165.066 183.871  0.00  0.00    -0.039 C 
ATOM    207  H   UNL     1     151.115 164.796 183.585  0.00  0.00    +0.025 HD
ATOM    208  H   UNL     1     152.092 165.654 184.790  0.00  0.00    +0.025 HD
ATOM    209  H   UNL     1     152.548 165.718 183.099  0.00  0.00    +0.025 HD
ENDBRANCH 195 206
BRANCH 197 210
ATOM    210  O   UNL     1     153.878 161.715 187.085  0.00  0.00    -0.380 OA
BRANCH 210 211
ATOM    211  C   UNL     1     153.363 162.654 188.016  0.00  0.00    +0.037 C 
ATOM    212  H   UNL     1     153.450 163.664 187.615  0.00  0.00    +0.052 HD
ATOM    213  H   UNL     1     152.299 162.445 188.160  0.00  0.00    +0.052 HD
ATOM    214  H   UNL     1     153.869 162.579 188.980  0.00  0.00    +0.052 HD
ENDBRANCH 210 211
ENDBRANCH 197 210
ENDBRANCH 190 193
ENDBRANCH 187 190
ENDBRANCH 181 187
ENDBRANCH 177 181
ENDBRANCH 171 177
ENDBRANCH  22 171
BRANCH  20 215
ATOM    215  O   UNL     1     156.023 158.112 187.676  0.00  0.00    -0.391 OA
ATOM    216  H   UNL     1     156.521 157.292 187.836  0.00  0.00    +0.210 HD
ENDBRANCH  20 215
BRANCH  18 217
ATOM    217  O   UNL     1     153.754 159.236 188.555  0.00  0.00    -0.391 OA
ATOM    218  H   UNL     1     153.317 159.188 189.432  0.00  0.00    +0.210 HD
ENDBRANCH  18 217
BRANCH  10 219
ATOM    219  O   UNL     1     148.717 166.421 189.188  0.00  0.00    -0.391 OA
ATOM    220  H   UNL     1     148.884 167.229 189.705  0.00  0.00    +0.210 HD
ENDBRANCH  10 219
BRANCH  37 221
ATOM    221  O   UNL     1     161.368 163.759 187.506  0.00  0.00    -0.379 OA
BRANCH 221 222
ATOM    222  C   UNL     1     162.305 162.706 187.692  0.00  0.00    +0.037 C 
ATOM    223  H   UNL     1     161.826 161.846 188.172  0.00  0.00    +0.052 HD
ATOM    224  H   UNL     1     163.156 163.036 188.295  0.00  0.00    +0.052 HD
ATOM    225  H   UNL     1     162.679 162.392 186.712  0.00  0.00    +0.052 HD
ENDBRANCH 221 222
ENDBRANCH  37 221
BRANCH  16 226
ATOM    226  O   UNL     1     151.514 159.656 190.113  0.00  0.00    -0.379 OA
BRANCH 226 227
ATOM    227  C   UNL     1     151.707 158.755 191.193  0.00  0.00    +0.037 C 
ATOM    228  H   UNL     1     152.019 157.794 190.775  0.00  0.00    +0.052 HD
ATOM    229  H   UNL     1     152.498 159.107 191.864  0.00  0.00    +0.052 HD
ATOM    230  H   UNL     1     150.779 158.594 191.748  0.00  0.00    +0.052 HD
ENDBRANCH 226 227
ENDBRANCH  16 226
TORSDOF 40
ENDMDL
MODEL 7
REMARK VINA RESULT:      -5.0      2.435      8.441
REMARK  Name = Swinholide A_conf2
REMARK  40 active torsions:
REMARK  status: ('A' for Active; 'I' for Inactive)
REMARK    1  A    between atoms: C_1  and  C_2
REMARK    2  A    between atoms: C_4  and  C_10
REMARK    3  A    between atoms: C_6  and  O_8
REMARK    4  A    between atoms: O_8  and  C_9
REMARK    5  A    between atoms: C_10  and  C_11
REMARK    6  A    between atoms: C_11  and  C_12
REMARK    7  A    between atoms: C_12  and  C_13
REMARK    8  A    between atoms: C_12  and  C_98
REMARK    9  A    between atoms: C_13  and  O_14
REMARK   10  A    between atoms: C_13  and  C_15
REMARK   11  A    between atoms: C_15  and  C_16
REMARK   12  A    between atoms: C_15  and  C_97
REMARK   13  A    between atoms: C_22  and  C_96
REMARK   14  A    between atoms: C_25  and  O_95
REMARK   15  A    between atoms: C_31  and  O_90
REMARK   16  A    between atoms: C_32  and  C_89
REMARK   17  A    between atoms: C_33  and  O_88
REMARK   18  A    between atoms: C_35  and  O_87
REMARK   19  A    between atoms: C_36  and  C_86
REMARK   20  A    between atoms: C_37  and  C_69
REMARK   21  A    between atoms: C_43  and  C_68
REMARK   22  A    between atoms: C_46  and  O_67
REMARK   23  A    between atoms: C_52  and  O_62
REMARK   24  A    between atoms: C_53  and  C_61
REMARK   25  A    between atoms: C_54  and  O_60
REMARK   26  A    between atoms: C_56  and  O_59
REMARK   27  A    between atoms: C_57  and  C_58
REMARK   28  A    between atoms: O_62  and  C_63
REMARK   29  A    between atoms: C_69  and  C_70
REMARK   30  A    between atoms: C_69  and  C_85
REMARK   31  A    between atoms: C_70  and  O_71
REMARK   32  A    between atoms: C_70  and  C_72
REMARK   33  A    between atoms: C_72  and  C_73
REMARK   34  A    between atoms: C_72  and  C_84
REMARK   35  A    between atoms: C_73  and  C_74
REMARK   36  A    between atoms: C_74  and  C_75
REMARK   37  A    between atoms: C_77  and  C_83
REMARK   38  A    between atoms: C_79  and  O_81
REMARK   39  A    between atoms: O_81  and  C_82
REMARK   40  A    between atoms: O_90  and  C_91
REMARK                            x       y       z     vdW  Elec       q    Type
REMARK                         _______ _______ _______ _____ _____    ______ ____
ROOT
ATOM      1  C   UNL     1     145.147 165.117 184.530  0.00  0.00    +0.113 C 
ATOM      2  O   UNL     1     145.064 163.746 184.999  0.00  0.00    -0.458 OA
ATOM      3  C   UNL     1     145.042 163.578 186.344  0.00  0.00    +0.332 C 
ATOM      4  O   UNL     1     145.048 164.451 187.193  0.00  0.00    -0.246 OA
ATOM      5  C   UNL     1     145.053 162.127 186.637  0.00  0.00    +0.023 C 
ATOM      6  C   UNL     1     144.938 161.717 187.910  0.00  0.00    -0.052 C 
ATOM      7  C   UNL     1     145.015 160.339 188.381  0.00  0.00    -0.054 C 
ATOM      8  C   UNL     1     144.591 159.295 187.641  0.00  0.00    -0.079 C 
ATOM      9  C   UNL     1     144.566 157.849 188.068  0.00  0.00    -0.008 C 
ATOM     10  C   UNL     1     145.520 156.935 187.271  0.00  0.00    +0.061 C 
ATOM     11  C   UNL     1     146.997 157.195 187.604  0.00  0.00    +0.003 C 
ATOM     12  C   UNL     1     147.977 156.162 187.009  0.00  0.00    +0.080 C 
ATOM     13  O   UNL     1     149.280 156.756 186.811  0.00  0.00    -0.369 OA
ATOM     14  C   UNL     1     150.067 156.857 188.014  0.00  0.00    +0.065 C 
ATOM     15  C   UNL     1     151.343 157.634 187.645  0.00  0.00    +0.000 C 
ATOM     16  C   UNL     1     152.386 157.749 188.779  0.00  0.00    +0.066 C 
ATOM     17  C   UNL     1     153.538 158.764 188.464  0.00  0.00    +0.009 C 
ATOM     18  C   UNL     1     153.045 160.198 188.143  0.00  0.00    +0.063 C 
ATOM     19  C   UNL     1     154.196 161.210 187.917  0.00  0.00    -0.000 C 
ATOM     20  C   UNL     1     153.625 162.631 187.786  0.00  0.00    +0.064 C 
ATOM     21  C   UNL     1     154.546 163.621 187.026  0.00  0.00    +0.020 C 
ATOM     22  C   UNL     1     153.791 164.908 186.564  0.00  0.00    +0.113 C 
ATOM     23  O   UNL     1     153.338 165.531 187.798  0.00  0.00    -0.458 OA
ATOM     24  C   UNL     1     153.454 166.864 187.971  0.00  0.00    +0.332 C 
ATOM     25  O   UNL     1     153.773 167.691 187.116  0.00  0.00    -0.246 OA
ATOM     26  C   UNL     1     153.135 167.248 189.363  0.00  0.00    +0.023 C 
ATOM     27  C   UNL     1     152.652 166.386 190.283  0.00  0.00    -0.052 C 
ATOM     28  C   UNL     1     152.292 166.669 191.670  0.00  0.00    -0.054 C 
ATOM     29  C   UNL     1     151.726 165.678 192.391  0.00  0.00    -0.079 C 
ATOM     30  C   UNL     1     151.194 165.734 193.794  0.00  0.00    -0.008 C 
ATOM     31  C   UNL     1     149.789 165.131 194.004  0.00  0.00    +0.061 C 
ATOM     32  C   UNL     1     148.621 165.822 193.269  0.00  0.00    +0.003 C 
ATOM     33  C   UNL     1     148.243 165.422 191.829  0.00  0.00    +0.080 C 
ATOM     34  O   UNL     1     149.232 165.892 190.908  0.00  0.00    -0.369 OA
ATOM     35  C   UNL     1     149.069 165.447 189.557  0.00  0.00    +0.065 C 
ATOM     36  C   UNL     1     147.824 166.027 188.863  0.00  0.00    +0.000 C 
ATOM     37  C   UNL     1     147.958 167.550 188.622  0.00  0.00    +0.066 C 
ATOM     38  C   UNL     1     147.075 168.007 187.426  0.00  0.00    +0.009 C 
ATOM     39  C   UNL     1     147.765 167.778 186.048  0.00  0.00    +0.063 C 
ATOM     40  C   UNL     1     146.752 167.819 184.873  0.00  0.00    -0.000 C 
ATOM     41  C   UNL     1     146.957 166.822 183.724  0.00  0.00    +0.064 C 
ATOM     42  C   UNL     1     146.610 165.345 184.038  0.00  0.00    +0.020 C 
ATOM     43  C   UNL     1     149.140 163.911 189.494  0.00  0.00    -0.008 C 
ATOM     44  C   UNL     1     148.370 163.249 190.596  0.00  0.00    -0.083 C 
ATOM     45  C   UNL     1     147.956 163.954 191.652  0.00  0.00    -0.059 C 
ATOM     46  C   UNL     1     150.376 155.458 188.568  0.00  0.00    -0.008 C 
ATOM     47  C   UNL     1     149.163 154.579 188.561  0.00  0.00    -0.083 C 
ATOM     48  C   UNL     1     148.086 154.900 187.834  0.00  0.00    -0.059 C 
ATOM     49  H   UNL     1     145.017 165.793 185.373  0.00  0.00    +0.074 HD
ATOM     50  H   UNL     1     145.188 161.454 185.804  0.00  0.00    +0.069 HD
ATOM     51  H   UNL     1     144.828 162.464 188.695  0.00  0.00    +0.062 HD
ATOM     52  H   UNL     1     144.170 159.475 186.653  0.00  0.00    +0.058 HD
ATOM     53  H   UNL     1     143.537 157.492 187.937  0.00  0.00    +0.033 HD
ATOM     54  H   UNL     1     144.760 157.726 189.138  0.00  0.00    +0.033 HD
ATOM     55  H   UNL     1     145.362 157.088 186.200  0.00  0.00    +0.060 HD
ATOM     56  H   UNL     1     147.273 158.196 187.253  0.00  0.00    +0.032 HD
ATOM     57  H   UNL     1     147.128 157.216 188.693  0.00  0.00    +0.032 HD
ATOM     58  H   UNL     1     147.642 155.885 186.004  0.00  0.00    +0.064 HD
ATOM     59  H   UNL     1     149.503 157.444 188.750  0.00  0.00    +0.060 HD
ATOM     60  H   UNL     1     151.812 157.180 186.764  0.00  0.00    +0.032 HD
ATOM     61  H   UNL     1     151.013 158.629 187.324  0.00  0.00    +0.032 HD
ATOM     62  H   UNL     1     152.844 156.757 188.907  0.00  0.00    +0.060 HD
ATOM     63  H   UNL     1     154.151 158.838 189.368  0.00  0.00    +0.035 HD
ATOM     64  H   UNL     1     152.456 160.185 187.219  0.00  0.00    +0.060 HD
ATOM     65  H   UNL     1     154.746 160.941 187.005  0.00  0.00    +0.032 HD
ATOM     66  H   UNL     1     154.892 161.167 188.760  0.00  0.00    +0.032 HD
ATOM     67  H   UNL     1     152.680 162.544 187.251  0.00  0.00    +0.060 HD
ATOM     68  H   UNL     1     154.917 163.094 186.142  0.00  0.00    +0.036 HD
ATOM     69  H   UNL     1     154.503 165.572 186.057  0.00  0.00    +0.074 HD
ATOM     70  H   UNL     1     153.295 168.297 189.582  0.00  0.00    +0.069 HD
ATOM     71  H   UNL     1     152.466 165.359 189.969  0.00  0.00    +0.062 HD
ATOM     72  H   UNL     1     151.581 164.708 191.909  0.00  0.00    +0.058 HD
ATOM     73  H   UNL     1     151.902 165.176 194.422  0.00  0.00    +0.033 HD
ATOM     74  H   UNL     1     151.175 166.756 194.175  0.00  0.00    +0.033 HD
ATOM     75  H   UNL     1     149.586 165.288 195.070  0.00  0.00    +0.060 HD
ATOM     76  H   UNL     1     148.796 166.905 193.293  0.00  0.00    +0.032 HD
ATOM     77  H   UNL     1     147.727 165.644 193.875  0.00  0.00    +0.032 HD
ATOM     78  H   UNL     1     147.318 165.967 191.612  0.00  0.00    +0.064 HD
ATOM     79  H   UNL     1     149.947 165.814 189.009  0.00  0.00    +0.060 HD
ATOM     80  H   UNL     1     146.920 165.827 189.449  0.00  0.00    +0.032 HD
ATOM     81  H   UNL     1     147.692 165.495 187.914  0.00  0.00    +0.032 HD
ATOM     82  H   UNL     1     149.001 167.818 188.411  0.00  0.00    +0.060 HD
ATOM     83  H   UNL     1     146.153 167.414 187.463  0.00  0.00    +0.035 HD
ATOM     84  H   UNL     1     148.492 168.588 185.894  0.00  0.00    +0.060 HD
ATOM     85  H   UNL     1     146.814 168.834 184.449  0.00  0.00    +0.032 HD
ATOM     86  H   UNL     1     145.730 167.750 185.249  0.00  0.00    +0.032 HD
ATOM     87  H   UNL     1     146.352 167.138 182.869  0.00  0.00    +0.060 HD
ATOM     88  H   UNL     1     147.254 165.007 184.862  0.00  0.00    +0.036 HD
ATOM     89  H   UNL     1     148.789 163.547 188.522  0.00  0.00    +0.033 HD
ATOM     90  H   UNL     1     150.185 163.594 189.606  0.00  0.00    +0.033 HD
ATOM     91  H   UNL     1     148.196 162.180 190.534  0.00  0.00    +0.057 HD
ATOM     92  H   UNL     1     147.401 163.456 192.446  0.00  0.00    +0.059 HD
ATOM     93  H   UNL     1     151.154 154.970 187.972  0.00  0.00    +0.033 HD
ATOM     94  H   UNL     1     150.751 155.541 189.594  0.00  0.00    +0.033 HD
ATOM     95  H   UNL     1     149.187 153.664 189.137  0.00  0.00    +0.057 HD
ATOM     96  H   UNL     1     147.223 154.240 187.843  0.00  0.00    +0.059 HD
ENDROOT
BRANCH  28  97
ATOM     97  C   UNL     1     152.557 168.057 192.196  0.00  0.00    -0.040 C 
ATOM     98  H   UNL     1     151.993 168.797 191.619  0.00  0.00    +0.028 HD
ATOM     99  H   UNL     1     153.605 168.362 192.120  0.00  0.00    +0.028 HD
ATOM    100  H   UNL     1     152.270 168.136 193.250  0.00  0.00    +0.028 HD
ENDBRANCH  28  97
BRANCH  21 101
ATOM    101  C   UNL     1     155.787 164.011 187.840  0.00  0.00    -0.057 C 
ATOM    102  H   UNL     1     155.569 164.028 188.911  0.00  0.00    +0.023 HD
ATOM    103  H   UNL     1     156.588 163.287 187.678  0.00  0.00    +0.023 HD
ATOM    104  H   UNL     1     156.177 164.995 187.564  0.00  0.00    +0.023 HD
ENDBRANCH  21 101
BRANCH  42 105
ATOM    105  C   UNL     1     147.031 164.436 182.870  0.00  0.00    -0.057 C 
ATOM    106  H   UNL     1     148.116 164.395 182.765  0.00  0.00    +0.023 HD
ATOM    107  H   UNL     1     146.582 164.750 181.925  0.00  0.00    +0.023 HD
ATOM    108  H   UNL     1     146.702 163.411 183.060  0.00  0.00    +0.023 HD
ENDBRANCH  42 105
BRANCH  17 109
ATOM    109  C   UNL     1     154.445 158.222 187.354  0.00  0.00    -0.058 C 
ATOM    110  H   UNL     1     155.492 158.234 187.653  0.00  0.00    +0.023 HD
ATOM    111  H   UNL     1     154.365 158.845 186.457  0.00  0.00    +0.023 HD
ATOM    112  H   UNL     1     154.178 157.203 187.075  0.00  0.00    +0.023 HD
ENDBRANCH  17 109
BRANCH  38 113
ATOM    113  C   UNL     1     146.649 169.483 187.521  0.00  0.00    -0.058 C 
ATOM    114  H   UNL     1     145.560 169.604 187.498  0.00  0.00    +0.023 HD
ATOM    115  H   UNL     1     147.021 169.937 188.453  0.00  0.00    +0.023 HD
ATOM    116  H   UNL     1     147.049 170.068 186.688  0.00  0.00    +0.023 HD
ENDBRANCH  38 113
BRANCH   7 117
ATOM    117  C   UNL     1     145.569 160.189 189.775  0.00  0.00    -0.040 C 
ATOM    118  H   UNL     1     145.803 159.141 189.979  0.00  0.00    +0.028 HD
ATOM    119  H   UNL     1     144.851 160.528 190.527  0.00  0.00    +0.028 HD
ATOM    120  H   UNL     1     146.477 160.786 189.922  0.00  0.00    +0.028 HD
ENDBRANCH   7 117
BRANCH   1 121
ATOM    121  C   UNL     1     143.980 165.422 183.545  0.00  0.00    +0.020 C 
ATOM    122  H   UNL     1     144.340 166.115 182.778  0.00  0.00    +0.036 HD
BRANCH 121 123
ATOM    123  C   UNL     1     143.461 164.182 182.792  0.00  0.00    -0.057 C 
ATOM    124  H   UNL     1     142.627 164.416 182.127  0.00  0.00    +0.023 HD
ATOM    125  H   UNL     1     144.254 163.723 182.194  0.00  0.00    +0.023 HD
ATOM    126  H   UNL     1     143.146 163.403 183.490  0.00  0.00    +0.023 HD
ENDBRANCH 121 123
BRANCH 121 127
ATOM    127  C   UNL     1     142.757 166.100 184.250  0.00  0.00    +0.064 C 
ATOM    128  H   UNL     1     142.062 166.451 183.477  0.00  0.00    +0.060 HD
BRANCH 127 129
ATOM    129  C   UNL     1     143.091 167.323 185.153  0.00  0.00    -0.017 C 
ATOM    130  H   UNL     1     144.160 167.324 185.384  0.00  0.00    +0.032 HD
BRANCH 129 131
ATOM    131  C   UNL     1     142.746 168.644 184.459  0.00  0.00    -0.060 C 
ATOM    132  H   UNL     1     141.772 168.611 183.962  0.00  0.00    +0.023 HD
ATOM    133  H   UNL     1     142.731 169.475 185.174  0.00  0.00    +0.023 HD
ATOM    134  H   UNL     1     143.484 168.880 183.684  0.00  0.00    +0.023 HD
ENDBRANCH 129 131
BRANCH 129 135
ATOM    135  C   UNL     1     142.348 167.299 186.514  0.00  0.00    -0.046 C 
ATOM    136  H   UNL     1     141.611 168.111 186.507  0.00  0.00    +0.027 HD
ATOM    137  H   UNL     1     141.780 166.368 186.624  0.00  0.00    +0.027 HD
BRANCH 135 138
ATOM    138  C   UNL     1     143.259 167.481 187.736  0.00  0.00    -0.026 C 
ATOM    139  H   UNL     1     144.185 166.916 187.596  0.00  0.00    +0.029 HD
ATOM    140  H   UNL     1     143.540 168.539 187.817  0.00  0.00    +0.029 HD
BRANCH 138 143
ATOM    141  C   UNL     1     142.054 169.146 189.997  0.00  0.00    +0.059 C 
ATOM    142  O   UNL     1     141.581 167.889 189.500  0.00  0.00    -0.373 OA
ATOM    143  C   UNL     1     142.602 166.997 189.040  0.00  0.00    +0.061 C 
ATOM    144  C   UNL     1     143.617 166.737 190.155  0.00  0.00    -0.000 C 
ATOM    145  C   UNL     1     144.180 168.038 190.723  0.00  0.00    +0.063 C 
ATOM    146  C   UNL     1     143.029 168.944 191.150  0.00  0.00    -0.000 C 
ATOM    147  H   UNL     1     142.532 169.697 189.180  0.00  0.00    +0.059 HD
ATOM    148  H   UNL     1     142.094 166.049 188.819  0.00  0.00    +0.060 HD
ATOM    149  H   UNL     1     143.118 166.188 190.967  0.00  0.00    +0.032 HD
ATOM    150  H   UNL     1     144.426 166.086 189.805  0.00  0.00    +0.032 HD
ATOM    151  H   UNL     1     144.789 168.533 189.957  0.00  0.00    +0.060 HD
ATOM    152  H   UNL     1     143.404 169.912 191.505  0.00  0.00    +0.032 HD
ATOM    153  H   UNL     1     142.515 168.481 192.006  0.00  0.00    +0.032 HD
BRANCH 141 154
ATOM    154  C   UNL     1     140.835 169.941 190.443  0.00  0.00    -0.039 C 
ATOM    155  H   UNL     1     140.210 170.229 189.592  0.00  0.00    +0.025 HD
ATOM    156  H   UNL     1     140.227 169.351 191.139  0.00  0.00    +0.025 HD
ATOM    157  H   UNL     1     141.136 170.846 190.982  0.00  0.00    +0.025 HD
ENDBRANCH 141 154
BRANCH 145 158
ATOM    158  O   UNL     1     145.027 167.690 191.823  0.00  0.00    -0.380 OA
BRANCH 158 159
ATOM    159  C   UNL     1     144.680 166.453 192.434  0.00  0.00    +0.037 C 
ATOM    160  H   UNL     1     144.248 166.669 193.413  0.00  0.00    +0.052 HD
ATOM    161  H   UNL     1     145.567 165.835 192.582  0.00  0.00    +0.052 HD
ATOM    162  H   UNL     1     143.936 165.911 191.844  0.00  0.00    +0.052 HD
ENDBRANCH 158 159
ENDBRANCH 145 158
ENDBRANCH 138 143
ENDBRANCH 135 138
ENDBRANCH 129 135
ENDBRANCH 127 129
BRANCH 127 163
ATOM    163  O   UNL     1     142.053 165.125 185.016  0.00  0.00    -0.391 OA
ATOM    164  H   UNL     1     142.523 165.002 185.857  0.00  0.00    +0.210 HD
ENDBRANCH 127 163
ENDBRANCH 121 127
ENDBRANCH   1 121
BRANCH  41 165
ATOM    165  O   UNL     1     148.332 166.907 183.314  0.00  0.00    -0.391 OA
ATOM    166  H   UNL     1     148.416 166.405 182.483  0.00  0.00    +0.210 HD
ENDBRANCH  41 165
BRANCH  39 167
ATOM    167  O   UNL     1     148.532 166.589 186.046  0.00  0.00    -0.391 OA
ATOM    168  H   UNL     1     149.123 166.625 186.829  0.00  0.00    +0.210 HD
ENDBRANCH  39 167
BRANCH  31 169
ATOM    169  O   UNL     1     149.764 163.715 193.849  0.00  0.00    -0.391 OA
ATOM    170  H   UNL     1     149.096 163.488 193.177  0.00  0.00    +0.210 HD
ENDBRANCH  31 169
BRANCH  22 171
ATOM    171  C   UNL     1     152.561 164.665 185.629  0.00  0.00    +0.020 C 
ATOM    172  H   UNL     1     152.517 163.592 185.432  0.00  0.00    +0.036 HD
BRANCH 171 173
ATOM    173  C   UNL     1     151.237 164.956 186.363  0.00  0.00    -0.057 C 
ATOM    174  H   UNL     1     150.885 165.971 186.149  0.00  0.00    +0.023 HD
ATOM    175  H   UNL     1     150.448 164.264 186.042  0.00  0.00    +0.023 HD
ATOM    176  H   UNL     1     151.342 164.837 187.445  0.00  0.00    +0.023 HD
ENDBRANCH 171 173
BRANCH 171 177
ATOM    177  C   UNL     1     152.531 165.441 184.267  0.00  0.00    +0.064 C 
ATOM    178  H   UNL     1     152.228 166.481 184.456  0.00  0.00    +0.060 HD
BRANCH 177 179
ATOM    179  O   UNL     1     153.840 165.535 183.707  0.00  0.00    -0.391 OA
ATOM    180  H   UNL     1     153.943 166.433 183.344  0.00  0.00    +0.210 HD
ENDBRANCH 177 179
BRANCH 177 181
ATOM    181  C   UNL     1     151.546 164.841 183.204  0.00  0.00    -0.017 C 
ATOM    182  H   UNL     1     150.526 165.148 183.477  0.00  0.00    +0.032 HD
BRANCH 181 183
ATOM    183  C   UNL     1     151.864 165.363 181.793  0.00  0.00    -0.060 C 
ATOM    184  H   UNL     1     152.820 165.897 181.806  0.00  0.00    +0.023 HD
ATOM    185  H   UNL     1     151.099 166.042 181.408  0.00  0.00    +0.023 HD
ATOM    186  H   UNL     1     151.922 164.552 181.065  0.00  0.00    +0.023 HD
ENDBRANCH 181 183
BRANCH 181 187
ATOM    187  C   UNL     1     151.581 163.283 183.216  0.00  0.00    -0.046 C 
ATOM    188  H   UNL     1     152.277 162.948 183.989  0.00  0.00    +0.027 HD
ATOM    189  H   UNL     1     151.974 162.949 182.248  0.00  0.00    +0.027 HD
BRANCH 187 190
ATOM    190  C   UNL     1     150.213 162.618 183.468  0.00  0.00    -0.026 C 
ATOM    191  H   UNL     1     149.705 162.510 182.505  0.00  0.00    +0.029 HD
ATOM    192  H   UNL     1     149.603 163.294 184.079  0.00  0.00    +0.029 HD
BRANCH 190 193
ATOM    193  C   UNL     1     150.187 161.212 184.105  0.00  0.00    +0.061 C 
ATOM    194  O   UNL     1     149.022 160.460 183.764  0.00  0.00    -0.373 OA
ATOM    195  C   UNL     1     147.878 160.653 184.586  0.00  0.00    +0.059 C 
ATOM    196  C   UNL     1     148.193 160.398 186.053  0.00  0.00    -0.000 C 
ATOM    197  C   UNL     1     149.341 161.302 186.514  0.00  0.00    +0.063 C 
ATOM    198  C   UNL     1     150.542 161.118 185.589  0.00  0.00    -0.000 C 
ATOM    199  H   UNL     1     150.991 160.676 183.581  0.00  0.00    +0.060 HD
ATOM    200  H   UNL     1     147.502 161.671 184.444  0.00  0.00    +0.059 HD
ATOM    201  H   UNL     1     147.302 160.572 186.665  0.00  0.00    +0.032 HD
ATOM    202  H   UNL     1     148.485 159.355 186.217  0.00  0.00    +0.032 HD
ATOM    203  H   UNL     1     149.013 162.344 186.501  0.00  0.00    +0.060 HD
ATOM    204  H   UNL     1     150.942 160.111 185.777  0.00  0.00    +0.032 HD
ATOM    205  H   UNL     1     151.353 161.808 185.853  0.00  0.00    +0.032 HD
BRANCH 195 206
ATOM    206  C   UNL     1     146.805 159.683 184.105  0.00  0.00    -0.039 C 
ATOM    207  H   UNL     1     146.792 159.624 183.016  0.00  0.00    +0.025 HD
ATOM    208  H   UNL     1     146.979 158.682 184.506  0.00  0.00    +0.025 HD
ATOM    209  H   UNL     1     145.814 159.991 184.448  0.00  0.00    +0.025 HD
ENDBRANCH 195 206
BRANCH 197 210
ATOM    210  O   UNL     1     149.788 161.004 187.843  0.00  0.00    -0.380 OA
BRANCH 210 211
ATOM    211  C   UNL     1     148.869 160.237 188.606  0.00  0.00    +0.037 C 
ATOM    212  H   UNL     1     148.052 159.893 187.971  0.00  0.00    +0.052 HD
ATOM    213  H   UNL     1     149.392 159.353 188.982  0.00  0.00    +0.052 HD
ATOM    214  H   UNL     1     148.484 160.805 189.454  0.00  0.00    +0.052 HD
ENDBRANCH 210 211
ENDBRANCH 197 210
ENDBRANCH 190 193
ENDBRANCH 187 190
ENDBRANCH 181 187
ENDBRANCH 177 181
ENDBRANCH 171 177
ENDBRANCH  22 171
BRANCH  20 215
ATOM    215  O   UNL     1     153.302 163.068 189.113  0.00  0.00    -0.391 OA
ATOM    216  H   UNL     1     152.797 162.368 189.560  0.00  0.00    +0.210 HD
ENDBRANCH  20 215
BRANCH  18 217
ATOM    217  O   UNL     1     152.178 160.636 189.184  0.00  0.00    -0.391 OA
ATOM    218  H   UNL     1     152.690 160.791 190.007  0.00  0.00    +0.210 HD
ENDBRANCH  18 217
BRANCH  10 219
ATOM    219  O   UNL     1     145.164 155.581 187.556  0.00  0.00    -0.391 OA
ATOM    220  H   UNL     1     145.659 155.008 186.944  0.00  0.00    +0.210 HD
ENDBRANCH  10 219
BRANCH  37 221
ATOM    221  O   UNL     1     147.506 168.206 189.818  0.00  0.00    -0.379 OA
BRANCH 221 222
ATOM    222  C   UNL     1     148.532 168.967 190.442  0.00  0.00    +0.037 C 
ATOM    223  H   UNL     1     149.519 168.603 190.137  0.00  0.00    +0.052 HD
ATOM    224  H   UNL     1     148.445 168.928 191.531  0.00  0.00    +0.052 HD
ATOM    225  H   UNL     1     148.435 170.011 190.126  0.00  0.00    +0.052 HD
ENDBRANCH 221 222
ENDBRANCH  37 221
BRANCH  16 226
ATOM    226  O   UNL     1     151.679 158.043 189.990  0.00  0.00    -0.379 OA
BRANCH 226 227
ATOM    227  C   UNL     1     152.457 157.944 191.174  0.00  0.00    +0.037 C 
ATOM    228  H   UNL     1     152.961 156.974 191.163  0.00  0.00    +0.052 HD
ATOM    229  H   UNL     1     153.224 158.726 191.209  0.00  0.00    +0.052 HD
ATOM    230  H   UNL     1     151.829 157.985 192.068  0.00  0.00    +0.052 HD
ENDBRANCH 226 227
ENDBRANCH  16 226
TORSDOF 40
ENDMDL
MODEL 8
REMARK VINA RESULT:      -5.0      6.256     12.092
REMARK  Name = Swinholide A_conf2
REMARK  40 active torsions:
REMARK  status: ('A' for Active; 'I' for Inactive)
REMARK    1  A    between atoms: C_1  and  C_2
REMARK    2  A    between atoms: C_4  and  C_10
REMARK    3  A    between atoms: C_6  and  O_8
REMARK    4  A    between atoms: O_8  and  C_9
REMARK    5  A    between atoms: C_10  and  C_11
REMARK    6  A    between atoms: C_11  and  C_12
REMARK    7  A    between atoms: C_12  and  C_13
REMARK    8  A    between atoms: C_12  and  C_98
REMARK    9  A    between atoms: C_13  and  O_14
REMARK   10  A    between atoms: C_13  and  C_15
REMARK   11  A    between atoms: C_15  and  C_16
REMARK   12  A    between atoms: C_15  and  C_97
REMARK   13  A    between atoms: C_22  and  C_96
REMARK   14  A    between atoms: C_25  and  O_95
REMARK   15  A    between atoms: C_31  and  O_90
REMARK   16  A    between atoms: C_32  and  C_89
REMARK   17  A    between atoms: C_33  and  O_88
REMARK   18  A    between atoms: C_35  and  O_87
REMARK   19  A    between atoms: C_36  and  C_86
REMARK   20  A    between atoms: C_37  and  C_69
REMARK   21  A    between atoms: C_43  and  C_68
REMARK   22  A    between atoms: C_46  and  O_67
REMARK   23  A    between atoms: C_52  and  O_62
REMARK   24  A    between atoms: C_53  and  C_61
REMARK   25  A    between atoms: C_54  and  O_60
REMARK   26  A    between atoms: C_56  and  O_59
REMARK   27  A    between atoms: C_57  and  C_58
REMARK   28  A    between atoms: O_62  and  C_63
REMARK   29  A    between atoms: C_69  and  C_70
REMARK   30  A    between atoms: C_69  and  C_85
REMARK   31  A    between atoms: C_70  and  O_71
REMARK   32  A    between atoms: C_70  and  C_72
REMARK   33  A    between atoms: C_72  and  C_73
REMARK   34  A    between atoms: C_72  and  C_84
REMARK   35  A    between atoms: C_73  and  C_74
REMARK   36  A    between atoms: C_74  and  C_75
REMARK   37  A    between atoms: C_77  and  C_83
REMARK   38  A    between atoms: C_79  and  O_81
REMARK   39  A    between atoms: O_81  and  C_82
REMARK   40  A    between atoms: O_90  and  C_91
REMARK                            x       y       z     vdW  Elec       q    Type
REMARK                         _______ _______ _______ _____ _____    ______ ____
ROOT
ATOM      1  C   UNL     1     154.505 165.303 187.982  0.00  0.00    +0.113 C 
ATOM      2  O   UNL     1     154.852 166.428 187.133  0.00  0.00    -0.458 OA
ATOM      3  C   UNL     1     154.938 166.167 185.806  0.00  0.00    +0.332 C 
ATOM      4  O   UNL     1     154.721 165.105 185.250  0.00  0.00    -0.246 OA
ATOM      5  C   UNL     1     155.390 167.394 185.113  0.00  0.00    +0.023 C 
ATOM      6  C   UNL     1     155.457 167.401 183.773  0.00  0.00    -0.052 C 
ATOM      7  C   UNL     1     155.959 168.489 182.940  0.00  0.00    -0.054 C 
ATOM      8  C   UNL     1     155.832 169.785 183.288  0.00  0.00    -0.079 C 
ATOM      9  C   UNL     1     156.254 170.976 182.465  0.00  0.00    -0.008 C 
ATOM     10  C   UNL     1     157.400 171.801 183.086  0.00  0.00    +0.061 C 
ATOM     11  C   UNL     1     158.748 171.064 183.037  0.00  0.00    +0.003 C 
ATOM     12  C   UNL     1     159.964 171.927 183.435  0.00  0.00    +0.080 C 
ATOM     13  O   UNL     1     161.023 171.098 183.964  0.00  0.00    -0.369 OA
ATOM     14  C   UNL     1     161.794 170.418 182.955  0.00  0.00    +0.065 C 
ATOM     15  C   UNL     1     162.767 169.482 183.696  0.00  0.00    +0.000 C 
ATOM     16  C   UNL     1     163.776 168.743 182.789  0.00  0.00    +0.066 C 
ATOM     17  C   UNL     1     164.561 167.606 183.530  0.00  0.00    +0.009 C 
ATOM     18  C   UNL     1     163.653 166.533 184.181  0.00  0.00    +0.063 C 
ATOM     19  C   UNL     1     164.441 165.372 184.838  0.00  0.00    -0.000 C 
ATOM     20  C   UNL     1     163.470 164.272 185.293  0.00  0.00    +0.064 C 
ATOM     21  C   UNL     1     164.023 163.360 186.420  0.00  0.00    +0.020 C 
ATOM     22  C   UNL     1     162.902 162.534 187.128  0.00  0.00    +0.113 C 
ATOM     23  O   UNL     1     162.338 161.703 186.075  0.00  0.00    -0.458 OA
ATOM     24  C   UNL     1     162.061 160.403 186.308  0.00  0.00    +0.332 C 
ATOM     25  O   UNL     1     162.084 159.831 187.399  0.00  0.00    -0.246 OA
ATOM     26  C   UNL     1     161.703 159.704 185.055  0.00  0.00    +0.023 C 
ATOM     27  C   UNL     1     161.536 160.332 183.872  0.00  0.00    -0.052 C 
ATOM     28  C   UNL     1     161.168 159.738 182.590  0.00  0.00    -0.054 C 
ATOM     29  C   UNL     1     160.953 160.567 181.547  0.00  0.00    -0.079 C 
ATOM     30  C   UNL     1     160.488 160.222 180.161  0.00  0.00    -0.008 C 
ATOM     31  C   UNL     1     159.335 161.083 179.605  0.00  0.00    +0.061 C 
ATOM     32  C   UNL     1     157.985 160.997 180.346  0.00  0.00    +0.003 C 
ATOM     33  C   UNL     1     157.681 161.912 181.549  0.00  0.00    +0.080 C 
ATOM     34  O   UNL     1     158.446 161.506 182.688  0.00  0.00    -0.369 OA
ATOM     35  C   UNL     1     158.364 162.377 183.821  0.00  0.00    +0.065 C 
ATOM     36  C   UNL     1     156.975 162.400 184.482  0.00  0.00    +0.000 C 
ATOM     37  C   UNL     1     156.641 161.052 185.165  0.00  0.00    +0.066 C 
ATOM     38  C   UNL     1     155.613 161.246 186.315  0.00  0.00    +0.009 C 
ATOM     39  C   UNL     1     156.280 161.700 187.648  0.00  0.00    +0.063 C 
ATOM     40  C   UNL     1     155.251 162.302 188.641  0.00  0.00    -0.000 C 
ATOM     41  C   UNL     1     155.693 163.514 189.473  0.00  0.00    +0.064 C 
ATOM     42  C   UNL     1     155.813 164.855 188.706  0.00  0.00    +0.020 C 
ATOM     43  C   UNL     1     158.885 163.777 183.450  0.00  0.00    -0.008 C 
ATOM     44  C   UNL     1     158.393 164.244 182.113  0.00  0.00    -0.083 C 
ATOM     45  C   UNL     1     157.834 163.383 181.259  0.00  0.00    -0.059 C 
ATOM     46  C   UNL     1     162.527 171.436 182.070  0.00  0.00    -0.008 C 
ATOM     47  C   UNL     1     161.630 172.566 181.665  0.00  0.00    -0.083 C 
ATOM     48  C   UNL     1     160.476 172.789 182.305  0.00  0.00    -0.059 C 
ATOM     49  H   UNL     1     154.216 164.459 187.358  0.00  0.00    +0.074 HD
ATOM     50  H   UNL     1     155.683 168.231 185.728  0.00  0.00    +0.069 HD
ATOM     51  H   UNL     1     155.164 166.505 183.227  0.00  0.00    +0.062 HD
ATOM     52  H   UNL     1     155.334 170.043 184.222  0.00  0.00    +0.058 HD
ATOM     53  H   UNL     1     155.372 171.619 182.352  0.00  0.00    +0.033 HD
ATOM     54  H   UNL     1     156.521 170.702 181.440  0.00  0.00    +0.033 HD
ATOM     55  H   UNL     1     157.159 172.039 184.125  0.00  0.00    +0.060 HD
ATOM     56  H   UNL     1     158.699 170.187 183.693  0.00  0.00    +0.032 HD
ATOM     57  H   UNL     1     158.913 170.669 182.028  0.00  0.00    +0.032 HD
ATOM     58  H   UNL     1     159.682 172.583 184.265  0.00  0.00    +0.064 HD
ATOM     59  H   UNL     1     161.114 169.805 182.351  0.00  0.00    +0.060 HD
ATOM     60  H   UNL     1     163.311 170.045 184.464  0.00  0.00    +0.032 HD
ATOM     61  H   UNL     1     162.143 168.764 184.242  0.00  0.00    +0.032 HD
ATOM     62  H   UNL     1     164.512 169.484 182.444  0.00  0.00    +0.060 HD
ATOM     63  H   UNL     1     165.163 167.092 182.775  0.00  0.00    +0.035 HD
ATOM     64  H   UNL     1     163.054 166.992 184.978  0.00  0.00    +0.060 HD
ATOM     65  H   UNL     1     165.006 165.754 185.698  0.00  0.00    +0.032 HD
ATOM     66  H   UNL     1     165.154 164.961 184.116  0.00  0.00    +0.032 HD
ATOM     67  H   UNL     1     162.571 164.772 185.652  0.00  0.00    +0.060 HD
ATOM     68  H   UNL     1     164.496 164.016 187.157  0.00  0.00    +0.036 HD
ATOM     69  H   UNL     1     163.363 161.897 187.893  0.00  0.00    +0.074 HD
ATOM     70  H   UNL     1     161.554 158.637 185.170  0.00  0.00    +0.069 HD
ATOM     71  H   UNL     1     161.650 161.416 183.851  0.00  0.00    +0.062 HD
ATOM     72  H   UNL     1     161.080 161.641 181.707  0.00  0.00    +0.058 HD
ATOM     73  H   UNL     1     161.356 160.344 179.499  0.00  0.00    +0.033 HD
ATOM     74  H   UNL     1     160.184 159.176 180.091  0.00  0.00    +0.033 HD
ATOM     75  H   UNL     1     159.141 160.662 178.612  0.00  0.00    +0.060 HD
ATOM     76  H   UNL     1     157.832 159.955 180.658  0.00  0.00    +0.032 HD
ATOM     77  H   UNL     1     157.210 161.210 179.603  0.00  0.00    +0.032 HD
ATOM     78  H   UNL     1     156.628 161.733 181.790  0.00  0.00    +0.064 HD
ATOM     79  H   UNL     1     159.070 161.978 184.561  0.00  0.00    +0.060 HD
ATOM     80  H   UNL     1     156.197 162.643 183.750  0.00  0.00    +0.032 HD
ATOM     81  H   UNL     1     156.967 163.217 185.213  0.00  0.00    +0.032 HD
ATOM     82  H   UNL     1     157.549 160.594 185.579  0.00  0.00    +0.060 HD
ATOM     83  H   UNL     1     154.910 162.023 185.988  0.00  0.00    +0.035 HD
ATOM     84  H   UNL     1     156.727 160.815 188.121  0.00  0.00    +0.060 HD
ATOM     85  H   UNL     1     154.991 161.493 189.343  0.00  0.00    +0.032 HD
ATOM     86  H   UNL     1     154.312 162.522 188.130  0.00  0.00    +0.032 HD
ATOM     87  H   UNL     1     154.986 163.656 190.296  0.00  0.00    +0.060 HD
ATOM     88  H   UNL     1     156.562 164.733 187.912  0.00  0.00    +0.036 HD
ATOM     89  H   UNL     1     158.615 164.507 184.222  0.00  0.00    +0.033 HD
ATOM     90  H   UNL     1     159.980 163.751 183.390  0.00  0.00    +0.033 HD
ATOM     91  H   UNL     1     158.541 165.284 181.843  0.00  0.00    +0.057 HD
ATOM     92  H   UNL     1     157.485 163.738 180.289  0.00  0.00    +0.059 HD
ATOM     93  H   UNL     1     163.389 171.858 182.597  0.00  0.00    +0.033 HD
ATOM     94  H   UNL     1     162.905 170.940 181.169  0.00  0.00    +0.033 HD
ATOM     95  H   UNL     1     161.949 173.213 180.859  0.00  0.00    +0.057 HD
ATOM     96  H   UNL     1     159.848 173.620 181.994  0.00  0.00    +0.059 HD
ENDROOT
BRANCH  28  97
ATOM     97  C   UNL     1     161.033 158.238 182.523  0.00  0.00    -0.040 C 
ATOM     98  H   UNL     1     161.919 157.757 182.950  0.00  0.00    +0.028 HD
ATOM     99  H   UNL     1     160.949 157.849 181.504  0.00  0.00    +0.028 HD
ATOM    100  H   UNL     1     160.147 157.901 183.074  0.00  0.00    +0.028 HD
ENDBRANCH  28  97
BRANCH  21 101
ATOM    101  C   UNL     1     165.126 162.416 185.922  0.00  0.00    -0.057 C 
ATOM    102  H   UNL     1     164.986 161.404 186.308  0.00  0.00    +0.023 HD
ATOM    103  H   UNL     1     165.111 162.359 184.832  0.00  0.00    +0.023 HD
ATOM    104  H   UNL     1     166.126 162.749 186.216  0.00  0.00    +0.023 HD
ENDBRANCH  21 101
BRANCH  42 105
ATOM    105  C   UNL     1     156.433 165.935 189.609  0.00  0.00    -0.057 C 
ATOM    106  H   UNL     1     156.107 166.935 189.320  0.00  0.00    +0.023 HD
ATOM    107  H   UNL     1     157.525 165.891 189.608  0.00  0.00    +0.023 HD
ATOM    108  H   UNL     1     156.104 165.791 190.641  0.00  0.00    +0.023 HD
ENDBRANCH  42 105
BRANCH  17 109
ATOM    109  C   UNL     1     165.539 168.204 184.548  0.00  0.00    -0.058 C 
ATOM    110  H   UNL     1     165.348 169.264 184.710  0.00  0.00    +0.023 HD
ATOM    111  H   UNL     1     166.568 168.120 184.184  0.00  0.00    +0.023 HD
ATOM    112  H   UNL     1     165.484 167.694 185.510  0.00  0.00    +0.023 HD
ENDBRANCH  17 109
BRANCH  38 113
ATOM    113  C   UNL     1     154.773 159.986 186.592  0.00  0.00    -0.058 C 
ATOM    114  H   UNL     1     154.420 159.511 185.669  0.00  0.00    +0.023 HD
ATOM    115  H   UNL     1     155.361 159.242 187.152  0.00  0.00    +0.023 HD
ATOM    116  H   UNL     1     153.886 160.221 187.187  0.00  0.00    +0.023 HD
ENDBRANCH  38 113
BRANCH   7 117
ATOM    117  C   UNL     1     156.591 168.041 181.648  0.00  0.00    -0.040 C 
ATOM    118  H   UNL     1     156.469 168.809 180.880  0.00  0.00    +0.028 HD
ATOM    119  H   UNL     1     156.133 167.119 181.279  0.00  0.00    +0.028 HD
ATOM    120  H   UNL     1     157.660 167.831 181.765  0.00  0.00    +0.028 HD
ENDBRANCH   7 117
BRANCH   1 121
ATOM    121  C   UNL     1     153.260 165.646 188.851  0.00  0.00    +0.020 C 
ATOM    122  H   UNL     1     153.413 165.247 189.858  0.00  0.00    +0.036 HD
BRANCH 121 123
ATOM    123  C   UNL     1     153.018 167.158 189.021  0.00  0.00    -0.057 C 
ATOM    124  H   UNL     1     153.334 167.733 188.147  0.00  0.00    +0.023 HD
ATOM    125  H   UNL     1     151.960 167.370 189.203  0.00  0.00    +0.023 HD
ATOM    126  H   UNL     1     153.539 167.541 189.901  0.00  0.00    +0.023 HD
ENDBRANCH 121 123
BRANCH 121 127
ATOM    127  C   UNL     1     151.941 165.011 188.292  0.00  0.00    +0.064 C 
ATOM    128  H   UNL     1     151.164 165.786 188.272  0.00  0.00    +0.060 HD
BRANCH 127 129
ATOM    129  C   UNL     1     151.370 163.814 189.107  0.00  0.00    -0.017 C 
ATOM    130  H   UNL     1     150.298 163.961 189.267  0.00  0.00    +0.032 HD
BRANCH 129 131
ATOM    131  C   UNL     1     151.569 162.486 188.368  0.00  0.00    -0.060 C 
ATOM    132  H   UNL     1     152.015 161.718 189.006  0.00  0.00    +0.023 HD
ATOM    133  H   UNL     1     150.617 162.097 187.988  0.00  0.00    +0.023 HD
ATOM    134  H   UNL     1     152.245 162.615 187.515  0.00  0.00    +0.023 HD
ENDBRANCH 129 131
BRANCH 129 135
ATOM    135  C   UNL     1     152.008 163.670 190.513  0.00  0.00    -0.046 C 
ATOM    136  H   UNL     1     152.535 162.709 190.544  0.00  0.00    +0.027 HD
ATOM    137  H   UNL     1     152.769 164.444 190.668  0.00  0.00    +0.027 HD
BRANCH 135 138
ATOM    138  C   UNL     1     151.003 163.712 191.672  0.00  0.00    -0.026 C 
ATOM    139  H   UNL     1     150.313 162.867 191.595  0.00  0.00    +0.029 HD
ATOM    140  H   UNL     1     151.546 163.596 192.618  0.00  0.00    +0.029 HD
BRANCH 138 143
ATOM    141  C   UNL     1     151.707 166.424 192.891  0.00  0.00    +0.059 C 
ATOM    142  O   UNL     1     150.986 166.180 191.678  0.00  0.00    -0.373 OA
ATOM    143  C   UNL     1     150.169 165.004 191.684  0.00  0.00    +0.061 C 
ATOM    144  C   UNL     1     149.176 165.058 192.847  0.00  0.00    -0.000 C 
ATOM    145  C   UNL     1     149.878 165.298 194.182  0.00  0.00    +0.063 C 
ATOM    146  C   UNL     1     150.757 166.542 194.075  0.00  0.00    -0.000 C 
ATOM    147  H   UNL     1     152.423 165.611 193.051  0.00  0.00    +0.059 HD
ATOM    148  H   UNL     1     149.594 165.033 190.749  0.00  0.00    +0.060 HD
ATOM    149  H   UNL     1     148.469 165.882 192.671  0.00  0.00    +0.032 HD
ATOM    150  H   UNL     1     148.570 164.146 192.888  0.00  0.00    +0.032 HD
ATOM    151  H   UNL     1     150.490 164.422 194.431  0.00  0.00    +0.060 HD
ATOM    152  H   UNL     1     151.322 166.702 195.001  0.00  0.00    +0.032 HD
ATOM    153  H   UNL     1     150.107 167.422 193.955  0.00  0.00    +0.032 HD
BRANCH 141 154
ATOM    154  C   UNL     1     152.498 167.708 192.693  0.00  0.00    -0.039 C 
ATOM    155  H   UNL     1     151.853 168.533 192.376  0.00  0.00    +0.025 HD
ATOM    156  H   UNL     1     153.001 167.996 193.624  0.00  0.00    +0.025 HD
ATOM    157  H   UNL     1     153.286 167.569 191.944  0.00  0.00    +0.025 HD
ENDBRANCH 141 154
BRANCH 145 158
ATOM    158  O   UNL     1     148.862 165.441 195.179  0.00  0.00    -0.380 OA
BRANCH 158 159
ATOM    159  C   UNL     1     149.366 165.853 196.443  0.00  0.00    +0.037 C 
ATOM    160  H   UNL     1     149.657 164.958 196.999  0.00  0.00    +0.052 HD
ATOM    161  H   UNL     1     148.595 166.373 197.014  0.00  0.00    +0.052 HD
ATOM    162  H   UNL     1     150.249 166.489 196.334  0.00  0.00    +0.052 HD
ENDBRANCH 158 159
ENDBRANCH 145 158
ENDBRANCH 138 143
ENDBRANCH 135 138
ENDBRANCH 129 135
ENDBRANCH 127 129
BRANCH 127 163
ATOM    163  O   UNL     1     152.146 164.607 186.940  0.00  0.00    -0.391 OA
ATOM    164  H   UNL     1     151.278 164.473 186.528  0.00  0.00    +0.210 HD
ENDBRANCH 127 163
ENDBRANCH 121 127
ENDBRANCH   1 121
BRANCH  41 165
ATOM    165  O   UNL     1     156.962 163.195 190.067  0.00  0.00    -0.391 OA
ATOM    166  H   UNL     1     156.836 162.391 190.601  0.00  0.00    +0.210 HD
ENDBRANCH  41 165
BRANCH  39 167
ATOM    167  O   UNL     1     157.364 162.577 187.409  0.00  0.00    -0.391 OA
ATOM    168  H   UNL     1     157.196 163.020 186.550  0.00  0.00    +0.210 HD
ENDBRANCH  39 167
BRANCH  31 169
ATOM    169  O   UNL     1     159.724 162.428 179.343  0.00  0.00    -0.391 OA
ATOM    170  H   UNL     1     160.617 162.569 179.706  0.00  0.00    +0.210 HD
ENDBRANCH  31 169
BRANCH  22 171
ATOM    171  C   UNL     1     161.760 163.378 187.783  0.00  0.00    +0.020 C 
ATOM    172  H   UNL     1     162.169 164.371 187.979  0.00  0.00    +0.036 HD
BRANCH 171 173
ATOM    173  C   UNL     1     160.619 163.645 186.783  0.00  0.00    -0.057 C 
ATOM    174  H   UNL     1     160.914 163.362 185.766  0.00  0.00    +0.023 HD
ATOM    175  H   UNL     1     159.727 163.059 187.037  0.00  0.00    +0.023 HD
ATOM    176  H   UNL     1     160.318 164.697 186.785  0.00  0.00    +0.023 HD
ENDBRANCH 171 173
BRANCH 171 177
ATOM    177  C   UNL     1     161.119 162.817 189.100  0.00  0.00    +0.064 C 
ATOM    178  H   UNL     1     160.596 163.634 189.618  0.00  0.00    +0.060 HD
BRANCH 177 179
ATOM    179  O   UNL     1     160.102 161.861 188.802  0.00  0.00    -0.391 OA
ATOM    180  H   UNL     1     159.400 161.957 189.470  0.00  0.00    +0.210 HD
ENDBRANCH 177 179
BRANCH 177 181
ATOM    181  C   UNL     1     162.149 162.194 190.104  0.00  0.00    -0.017 C 
ATOM    182  H   UNL     1     162.909 161.656 189.519  0.00  0.00    +0.032 HD
BRANCH 181 183
ATOM    183  C   UNL     1     162.843 163.285 190.937  0.00  0.00    -0.060 C 
ATOM    184  H   UNL     1     162.180 163.605 191.748  0.00  0.00    +0.023 HD
ATOM    185  H   UNL     1     163.110 164.166 190.348  0.00  0.00    +0.023 HD
ATOM    186  H   UNL     1     163.782 162.931 191.368  0.00  0.00    +0.023 HD
ENDBRANCH 181 183
BRANCH 181 187
ATOM    187  C   UNL     1     161.467 161.158 191.046  0.00  0.00    -0.046 C 
ATOM    188  H   UNL     1     161.925 160.178 190.890  0.00  0.00    +0.027 HD
ATOM    189  H   UNL     1     160.413 161.081 190.753  0.00  0.00    +0.027 HD
BRANCH 187 190
ATOM    190  C   UNL     1     161.556 161.506 192.545  0.00  0.00    -0.026 C 
ATOM    191  H   UNL     1     162.318 162.281 192.670  0.00  0.00    +0.029 HD
ATOM    192  H   UNL     1     161.905 160.621 193.090  0.00  0.00    +0.029 HD
BRANCH 190 193
ATOM    193  C   UNL     1     160.295 162.056 193.247  0.00  0.00    +0.061 C 
ATOM    194  O   UNL     1     160.332 163.469 193.446  0.00  0.00    -0.373 OA
ATOM    195  C   UNL     1     160.967 163.928 194.633  0.00  0.00    +0.059 C 
ATOM    196  C   UNL     1     160.362 163.290 195.875  0.00  0.00    -0.000 C 
ATOM    197  C   UNL     1     160.443 161.762 195.781  0.00  0.00    +0.063 C 
ATOM    198  C   UNL     1     159.800 161.294 194.477  0.00  0.00    -0.000 C 
ATOM    199  H   UNL     1     159.505 161.932 192.493  0.00  0.00    +0.060 HD
ATOM    200  H   UNL     1     162.039 163.710 194.572  0.00  0.00    +0.059 HD
ATOM    201  H   UNL     1     160.881 163.644 196.772  0.00  0.00    +0.032 HD
ATOM    202  H   UNL     1     159.311 163.576 195.990  0.00  0.00    +0.032 HD
ATOM    203  H   UNL     1     161.489 161.449 195.818  0.00  0.00    +0.060 HD
ATOM    204  H   UNL     1     158.719 161.470 194.570  0.00  0.00    +0.032 HD
ATOM    205  H   UNL     1     159.910 160.210 194.350  0.00  0.00    +0.032 HD
BRANCH 195 206
ATOM    206  C   UNL     1     160.795 165.441 194.685  0.00  0.00    -0.039 C 
ATOM    207  H   UNL     1     160.833 165.803 195.714  0.00  0.00    +0.025 HD
ATOM    208  H   UNL     1     161.577 165.941 194.110  0.00  0.00    +0.025 HD
ATOM    209  H   UNL     1     159.841 165.743 194.247  0.00  0.00    +0.025 HD
ENDBRANCH 195 206
BRANCH 197 210
ATOM    210  O   UNL     1     159.754 161.100 196.848  0.00  0.00    -0.380 OA
BRANCH 210 211
ATOM    211  C   UNL     1     158.511 161.692 197.193  0.00  0.00    +0.037 C 
ATOM    212  H   UNL     1     157.849 161.702 196.327  0.00  0.00    +0.052 HD
ATOM    213  H   UNL     1     158.040 161.075 197.964  0.00  0.00    +0.052 HD
ATOM    214  H   UNL     1     158.645 162.701 197.585  0.00  0.00    +0.052 HD
ENDBRANCH 210 211
ENDBRANCH 197 210
ENDBRANCH 190 193
ENDBRANCH 187 190
ENDBRANCH 181 187
ENDBRANCH 177 181
ENDBRANCH 171 177
ENDBRANCH  22 171
BRANCH  20 215
ATOM    215  O   UNL     1     163.089 163.546 184.117  0.00  0.00    -0.391 OA
ATOM    216  H   UNL     1     163.435 164.010 183.336  0.00  0.00    +0.210 HD
ENDBRANCH  20 215
BRANCH  18 217
ATOM    217  O   UNL     1     162.740 166.042 183.205  0.00  0.00    -0.391 OA
ATOM    218  H   UNL     1     162.296 166.791 182.751  0.00  0.00    +0.210 HD
ENDBRANCH  18 217
BRANCH  10 219
ATOM    219  O   UNL     1     157.474 173.041 182.380  0.00  0.00    -0.391 OA
ATOM    220  H   UNL     1     157.188 173.747 182.987  0.00  0.00    +0.210 HD
ENDBRANCH  10 219
BRANCH  37 221
ATOM    221  O   UNL     1     156.067 160.203 184.159  0.00  0.00    -0.379 OA
BRANCH 221 222
ATOM    222  C   UNL     1     156.783 158.984 184.002  0.00  0.00    +0.037 C 
ATOM    223  H   UNL     1     156.317 158.362 183.231  0.00  0.00    +0.052 HD
ATOM    224  H   UNL     1     156.829 158.430 184.944  0.00  0.00    +0.052 HD
ATOM    225  H   UNL     1     157.806 159.217 183.689  0.00  0.00    +0.052 HD
ENDBRANCH 221 222
ENDBRANCH  37 221
BRANCH  16 226
ATOM    226  O   UNL     1     163.066 168.287 181.631  0.00  0.00    -0.379 OA
BRANCH 226 227
ATOM    227  C   UNL     1     163.865 168.121 180.469  0.00  0.00    +0.037 C 
ATOM    228  H   UNL     1     163.391 168.675 179.655  0.00  0.00    +0.052 HD
ATOM    229  H   UNL     1     164.871 168.529 180.619  0.00  0.00    +0.052 HD
ATOM    230  H   UNL     1     163.920 167.070 180.171  0.00  0.00    +0.052 HD
ENDBRANCH 226 227
ENDBRANCH  16 226
TORSDOF 40
ENDMDL
MODEL 9
REMARK VINA RESULT:      -4.9      4.869      9.356
REMARK  Name = Swinholide A_conf2
REMARK  40 active torsions:
REMARK  status: ('A' for Active; 'I' for Inactive)
REMARK    1  A    between atoms: C_1  and  C_2
REMARK    2  A    between atoms: C_4  and  C_10
REMARK    3  A    between atoms: C_6  and  O_8
REMARK    4  A    between atoms: O_8  and  C_9
REMARK    5  A    between atoms: C_10  and  C_11
REMARK    6  A    between atoms: C_11  and  C_12
REMARK    7  A    between atoms: C_12  and  C_13
REMARK    8  A    between atoms: C_12  and  C_98
REMARK    9  A    between atoms: C_13  and  O_14
REMARK   10  A    between atoms: C_13  and  C_15
REMARK   11  A    between atoms: C_15  and  C_16
REMARK   12  A    between atoms: C_15  and  C_97
REMARK   13  A    between atoms: C_22  and  C_96
REMARK   14  A    between atoms: C_25  and  O_95
REMARK   15  A    between atoms: C_31  and  O_90
REMARK   16  A    between atoms: C_32  and  C_89
REMARK   17  A    between atoms: C_33  and  O_88
REMARK   18  A    between atoms: C_35  and  O_87
REMARK   19  A    between atoms: C_36  and  C_86
REMARK   20  A    between atoms: C_37  and  C_69
REMARK   21  A    between atoms: C_43  and  C_68
REMARK   22  A    between atoms: C_46  and  O_67
REMARK   23  A    between atoms: C_52  and  O_62
REMARK   24  A    between atoms: C_53  and  C_61
REMARK   25  A    between atoms: C_54  and  O_60
REMARK   26  A    between atoms: C_56  and  O_59
REMARK   27  A    between atoms: C_57  and  C_58
REMARK   28  A    between atoms: O_62  and  C_63
REMARK   29  A    between atoms: C_69  and  C_70
REMARK   30  A    between atoms: C_69  and  C_85
REMARK   31  A    between atoms: C_70  and  O_71
REMARK   32  A    between atoms: C_70  and  C_72
REMARK   33  A    between atoms: C_72  and  C_73
REMARK   34  A    between atoms: C_72  and  C_84
REMARK   35  A    between atoms: C_73  and  C_74
REMARK   36  A    between atoms: C_74  and  C_75
REMARK   37  A    between atoms: C_77  and  C_83
REMARK   38  A    between atoms: C_79  and  O_81
REMARK   39  A    between atoms: O_81  and  C_82
REMARK   40  A    between atoms: O_90  and  C_91
REMARK                            x       y       z     vdW  Elec       q    Type
REMARK                         _______ _______ _______ _____ _____    ______ ____
ROOT
ATOM      1  C   UNL     1     153.996 164.245 188.498  0.00  0.00    +0.113 C 
ATOM      2  O   UNL     1     154.825 163.353 189.287  0.00  0.00    -0.458 OA
ATOM      3  C   UNL     1     156.121 163.719 189.433  0.00  0.00    +0.332 C 
ATOM      4  O   UNL     1     156.653 164.728 189.004  0.00  0.00    -0.246 OA
ATOM      5  C   UNL     1     156.830 162.654 190.177  0.00  0.00    +0.023 C 
ATOM      6  C   UNL     1     158.113 162.842 190.524  0.00  0.00    -0.052 C 
ATOM      7  C   UNL     1     158.980 161.870 191.181  0.00  0.00    -0.054 C 
ATOM      8  C   UNL     1     158.513 160.960 192.058  0.00  0.00    -0.079 C 
ATOM      9  C   UNL     1     159.338 159.964 192.835  0.00  0.00    -0.008 C 
ATOM     10  C   UNL     1     159.070 158.491 192.464  0.00  0.00    +0.061 C 
ATOM     11  C   UNL     1     159.615 158.128 191.074  0.00  0.00    +0.003 C 
ATOM     12  C   UNL     1     159.576 156.620 190.747  0.00  0.00    +0.080 C 
ATOM     13  O   UNL     1     159.490 156.414 189.319  0.00  0.00    -0.369 OA
ATOM     14  C   UNL     1     160.746 156.565 188.628  0.00  0.00    +0.065 C 
ATOM     15  C   UNL     1     160.440 156.456 187.123  0.00  0.00    +0.000 C 
ATOM     16  C   UNL     1     161.681 156.472 186.204  0.00  0.00    +0.066 C 
ATOM     17  C   UNL     1     161.328 156.633 184.685  0.00  0.00    +0.009 C 
ATOM     18  C   UNL     1     160.497 157.900 184.361  0.00  0.00    +0.063 C 
ATOM     19  C   UNL     1     160.227 158.091 182.847  0.00  0.00    -0.000 C 
ATOM     20  C   UNL     1     159.560 159.454 182.603  0.00  0.00    +0.064 C 
ATOM     21  C   UNL     1     158.751 159.541 181.283  0.00  0.00    +0.020 C 
ATOM     22  C   UNL     1     157.777 160.762 181.255  0.00  0.00    +0.113 C 
ATOM     23  O   UNL     1     158.645 161.925 181.359  0.00  0.00    -0.458 OA
ATOM     24  C   UNL     1     158.431 163.006 180.580  0.00  0.00    +0.332 C 
ATOM     25  O   UNL     1     157.455 163.209 179.856  0.00  0.00    -0.246 OA
ATOM     26  C   UNL     1     159.545 163.972 180.697  0.00  0.00    +0.023 C 
ATOM     27  C   UNL     1     160.556 163.841 181.581  0.00  0.00    -0.052 C 
ATOM     28  C   UNL     1     161.686 164.744 181.786  0.00  0.00    -0.054 C 
ATOM     29  C   UNL     1     162.534 164.475 182.801  0.00  0.00    -0.079 C 
ATOM     30  C   UNL     1     163.711 165.282 183.271  0.00  0.00    -0.008 C 
ATOM     31  C   UNL     1     163.789 165.533 184.791  0.00  0.00    +0.061 C 
ATOM     32  C   UNL     1     162.652 166.369 185.416  0.00  0.00    +0.003 C 
ATOM     33  C   UNL     1     161.351 165.700 185.902  0.00  0.00    +0.080 C 
ATOM     34  O   UNL     1     160.563 165.277 184.786  0.00  0.00    -0.369 OA
ATOM     35  C   UNL     1     159.404 164.504 185.114  0.00  0.00    +0.065 C 
ATOM     36  C   UNL     1     158.322 165.301 185.863  0.00  0.00    +0.000 C 
ATOM     37  C   UNL     1     157.671 166.375 184.958  0.00  0.00    +0.066 C 
ATOM     38  C   UNL     1     156.235 166.720 185.445  0.00  0.00    +0.009 C 
ATOM     39  C   UNL     1     155.167 165.710 184.930  0.00  0.00    +0.063 C 
ATOM     40  C   UNL     1     153.847 165.790 185.743  0.00  0.00    -0.000 C 
ATOM     41  C   UNL     1     153.119 164.473 186.045  0.00  0.00    +0.064 C 
ATOM     42  C   UNL     1     153.779 163.563 187.111  0.00  0.00    +0.020 C 
ATOM     43  C   UNL     1     159.819 163.212 185.841  0.00  0.00    -0.008 C 
ATOM     44  C   UNL     1     160.880 163.442 186.874  0.00  0.00    -0.083 C 
ATOM     45  C   UNL     1     161.565 164.589 186.898  0.00  0.00    -0.059 C 
ATOM     46  C   UNL     1     161.744 155.497 189.098  0.00  0.00    -0.008 C 
ATOM     47  C   UNL     1     161.744 155.357 190.590  0.00  0.00    -0.083 C 
ATOM     48  C   UNL     1     160.745 155.856 191.326  0.00  0.00    -0.059 C 
ATOM     49  H   UNL     1     154.551 165.158 188.287  0.00  0.00    +0.074 HD
ATOM     50  H   UNL     1     156.285 161.746 190.382  0.00  0.00    +0.069 HD
ATOM     51  H   UNL     1     158.597 163.781 190.258  0.00  0.00    +0.062 HD
ATOM     52  H   UNL     1     157.451 160.942 192.298  0.00  0.00    +0.058 HD
ATOM     53  H   UNL     1     159.105 160.113 193.898  0.00  0.00    +0.033 HD
ATOM     54  H   UNL     1     160.411 160.164 192.765  0.00  0.00    +0.033 HD
ATOM     55  H   UNL     1     157.994 158.297 192.489  0.00  0.00    +0.060 HD
ATOM     56  H   UNL     1     159.048 158.675 190.313  0.00  0.00    +0.032 HD
ATOM     57  H   UNL     1     160.649 158.480 190.983  0.00  0.00    +0.032 HD
ATOM     58  H   UNL     1     158.654 156.189 191.147  0.00  0.00    +0.064 HD
ATOM     59  H   UNL     1     161.136 157.570 188.831  0.00  0.00    +0.060 HD
ATOM     60  H   UNL     1     159.854 155.549 186.928  0.00  0.00    +0.032 HD
ATOM     61  H   UNL     1     159.774 157.294 186.886  0.00  0.00    +0.032 HD
ATOM     62  H   UNL     1     162.193 155.506 186.325  0.00  0.00    +0.060 HD
ATOM     63  H   UNL     1     162.277 156.734 184.148  0.00  0.00    +0.035 HD
ATOM     64  H   UNL     1     159.516 157.829 184.846  0.00  0.00    +0.060 HD
ATOM     65  H   UNL     1     159.575 157.285 182.488  0.00  0.00    +0.032 HD
ATOM     66  H   UNL     1     161.172 158.038 182.298  0.00  0.00    +0.032 HD
ATOM     67  H   UNL     1     158.888 159.633 183.442  0.00  0.00    +0.060 HD
ATOM     68  H   UNL     1     158.164 158.620 181.209  0.00  0.00    +0.036 HD
ATOM     69  H   UNL     1     157.257 160.776 180.288  0.00  0.00    +0.074 HD
ATOM     70  H   UNL     1     159.468 164.820 180.028  0.00  0.00    +0.069 HD
ATOM     71  H   UNL     1     160.532 162.988 182.260  0.00  0.00    +0.062 HD
ATOM     72  H   UNL     1     162.345 163.588 183.410  0.00  0.00    +0.058 HD
ATOM     73  H   UNL     1     164.611 164.730 182.969  0.00  0.00    +0.033 HD
ATOM     74  H   UNL     1     163.755 166.252 182.773  0.00  0.00    +0.033 HD
ATOM     75  H   UNL     1     164.692 166.143 184.916  0.00  0.00    +0.060 HD
ATOM     76  H   UNL     1     162.388 167.167 184.709  0.00  0.00    +0.032 HD
ATOM     77  H   UNL     1     163.081 166.867 186.291  0.00  0.00    +0.032 HD
ATOM     78  H   UNL     1     160.791 166.492 186.409  0.00  0.00    +0.064 HD
ATOM     79  H   UNL     1     158.970 164.186 184.157  0.00  0.00    +0.060 HD
ATOM     80  H   UNL     1     158.737 165.778 186.758  0.00  0.00    +0.032 HD
ATOM     81  H   UNL     1     157.571 164.589 186.221  0.00  0.00    +0.032 HD
ATOM     82  H   UNL     1     157.615 166.023 183.920  0.00  0.00    +0.060 HD
ATOM     83  H   UNL     1     156.252 166.690 186.542  0.00  0.00    +0.035 HD
ATOM     84  H   UNL     1     154.935 165.964 183.887  0.00  0.00    +0.060 HD
ATOM     85  H   UNL     1     153.162 166.422 185.156  0.00  0.00    +0.032 HD
ATOM     86  H   UNL     1     154.001 166.352 186.666  0.00  0.00    +0.032 HD
ATOM     87  H   UNL     1     152.101 164.698 186.377  0.00  0.00    +0.060 HD
ATOM     88  H   UNL     1     154.783 163.289 186.758  0.00  0.00    +0.036 HD
ATOM     89  H   UNL     1     158.949 162.730 186.301  0.00  0.00    +0.033 HD
ATOM     90  H   UNL     1     160.239 162.507 185.112  0.00  0.00    +0.033 HD
ATOM     91  H   UNL     1     161.105 162.642 187.571  0.00  0.00    +0.057 HD
ATOM     92  H   UNL     1     162.335 164.739 187.654  0.00  0.00    +0.059 HD
ATOM     93  H   UNL     1     161.500 154.522 188.664  0.00  0.00    +0.033 HD
ATOM     94  H   UNL     1     162.754 155.761 188.764  0.00  0.00    +0.033 HD
ATOM     95  H   UNL     1     162.559 154.819 191.056  0.00  0.00    +0.057 HD
ATOM     96  H   UNL     1     160.768 155.733 192.406  0.00  0.00    +0.059 HD
ENDROOT
BRANCH  28  97
ATOM     97  C   UNL     1     161.817 165.927 180.860  0.00  0.00    -0.040 C 
ATOM     98  H   UNL     1     160.883 166.086 180.312  0.00  0.00    +0.028 HD
ATOM     99  H   UNL     1     162.589 165.803 180.096  0.00  0.00    +0.028 HD
ATOM    100  H   UNL     1     162.057 166.837 181.422  0.00  0.00    +0.028 HD
ENDBRANCH  28  97
BRANCH  21 101
ATOM    101  C   UNL     1     159.655 159.569 180.042  0.00  0.00    -0.057 C 
ATOM    102  H   UNL     1     159.852 160.594 179.719  0.00  0.00    +0.023 HD
ATOM    103  H   UNL     1     160.616 159.102 180.264  0.00  0.00    +0.023 HD
ATOM    104  H   UNL     1     159.220 159.031 179.195  0.00  0.00    +0.023 HD
ENDBRANCH  21 101
BRANCH  42 105
ATOM    105  C   UNL     1     153.053 162.208 187.184  0.00  0.00    -0.057 C 
ATOM    106  H   UNL     1     151.973 162.326 187.086  0.00  0.00    +0.023 HD
ATOM    107  H   UNL     1     153.280 161.671 188.108  0.00  0.00    +0.023 HD
ATOM    108  H   UNL     1     153.369 161.572 186.353  0.00  0.00    +0.023 HD
ENDBRANCH  42 105
BRANCH  17 109
ATOM    109  C   UNL     1     160.648 155.367 184.154  0.00  0.00    -0.058 C 
ATOM    110  H   UNL     1     160.361 155.477 183.108  0.00  0.00    +0.023 HD
ATOM    111  H   UNL     1     159.730 155.162 184.714  0.00  0.00    +0.023 HD
ATOM    112  H   UNL     1     161.294 154.493 184.243  0.00  0.00    +0.023 HD
ENDBRANCH  17 109
BRANCH  38 113
ATOM    113  C   UNL     1     155.792 168.142 185.054  0.00  0.00    -0.058 C 
ATOM    114  H   UNL     1     156.640 168.783 184.788  0.00  0.00    +0.023 HD
ATOM    115  H   UNL     1     155.105 168.114 184.193  0.00  0.00    +0.023 HD
ATOM    116  H   UNL     1     155.268 168.636 185.877  0.00  0.00    +0.023 HD
ENDBRANCH  38 113
BRANCH   7 117
ATOM    117  C   UNL     1     160.438 161.998 190.824  0.00  0.00    -0.040 C 
ATOM    118  H   UNL     1     160.592 161.764 189.767  0.00  0.00    +0.028 HD
ATOM    119  H   UNL     1     161.055 161.314 191.415  0.00  0.00    +0.028 HD
ATOM    120  H   UNL     1     160.822 163.007 191.018  0.00  0.00    +0.028 HD
ENDBRANCH   7 117
BRANCH   1 121
ATOM    121  C   UNL     1     152.742 164.679 189.312  0.00  0.00    +0.020 C 
ATOM    122  H   UNL     1     151.913 164.848 188.617  0.00  0.00    +0.036 HD
BRANCH 121 123
ATOM    123  C   UNL     1     152.252 163.615 190.313  0.00  0.00    -0.057 C 
ATOM    124  H   UNL     1     151.274 163.859 190.737  0.00  0.00    +0.023 HD
ATOM    125  H   UNL     1     152.180 162.632 189.840  0.00  0.00    +0.023 HD
ATOM    126  H   UNL     1     152.966 163.486 191.129  0.00  0.00    +0.023 HD
ENDBRANCH 121 123
BRANCH 121 127
ATOM    127  C   UNL     1     152.968 166.012 190.103  0.00  0.00    +0.064 C 
ATOM    128  H   UNL     1     152.965 165.782 191.177  0.00  0.00    +0.060 HD
BRANCH 127 129
ATOM    129  C   UNL     1     151.903 167.124 189.872  0.00  0.00    -0.017 C 
ATOM    130  H   UNL     1     152.373 168.106 189.982  0.00  0.00    +0.032 HD
BRANCH 129 131
ATOM    131  C   UNL     1     151.294 167.034 188.469  0.00  0.00    -0.060 C 
ATOM    132  H   UNL     1     150.210 166.893 188.494  0.00  0.00    +0.023 HD
ATOM    133  H   UNL     1     151.502 167.941 187.888  0.00  0.00    +0.023 HD
ATOM    134  H   UNL     1     151.709 166.181 187.920  0.00  0.00    +0.023 HD
ENDBRANCH 129 131
BRANCH 129 135
ATOM    135  C   UNL     1     150.738 167.078 190.894  0.00  0.00    -0.046 C 
ATOM    136  H   UNL     1     150.256 168.063 190.895  0.00  0.00    +0.027 HD
ATOM    137  H   UNL     1     149.973 166.361 190.570  0.00  0.00    +0.027 HD
BRANCH 135 138
ATOM    138  C   UNL     1     151.167 166.744 192.329  0.00  0.00    -0.026 C 
ATOM    139  H   UNL     1     152.247 166.577 192.364  0.00  0.00    +0.029 HD
ATOM    140  H   UNL     1     150.957 167.607 192.973  0.00  0.00    +0.029 HD
BRANCH 138 143
ATOM    141  C   UNL     1     148.598 166.539 193.972  0.00  0.00    +0.059 C 
ATOM    142  O   UNL     1     149.053 165.636 192.958  0.00  0.00    -0.373 OA
ATOM    143  C   UNL     1     150.474 165.484 192.874  0.00  0.00    +0.061 C 
ATOM    144  C   UNL     1     151.037 165.034 194.225  0.00  0.00    -0.000 C 
ATOM    145  C   UNL     1     150.607 165.966 195.356  0.00  0.00    +0.063 C 
ATOM    146  C   UNL     1     149.087 166.104 195.347  0.00  0.00    -0.000 C 
ATOM    147  H   UNL     1     148.955 167.548 193.738  0.00  0.00    +0.059 HD
ATOM    148  H   UNL     1     150.647 164.675 192.152  0.00  0.00    +0.060 HD
ATOM    149  H   UNL     1     150.665 164.023 194.444  0.00  0.00    +0.032 HD
ATOM    150  H   UNL     1     152.129 164.952 194.187  0.00  0.00    +0.032 HD
ATOM    151  H   UNL     1     151.078 166.946 195.216  0.00  0.00    +0.060 HD
ATOM    152  H   UNL     1     148.755 166.818 196.112  0.00  0.00    +0.032 HD
ATOM    153  H   UNL     1     148.644 165.135 195.619  0.00  0.00    +0.032 HD
BRANCH 141 154
ATOM    154  C   UNL     1     147.078 166.557 193.910  0.00  0.00    -0.039 C 
ATOM    155  H   UNL     1     146.676 167.536 194.187  0.00  0.00    +0.025 HD
ATOM    156  H   UNL     1     146.733 166.310 192.899  0.00  0.00    +0.025 HD
ATOM    157  H   UNL     1     146.652 165.800 194.579  0.00  0.00    +0.025 HD
ENDBRANCH 141 154
BRANCH 145 158
ATOM    158  O   UNL     1     151.089 165.401 196.579  0.00  0.00    -0.380 OA
BRANCH 158 159
ATOM    159  C   UNL     1     151.222 163.986 196.533  0.00  0.00    +0.037 C 
ATOM    160  H   UNL     1     151.839 163.732 195.667  0.00  0.00    +0.052 HD
ATOM    161  H   UNL     1     150.248 163.511 196.407  0.00  0.00    +0.052 HD
ATOM    162  H   UNL     1     151.718 163.601 197.429  0.00  0.00    +0.052 HD
ENDBRANCH 158 159
ENDBRANCH 145 158
ENDBRANCH 138 143
ENDBRANCH 135 138
ENDBRANCH 129 135
ENDBRANCH 127 129
BRANCH 127 163
ATOM    163  O   UNL     1     154.262 166.527 189.802  0.00  0.00    -0.391 OA
ATOM    164  H   UNL     1     154.680 166.805 190.633  0.00  0.00    +0.210 HD
ENDBRANCH 127 163
ENDBRANCH 121 127
ENDBRANCH   1 121
BRANCH  41 165
ATOM    165  O   UNL     1     153.003 163.746 184.811  0.00  0.00    -0.391 OA
ATOM    166  H   UNL     1     153.655 164.122 184.193  0.00  0.00    +0.210 HD
ENDBRANCH  41 165
BRANCH  39 167
ATOM    167  O   UNL     1     155.682 164.393 184.883  0.00  0.00    -0.391 OA
ATOM    168  H   UNL     1     154.967 163.791 185.180  0.00  0.00    +0.210 HD
ENDBRANCH  39 167
BRANCH  31 169
ATOM    169  O   UNL     1     164.063 164.350 185.536  0.00  0.00    -0.391 OA
ATOM    170  H   UNL     1     164.094 163.596 184.920  0.00  0.00    +0.210 HD
ENDBRANCH  31 169
BRANCH  22 171
ATOM    171  C   UNL     1     156.720 160.803 182.406  0.00  0.00    +0.020 C 
ATOM    172  H   UNL     1     156.753 159.832 182.904  0.00  0.00    +0.036 HD
BRANCH 171 173
ATOM    173  C   UNL     1     157.137 161.793 183.511  0.00  0.00    -0.057 C 
ATOM    174  H   UNL     1     157.022 162.829 183.173  0.00  0.00    +0.023 HD
ATOM    175  H   UNL     1     156.513 161.672 184.405  0.00  0.00    +0.023 HD
ATOM    176  H   UNL     1     158.174 161.635 183.823  0.00  0.00    +0.023 HD
ENDBRANCH 171 173
BRANCH 171 177
ATOM    177  C   UNL     1     155.239 161.128 182.009  0.00  0.00    +0.064 C 
ATOM    178  H   UNL     1     154.919 162.037 182.540  0.00  0.00    +0.060 HD
BRANCH 177 179
ATOM    179  O   UNL     1     155.145 161.460 180.625  0.00  0.00    -0.391 OA
ATOM    180  H   UNL     1     156.040 161.405 180.245  0.00  0.00    +0.210 HD
ENDBRANCH 177 179
BRANCH 177 181
ATOM    181  C   UNL     1     154.215 159.990 182.348  0.00  0.00    -0.017 C 
ATOM    182  H   UNL     1     153.391 160.436 182.924  0.00  0.00    +0.032 HD
BRANCH 181 183
ATOM    183  C   UNL     1     153.643 159.357 181.068  0.00  0.00    -0.060 C 
ATOM    184  H   UNL     1     152.837 158.663 181.330  0.00  0.00    +0.023 HD
ATOM    185  H   UNL     1     154.392 158.808 180.493  0.00  0.00    +0.023 HD
ATOM    186  H   UNL     1     153.250 160.112 180.384  0.00  0.00    +0.023 HD
ENDBRANCH 181 183
BRANCH 181 187
ATOM    187  C   UNL     1     154.865 158.891 183.241  0.00  0.00    -0.046 C 
ATOM    188  H   UNL     1     155.953 158.967 183.164  0.00  0.00    +0.027 HD
ATOM    189  H   UNL     1     154.572 157.914 182.838  0.00  0.00    +0.027 HD
BRANCH 187 190
ATOM    190  C   UNL     1     154.474 158.968 184.730  0.00  0.00    -0.026 C 
ATOM    191  H   UNL     1     153.550 158.398 184.869  0.00  0.00    +0.029 HD
ATOM    192  H   UNL     1     154.248 160.012 184.979  0.00  0.00    +0.029 HD
BRANCH 190 193
ATOM    193  C   UNL     1     155.461 158.410 185.778  0.00  0.00    +0.061 C 
ATOM    194  O   UNL     1     154.821 157.963 186.973  0.00  0.00    -0.373 OA
ATOM    195  C   UNL     1     154.595 158.944 187.979  0.00  0.00    +0.059 C 
ATOM    196  C   UNL     1     155.883 159.654 188.368  0.00  0.00    -0.000 C 
ATOM    197  C   UNL     1     156.532 160.292 187.135  0.00  0.00    +0.063 C 
ATOM    198  C   UNL     1     156.721 159.234 186.049  0.00  0.00    -0.000 C 
ATOM    199  H   UNL     1     155.819 157.476 185.324  0.00  0.00    +0.060 HD
ATOM    200  H   UNL     1     153.854 159.663 187.616  0.00  0.00    +0.059 HD
ATOM    201  H   UNL     1     155.679 160.416 189.128  0.00  0.00    +0.032 HD
ATOM    202  H   UNL     1     156.599 158.954 188.814  0.00  0.00    +0.032 HD
ATOM    203  H   UNL     1     155.898 161.100 186.766  0.00  0.00    +0.060 HD
ATOM    204  H   UNL     1     157.503 158.547 186.402  0.00  0.00    +0.032 HD
ATOM    205  H   UNL     1     157.116 159.680 185.129  0.00  0.00    +0.032 HD
BRANCH 195 206
ATOM    206  C   UNL     1     154.006 158.227 189.188  0.00  0.00    -0.039 C 
ATOM    207  H   UNL     1     152.916 158.270 189.174  0.00  0.00    +0.025 HD
ATOM    208  H   UNL     1     154.314 157.179 189.206  0.00  0.00    +0.025 HD
ATOM    209  H   UNL     1     154.359 158.674 190.120  0.00  0.00    +0.025 HD
ENDBRANCH 195 206
BRANCH 197 210
ATOM    210  O   UNL     1     157.826 160.845 187.408  0.00  0.00    -0.380 OA
BRANCH 210 211
ATOM    211  C   UNL     1     158.775 159.900 187.878  0.00  0.00    +0.037 C 
ATOM    212  H   UNL     1     159.708 160.404 188.133  0.00  0.00    +0.052 HD
ATOM    213  H   UNL     1     158.382 159.446 188.791  0.00  0.00    +0.052 HD
ATOM    214  H   UNL     1     158.953 159.114 187.142  0.00  0.00    +0.052 HD
ENDBRANCH 210 211
ENDBRANCH 197 210
ENDBRANCH 190 193
ENDBRANCH 187 190
ENDBRANCH 181 187
ENDBRANCH 177 181
ENDBRANCH 171 177
ENDBRANCH  22 171
BRANCH  20 215
ATOM    215  O   UNL     1     160.596 160.442 182.695  0.00  0.00    -0.391 OA
ATOM    216  H   UNL     1     161.445 159.993 182.847  0.00  0.00    +0.210 HD
ENDBRANCH  20 215
BRANCH  18 217
ATOM    217  O   UNL     1     161.152 159.039 184.910  0.00  0.00    -0.391 OA
ATOM    218  H   UNL     1     161.702 158.774 185.678  0.00  0.00    +0.210 HD
ENDBRANCH  18 217
BRANCH  10 219
ATOM    219  O   UNL     1     159.665 157.674 193.474  0.00  0.00    -0.391 OA
ATOM    220  H   UNL     1     160.504 157.329 193.120  0.00  0.00    +0.210 HD
ENDBRANCH  10 219
BRANCH  37 221
ATOM    221  O   UNL     1     158.492 167.551 185.045  0.00  0.00    -0.379 OA
BRANCH 221 222
ATOM    222  C   UNL     1     158.966 167.977 183.774  0.00  0.00    +0.037 C 
ATOM    223  H   UNL     1     158.282 167.655 182.982  0.00  0.00    +0.052 HD
ATOM    224  H   UNL     1     159.969 167.587 183.575  0.00  0.00    +0.052 HD
ATOM    225  H   UNL     1     159.015 169.071 183.767  0.00  0.00    +0.052 HD
ENDBRANCH 221 222
ENDBRANCH  37 221
BRANCH  16 226
ATOM    226  O   UNL     1     162.571 157.482 186.695  0.00  0.00    -0.379 OA
BRANCH 226 227
ATOM    227  C   UNL     1     163.938 157.284 186.365  0.00  0.00    +0.037 C 
ATOM    228  H   UNL     1     164.029 156.306 185.887  0.00  0.00    +0.052 HD
ATOM    229  H   UNL     1     164.287 158.043 185.656  0.00  0.00    +0.052 HD
ATOM    230  H   UNL     1     164.567 157.280 187.259  0.00  0.00    +0.052 HD
ENDBRANCH 226 227
ENDBRANCH  16 226
TORSDOF 40
ENDMDL
MODEL 10
REMARK VINA RESULT:      -4.9      6.823     13.416
REMARK  Name = Swinholide A_conf2
REMARK  40 active torsions:
REMARK  status: ('A' for Active; 'I' for Inactive)
REMARK    1  A    between atoms: C_1  and  C_2
REMARK    2  A    between atoms: C_4  and  C_10
REMARK    3  A    between atoms: C_6  and  O_8
REMARK    4  A    between atoms: O_8  and  C_9
REMARK    5  A    between atoms: C_10  and  C_11
REMARK    6  A    between atoms: C_11  and  C_12
REMARK    7  A    between atoms: C_12  and  C_13
REMARK    8  A    between atoms: C_12  and  C_98
REMARK    9  A    between atoms: C_13  and  O_14
REMARK   10  A    between atoms: C_13  and  C_15
REMARK   11  A    between atoms: C_15  and  C_16
REMARK   12  A    between atoms: C_15  and  C_97
REMARK   13  A    between atoms: C_22  and  C_96
REMARK   14  A    between atoms: C_25  and  O_95
REMARK   15  A    between atoms: C_31  and  O_90
REMARK   16  A    between atoms: C_32  and  C_89
REMARK   17  A    between atoms: C_33  and  O_88
REMARK   18  A    between atoms: C_35  and  O_87
REMARK   19  A    between atoms: C_36  and  C_86
REMARK   20  A    between atoms: C_37  and  C_69
REMARK   21  A    between atoms: C_43  and  C_68
REMARK   22  A    between atoms: C_46  and  O_67
REMARK   23  A    between atoms: C_52  and  O_62
REMARK   24  A    between atoms: C_53  and  C_61
REMARK   25  A    between atoms: C_54  and  O_60
REMARK   26  A    between atoms: C_56  and  O_59
REMARK   27  A    between atoms: C_57  and  C_58
REMARK   28  A    between atoms: O_62  and  C_63
REMARK   29  A    between atoms: C_69  and  C_70
REMARK   30  A    between atoms: C_69  and  C_85
REMARK   31  A    between atoms: C_70  and  O_71
REMARK   32  A    between atoms: C_70  and  C_72
REMARK   33  A    between atoms: C_72  and  C_73
REMARK   34  A    between atoms: C_72  and  C_84
REMARK   35  A    between atoms: C_73  and  C_74
REMARK   36  A    between atoms: C_74  and  C_75
REMARK   37  A    between atoms: C_77  and  C_83
REMARK   38  A    between atoms: C_79  and  O_81
REMARK   39  A    between atoms: O_81  and  C_82
REMARK   40  A    between atoms: O_90  and  C_91
REMARK                            x       y       z     vdW  Elec       q    Type
REMARK                         _______ _______ _______ _____ _____    ______ ____
ROOT
ATOM      1  C   UNL     1     161.559 161.878 191.408  0.00  0.00    +0.113 C 
ATOM      2  O   UNL     1     160.559 162.743 190.810  0.00  0.00    -0.458 OA
ATOM      3  C   UNL     1     159.281 162.294 190.856  0.00  0.00    +0.332 C 
ATOM      4  O   UNL     1     158.881 161.266 191.372  0.00  0.00    -0.246 OA
ATOM      5  C   UNL     1     158.420 163.249 190.123  0.00  0.00    +0.023 C 
ATOM      6  C   UNL     1     157.092 163.060 190.116  0.00  0.00    -0.052 C 
ATOM      7  C   UNL     1     156.112 163.850 189.379  0.00  0.00    -0.054 C 
ATOM      8  C   UNL     1     156.276 165.166 189.139  0.00  0.00    -0.079 C 
ATOM      9  C   UNL     1     155.291 166.077 188.450  0.00  0.00    -0.008 C 
ATOM     10  C   UNL     1     155.782 166.637 187.099  0.00  0.00    +0.061 C 
ATOM     11  C   UNL     1     155.829 165.562 186.002  0.00  0.00    +0.003 C 
ATOM     12  C   UNL     1     156.095 166.110 184.583  0.00  0.00    +0.080 C 
ATOM     13  O   UNL     1     156.728 165.102 183.762  0.00  0.00    -0.369 OA
ATOM     14  C   UNL     1     155.819 164.111 183.245  0.00  0.00    +0.065 C 
ATOM     15  C   UNL     1     156.677 163.054 182.527  0.00  0.00    +0.000 C 
ATOM     16  C   UNL     1     155.877 161.955 181.792  0.00  0.00    +0.066 C 
ATOM     17  C   UNL     1     156.765 160.758 181.308  0.00  0.00    +0.009 C 
ATOM     18  C   UNL     1     157.566 160.067 182.440  0.00  0.00    +0.063 C 
ATOM     19  C   UNL     1     158.373 158.834 181.963  0.00  0.00    -0.000 C 
ATOM     20  C   UNL     1     158.985 158.109 183.171  0.00  0.00    +0.064 C 
ATOM     21  C   UNL     1     160.224 157.240 182.834  0.00  0.00    +0.020 C 
ATOM     22  C   UNL     1     161.048 156.851 184.102  0.00  0.00    +0.113 C 
ATOM     23  O   UNL     1     160.126 156.071 184.913  0.00  0.00    -0.458 OA
ATOM     24  C   UNL     1     160.541 154.937 185.517  0.00  0.00    +0.332 C 
ATOM     25  O   UNL     1     161.701 154.531 185.600  0.00  0.00    -0.246 OA
ATOM     26  C   UNL     1     159.400 154.201 186.104  0.00  0.00    +0.023 C 
ATOM     27  C   UNL     1     158.142 154.687 186.148  0.00  0.00    -0.052 C 
ATOM     28  C   UNL     1     156.958 154.050 186.719  0.00  0.00    -0.054 C 
ATOM     29  C   UNL     1     155.811 154.760 186.750  0.00  0.00    -0.079 C 
ATOM     30  C   UNL     1     154.490 154.372 187.350  0.00  0.00    -0.008 C 
ATOM     31  C   UNL     1     153.826 155.431 188.254  0.00  0.00    +0.061 C 
ATOM     32  C   UNL     1     154.581 155.813 189.545  0.00  0.00    +0.003 C 
ATOM     33  C   UNL     1     155.646 156.929 189.540  0.00  0.00    +0.080 C 
ATOM     34  O   UNL     1     156.825 156.486 188.862  0.00  0.00    -0.369 OA
ATOM     35  C   UNL     1     157.825 157.489 188.658  0.00  0.00    +0.065 C 
ATOM     36  C   UNL     1     158.485 157.975 189.960  0.00  0.00    +0.000 C 
ATOM     37  C   UNL     1     159.352 156.871 190.611  0.00  0.00    +0.066 C 
ATOM     38  C   UNL     1     160.471 157.488 191.498  0.00  0.00    +0.009 C 
ATOM     39  C   UNL     1     161.722 157.918 190.676  0.00  0.00    +0.063 C 
ATOM     40  C   UNL     1     162.628 158.903 191.462  0.00  0.00    -0.000 C 
ATOM     41  C   UNL     1     163.279 160.049 190.676  0.00  0.00    +0.064 C 
ATOM     42  C   UNL     1     162.331 161.193 190.237  0.00  0.00    +0.020 C 
ATOM     43  C   UNL     1     157.259 158.634 187.799  0.00  0.00    -0.008 C 
ATOM     44  C   UNL     1     155.873 159.034 188.206  0.00  0.00    -0.083 C 
ATOM     45  C   UNL     1     155.151 158.250 189.012  0.00  0.00    -0.059 C 
ATOM     46  C   UNL     1     154.795 164.766 182.306  0.00  0.00    -0.008 C 
ATOM     47  C   UNL     1     154.241 166.031 182.886  0.00  0.00    -0.083 C 
ATOM     48  C   UNL     1     154.851 166.642 183.909  0.00  0.00    -0.059 C 
ATOM     49  H   UNL     1     161.062 161.068 191.938  0.00  0.00    +0.074 HD
ATOM     50  H   UNL     1     158.910 164.050 189.590  0.00  0.00    +0.069 HD
ATOM     51  H   UNL     1     156.679 162.212 190.661  0.00  0.00    +0.062 HD
ATOM     52  H   UNL     1     157.167 165.672 189.508  0.00  0.00    +0.058 HD
ATOM     53  H   UNL     1     155.094 166.915 189.133  0.00  0.00    +0.033 HD
ATOM     54  H   UNL     1     154.313 165.608 188.312  0.00  0.00    +0.033 HD
ATOM     55  H   UNL     1     156.779 167.067 187.222  0.00  0.00    +0.060 HD
ATOM     56  H   UNL     1     156.602 164.827 186.253  0.00  0.00    +0.032 HD
ATOM     57  H   UNL     1     154.884 165.007 185.992  0.00  0.00    +0.032 HD
ATOM     58  H   UNL     1     156.826 166.922 184.642  0.00  0.00    +0.064 HD
ATOM     59  H   UNL     1     155.311 163.630 184.090  0.00  0.00    +0.060 HD
ATOM     60  H   UNL     1     157.355 163.546 181.818  0.00  0.00    +0.032 HD
ATOM     61  H   UNL     1     157.323 162.612 183.295  0.00  0.00    +0.032 HD
ATOM     62  H   UNL     1     155.426 162.417 180.901  0.00  0.00    +0.060 HD
ATOM     63  H   UNL     1     156.085 160.004 180.899  0.00  0.00    +0.035 HD
ATOM     64  H   UNL     1     158.294 160.773 182.859  0.00  0.00    +0.060 HD
ATOM     65  H   UNL     1     159.168 159.160 181.279  0.00  0.00    +0.032 HD
ATOM     66  H   UNL     1     157.712 158.153 181.418  0.00  0.00    +0.032 HD
ATOM     67  H   UNL     1     159.276 158.877 183.888  0.00  0.00    +0.060 HD
ATOM     68  H   UNL     1     160.859 157.836 182.171  0.00  0.00    +0.036 HD
ATOM     69  H   UNL     1     161.892 156.220 183.795  0.00  0.00    +0.074 HD
ATOM     70  H   UNL     1     159.664 153.240 186.528  0.00  0.00    +0.069 HD
ATOM     71  H   UNL     1     157.968 155.687 185.751  0.00  0.00    +0.062 HD
ATOM     72  H   UNL     1     155.818 155.770 186.333  0.00  0.00    +0.058 HD
ATOM     73  H   UNL     1     153.811 154.165 186.512  0.00  0.00    +0.033 HD
ATOM     74  H   UNL     1     154.569 153.448 187.926  0.00  0.00    +0.033 HD
ATOM     75  H   UNL     1     152.903 154.950 188.598  0.00  0.00    +0.060 HD
ATOM     76  H   UNL     1     155.036 154.903 189.957  0.00  0.00    +0.032 HD
ATOM     77  H   UNL     1     153.820 156.127 190.266  0.00  0.00    +0.032 HD
ATOM     78  H   UNL     1     155.916 157.074 190.591  0.00  0.00    +0.064 HD
ATOM     79  H   UNL     1     158.610 157.017 188.052  0.00  0.00    +0.060 HD
ATOM     80  H   UNL     1     157.731 158.320 190.676  0.00  0.00    +0.032 HD
ATOM     81  H   UNL     1     159.094 158.854 189.717  0.00  0.00    +0.032 HD
ATOM     82  H   UNL     1     159.821 156.244 189.842  0.00  0.00    +0.060 HD
ATOM     83  H   UNL     1     160.043 158.376 191.982  0.00  0.00    +0.035 HD
ATOM     84  H   UNL     1     162.312 157.016 190.462  0.00  0.00    +0.060 HD
ATOM     85  H   UNL     1     163.437 158.296 191.898  0.00  0.00    +0.032 HD
ATOM     86  H   UNL     1     162.098 159.298 192.330  0.00  0.00    +0.032 HD
ATOM     87  H   UNL     1     164.078 160.486 191.283  0.00  0.00    +0.060 HD
ATOM     88  H   UNL     1     161.557 160.768 189.583  0.00  0.00    +0.036 HD
ATOM     89  H   UNL     1     157.922 159.506 187.829  0.00  0.00    +0.033 HD
ATOM     90  H   UNL     1     157.196 158.304 186.754  0.00  0.00    +0.033 HD
ATOM     91  H   UNL     1     155.458 159.950 187.798  0.00  0.00    +0.057 HD
ATOM     92  H   UNL     1     154.143 158.554 189.295  0.00  0.00    +0.059 HD
ATOM     93  H   UNL     1     155.252 165.004 181.341  0.00  0.00    +0.033 HD
ATOM     94  H   UNL     1     153.970 164.070 182.115  0.00  0.00    +0.033 HD
ATOM     95  H   UNL     1     153.351 166.455 182.441  0.00  0.00    +0.057 HD
ATOM     96  H   UNL     1     154.430 167.563 184.305  0.00  0.00    +0.059 HD
ENDROOT
BRANCH  28  97
ATOM     97  C   UNL     1     157.104 152.647 187.252  0.00  0.00    -0.040 C 
ATOM     98  H   UNL     1     158.039 152.548 187.812  0.00  0.00    +0.028 HD
ATOM     99  H   UNL     1     157.145 151.883 186.471  0.00  0.00    +0.028 HD
ATOM    100  H   UNL     1     156.267 152.392 187.913  0.00  0.00    +0.028 HD
ENDBRANCH  28  97
BRANCH  21 101
ATOM    101  C   UNL     1     159.857 155.975 182.045  0.00  0.00    -0.057 C 
ATOM    102  H   UNL     1     160.340 155.091 182.467  0.00  0.00    +0.023 HD
ATOM    103  H   UNL     1     158.778 155.809 182.079  0.00  0.00    +0.023 HD
ATOM    104  H   UNL     1     160.143 156.040 180.992  0.00  0.00    +0.023 HD
ENDBRANCH  21 101
BRANCH  42 105
ATOM    105  C   UNL     1     163.070 162.175 189.311  0.00  0.00    -0.057 C 
ATOM    106  H   UNL     1     162.380 162.692 188.642  0.00  0.00    +0.023 HD
ATOM    107  H   UNL     1     163.846 161.679 188.724  0.00  0.00    +0.023 HD
ATOM    108  H   UNL     1     163.559 162.951 189.905  0.00  0.00    +0.023 HD
ENDBRANCH  42 105
BRANCH  17 109
ATOM    109  C   UNL     1     157.683 161.198 180.162  0.00  0.00    -0.058 C 
ATOM    110  H   UNL     1     158.144 162.163 180.369  0.00  0.00    +0.023 HD
ATOM    111  H   UNL     1     157.110 161.314 179.237  0.00  0.00    +0.023 HD
ATOM    112  H   UNL     1     158.474 160.472 179.975  0.00  0.00    +0.023 HD
ENDBRANCH  17 109
BRANCH  38 113
ATOM    113  C   UNL     1     160.927 156.551 192.632  0.00  0.00    -0.058 C 
ATOM    114  H   UNL     1     160.165 155.805 192.886  0.00  0.00    +0.023 HD
ATOM    115  H   UNL     1     161.845 156.013 192.347  0.00  0.00    +0.023 HD
ATOM    116  H   UNL     1     161.142 157.109 193.547  0.00  0.00    +0.023 HD
ENDBRANCH  38 113
BRANCH   7 117
ATOM    117  C   UNL     1     154.891 163.080 188.947  0.00  0.00    -0.040 C 
ATOM    118  H   UNL     1     155.133 162.426 188.105  0.00  0.00    +0.028 HD
ATOM    119  H   UNL     1     154.087 163.751 188.633  0.00  0.00    +0.028 HD
ATOM    120  H   UNL     1     154.483 162.467 189.759  0.00  0.00    +0.028 HD
ENDBRANCH   7 117
BRANCH   1 121
ATOM    121  C   UNL     1     162.379 162.658 192.476  0.00  0.00    +0.020 C 
ATOM    122  H   UNL     1     163.408 162.284 192.473  0.00  0.00    +0.036 HD
BRANCH 121 123
ATOM    123  C   UNL     1     162.474 164.172 192.205  0.00  0.00    -0.057 C 
ATOM    124  H   UNL     1     163.066 164.401 191.316  0.00  0.00    +0.023 HD
ATOM    125  H   UNL     1     161.481 164.611 192.074  0.00  0.00    +0.023 HD
ATOM    126  H   UNL     1     162.905 164.697 193.060  0.00  0.00    +0.023 HD
ENDBRANCH 121 123
BRANCH 121 127
ATOM    127  C   UNL     1     161.817 162.466 193.926  0.00  0.00    +0.064 C 
ATOM    128  H   UNL     1     162.094 163.344 194.524  0.00  0.00    +0.060 HD
BRANCH 127 129
ATOM    129  C   UNL     1     162.334 161.212 194.690  0.00  0.00    -0.017 C 
ATOM    130  H   UNL     1     163.163 160.764 194.135  0.00  0.00    +0.032 HD
BRANCH 129 131
ATOM    131  C   UNL     1     162.833 161.576 196.093  0.00  0.00    -0.060 C 
ATOM    132  H   UNL     1     163.708 160.990 196.388  0.00  0.00    +0.023 HD
ATOM    133  H   UNL     1     163.100 162.637 196.155  0.00  0.00    +0.023 HD
ATOM    134  H   UNL     1     162.058 161.379 196.843  0.00  0.00    +0.023 HD
ENDBRANCH 129 131
BRANCH 129 135
ATOM    135  C   UNL     1     161.260 160.105 194.845  0.00  0.00    -0.046 C 
ATOM    136  H   UNL     1     160.403 160.381 194.219  0.00  0.00    +0.027 HD
ATOM    137  H   UNL     1     161.634 159.152 194.452  0.00  0.00    +0.027 HD
BRANCH 135 138
ATOM    138  C   UNL     1     160.766 159.898 196.284  0.00  0.00    -0.026 C 
ATOM    139  H   UNL     1     160.904 158.853 196.576  0.00  0.00    +0.029 HD
ATOM    140  H   UNL     1     161.380 160.503 196.962  0.00  0.00    +0.029 HD
BRANCH 138 143
ATOM    141  C   UNL     1     159.514 162.500 197.282  0.00  0.00    +0.059 C 
ATOM    142  O   UNL     1     159.016 161.638 196.254  0.00  0.00    -0.373 OA
ATOM    143  C   UNL     1     159.277 160.244 196.452  0.00  0.00    +0.061 C 
ATOM    144  C   UNL     1     158.710 159.787 197.797  0.00  0.00    -0.000 C 
ATOM    145  C   UNL     1     159.215 160.653 198.949  0.00  0.00    +0.063 C 
ATOM    146  C   UNL     1     158.935 162.121 198.639  0.00  0.00    -0.000 C 
ATOM    147  H   UNL     1     160.608 162.440 197.300  0.00  0.00    +0.059 HD
ATOM    148  H   UNL     1     158.726 159.721 195.659  0.00  0.00    +0.060 HD
ATOM    149  H   UNL     1     157.613 159.858 197.762  0.00  0.00    +0.032 HD
ATOM    150  H   UNL     1     158.936 158.731 197.980  0.00  0.00    +0.032 HD
ATOM    151  H   UNL     1     160.293 160.492 199.077  0.00  0.00    +0.060 HD
ATOM    152  H   UNL     1     159.344 162.772 199.422  0.00  0.00    +0.032 HD
ATOM    153  H   UNL     1     157.846 162.280 198.646  0.00  0.00    +0.032 HD
BRANCH 141 154
ATOM    154  C   UNL     1     159.132 163.923 196.901  0.00  0.00    -0.039 C 
ATOM    155  H   UNL     1     159.666 164.256 196.006  0.00  0.00    +0.025 HD
ATOM    156  H   UNL     1     158.054 163.993 196.712  0.00  0.00    +0.025 HD
ATOM    157  H   UNL     1     159.351 164.618 197.720  0.00  0.00    +0.025 HD
ENDBRANCH 141 154
BRANCH 145 158
ATOM    158  O   UNL     1     158.546 160.217 200.136  0.00  0.00    -0.380 OA
BRANCH 158 159
ATOM    159  C   UNL     1     158.215 158.834 200.121  0.00  0.00    +0.037 C 
ATOM    160  H   UNL     1     157.175 158.738 199.802  0.00  0.00    +0.052 HD
ATOM    161  H   UNL     1     158.305 158.406 201.120  0.00  0.00    +0.052 HD
ATOM    162  H   UNL     1     158.841 158.280 199.415  0.00  0.00    +0.052 HD
ENDBRANCH 158 159
ENDBRANCH 145 158
ENDBRANCH 138 143
ENDBRANCH 135 138
ENDBRANCH 129 135
ENDBRANCH 127 129
BRANCH 127 163
ATOM    163  O   UNL     1     160.392 162.438 193.881  0.00  0.00    -0.391 OA
ATOM    164  H   UNL     1     160.056 163.120 194.485  0.00  0.00    +0.210 HD
ENDBRANCH 127 163
ENDBRANCH 121 127
ENDBRANCH   1 121
BRANCH  41 165
ATOM    165  O   UNL     1     163.903 159.481 189.514  0.00  0.00    -0.391 OA
ATOM    166  H   UNL     1     163.348 159.711 188.747  0.00  0.00    +0.210 HD
ENDBRANCH  41 165
BRANCH  39 167
ATOM    167  O   UNL     1     161.356 158.429 189.409  0.00  0.00    -0.391 OA
ATOM    168  H   UNL     1     160.879 157.715 188.935  0.00  0.00    +0.210 HD
ENDBRANCH  39 167
BRANCH  31 169
ATOM    169  O   UNL     1     153.376 156.573 187.533  0.00  0.00    -0.391 OA
ATOM    170  H   UNL     1     152.402 156.600 187.571  0.00  0.00    +0.210 HD
ENDBRANCH  31 169
BRANCH  22 171
ATOM    171  C   UNL     1     161.586 158.052 184.947  0.00  0.00    +0.020 C 
ATOM    172  H   UNL     1     161.509 158.943 184.320  0.00  0.00    +0.036 HD
BRANCH 171 173
ATOM    173  C   UNL     1     160.655 158.360 186.135  0.00  0.00    -0.057 C 
ATOM    174  H   UNL     1     160.730 159.413 186.430  0.00  0.00    +0.023 HD
ATOM    175  H   UNL     1     159.606 158.170 185.873  0.00  0.00    +0.023 HD
ATOM    176  H   UNL     1     160.885 157.731 187.000  0.00  0.00    +0.023 HD
ENDBRANCH 171 173
BRANCH 171 177
ATOM    177  C   UNL     1     163.048 157.939 185.504  0.00  0.00    +0.064 C 
ATOM    178  H   UNL     1     163.004 157.787 186.592  0.00  0.00    +0.060 HD
BRANCH 177 179
ATOM    179  O   UNL     1     163.697 156.775 184.996  0.00  0.00    -0.391 OA
ATOM    180  H   UNL     1     164.445 157.068 184.447  0.00  0.00    +0.210 HD
ENDBRANCH 177 179
BRANCH 177 181
ATOM    181  C   UNL     1     163.940 159.200 185.232  0.00  0.00    -0.017 C 
ATOM    182  H   UNL     1     164.962 158.970 185.567  0.00  0.00    +0.032 HD
BRANCH 181 183
ATOM    183  C   UNL     1     163.974 159.545 183.734  0.00  0.00    -0.060 C 
ATOM    184  H   UNL     1     163.415 160.470 183.557  0.00  0.00    +0.023 HD
ATOM    185  H   UNL     1     163.542 158.761 183.107  0.00  0.00    +0.023 HD
ATOM    186  H   UNL     1     164.995 159.675 183.371  0.00  0.00    +0.023 HD
ENDBRANCH 181 183
BRANCH 181 187
ATOM    187  C   UNL     1     163.447 160.430 186.052  0.00  0.00    -0.046 C 
ATOM    188  H   UNL     1     164.048 160.517 186.961  0.00  0.00    +0.027 HD
ATOM    189  H   UNL     1     162.411 160.237 186.355  0.00  0.00    +0.027 HD
BRANCH 187 190
ATOM    190  C   UNL     1     163.515 161.769 185.291  0.00  0.00    -0.026 C 
ATOM    191  H   UNL     1     164.034 161.596 184.343  0.00  0.00    +0.029 HD
ATOM    192  H   UNL     1     164.129 162.469 185.870  0.00  0.00    +0.029 HD
BRANCH 190 193
ATOM    193  C   UNL     1     162.190 162.466 184.912  0.00  0.00    +0.061 C 
ATOM    194  O   UNL     1     162.212 163.876 185.133  0.00  0.00    -0.373 OA
ATOM    195  C   UNL     1     161.860 164.322 186.437  0.00  0.00    +0.059 C 
ATOM    196  C   UNL     1     160.495 163.797 186.858  0.00  0.00    -0.000 C 
ATOM    197  C   UNL     1     160.469 162.266 186.790  0.00  0.00    +0.063 C 
ATOM    198  C   UNL     1     160.898 161.807 185.398  0.00  0.00    -0.000 C 
ATOM    199  H   UNL     1     162.161 162.386 183.816  0.00  0.00    +0.060 HD
ATOM    200  H   UNL     1     162.630 164.000 187.145  0.00  0.00    +0.059 HD
ATOM    201  H   UNL     1     160.256 164.138 187.871  0.00  0.00    +0.032 HD
ATOM    202  H   UNL     1     159.706 164.187 186.204  0.00  0.00    +0.032 HD
ATOM    203  H   UNL     1     161.143 161.857 187.546  0.00  0.00    +0.060 HD
ATOM    204  H   UNL     1     160.094 162.090 184.704  0.00  0.00    +0.032 HD
ATOM    205  H   UNL     1     160.960 160.714 185.345  0.00  0.00    +0.032 HD
BRANCH 195 206
ATOM    206  C   UNL     1     161.850 165.845 186.409  0.00  0.00    -0.039 C 
ATOM    207  H   UNL     1     162.694 166.231 185.836  0.00  0.00    +0.025 HD
ATOM    208  H   UNL     1     160.926 166.219 185.962  0.00  0.00    +0.025 HD
ATOM    209  H   UNL     1     161.899 166.257 187.419  0.00  0.00    +0.025 HD
ENDBRANCH 195 206
BRANCH 197 210
ATOM    210  O   UNL     1     159.166 161.718 187.027  0.00  0.00    -0.380 OA
BRANCH 210 211
ATOM    211  C   UNL     1     158.108 162.460 186.440  0.00  0.00    +0.037 C 
ATOM    212  H   UNL     1     157.507 161.811 185.802  0.00  0.00    +0.052 HD
ATOM    213  H   UNL     1     157.462 162.828 187.241  0.00  0.00    +0.052 HD
ATOM    214  H   UNL     1     158.486 163.312 185.872  0.00  0.00    +0.052 HD
ENDBRANCH 210 211
ENDBRANCH 197 210
ENDBRANCH 190 193
ENDBRANCH 187 190
ENDBRANCH 181 187
ENDBRANCH 177 181
ENDBRANCH 171 177
ENDBRANCH  22 171
BRANCH  20 215
ATOM    215  O   UNL     1     157.924 157.364 183.785  0.00  0.00    -0.391 OA
ATOM    216  H   UNL     1     157.743 156.575 183.245  0.00  0.00    +0.210 HD
ENDBRANCH  20 215
BRANCH  18 217
ATOM    217  O   UNL     1     156.674 159.716 183.494  0.00  0.00    -0.391 OA
ATOM    218  H   UNL     1     157.122 159.814 184.361  0.00  0.00    +0.210 HD
ENDBRANCH  18 217
BRANCH  10 219
ATOM    219  O   UNL     1     154.909 167.705 186.728  0.00  0.00    -0.391 OA
ATOM    220  H   UNL     1     154.138 167.316 186.278  0.00  0.00    +0.210 HD
ENDBRANCH  10 219
BRANCH  37 221
ATOM    221  O   UNL     1     158.479 156.083 191.436  0.00  0.00    -0.379 OA
BRANCH 221 222
ATOM    222  C   UNL     1     157.691 156.881 192.310  0.00  0.00    +0.037 C 
ATOM    223  H   UNL     1     156.698 156.439 192.442  0.00  0.00    +0.052 HD
ATOM    224  H   UNL     1     157.593 157.903 191.932  0.00  0.00    +0.052 HD
ATOM    225  H   UNL     1     158.185 156.921 193.287  0.00  0.00    +0.052 HD
ENDBRANCH 221 222
ENDBRANCH  37 221
BRANCH  16 226
ATOM    226  O   UNL     1     154.799 161.559 182.648  0.00  0.00    -0.379 OA
BRANCH 226 227
ATOM    227  C   UNL     1     153.669 161.022 181.976  0.00  0.00    +0.037 C 
ATOM    228  H   UNL     1     154.034 160.373 181.175  0.00  0.00    +0.052 HD
ATOM    229  H   UNL     1     153.057 160.416 182.653  0.00  0.00    +0.052 HD
ATOM    230  H   UNL     1     153.066 161.811 181.519  0.00  0.00    +0.052 HD
ENDBRANCH 226 227
ENDBRANCH  16 226
TORSDOF 40
ENDMDL
