MODEL 1
REMARK VINA RESULT:      -6.1      0.000      0.000
REMARK  Name = Ulapualide A_conf2
REMARK  27 active torsions:
REMARK  status: ('A' for Active; 'I' for Inactive)
REMARK    1  A    between atoms: C_1  and  C_2
REMARK    2  A    between atoms: C_9  and  O_63
REMARK    3  A    between atoms: C_14  and  C_38
REMARK    4  A    between atoms: C_15  and  C_37
REMARK    5  A    between atoms: C_16  and  O_35
REMARK    6  A    between atoms: O_35  and  C_36
REMARK    7  A    between atoms: C_38  and  C_39
REMARK    8  A    between atoms: C_39  and  C_40
REMARK    9  A    between atoms: C_39  and  O_61
REMARK   10  A    between atoms: C_40  and  C_41
REMARK   11  A    between atoms: C_40  and  C_42
REMARK   12  A    between atoms: C_42  and  C_43
REMARK   13  A    between atoms: C_43  and  C_44
REMARK   14  A    between atoms: C_44  and  C_46
REMARK   15  A    between atoms: C_46  and  C_47
REMARK   16  A    between atoms: C_46  and  C_48
REMARK   17  A    between atoms: C_48  and  C_49
REMARK   18  A    between atoms: C_48  and  O_57
REMARK   19  A    between atoms: C_49  and  C_50
REMARK   20  A    between atoms: C_49  and  C_51
REMARK   21  A    between atoms: C_52  and  N_53
REMARK   22  A    between atoms: N_53  and  C_54
REMARK   23  A    between atoms: N_53  and  C_55
REMARK   24  A    between atoms: C_55  and  O_56
REMARK   25  A    between atoms: O_57  and  C_58
REMARK   26  A    between atoms: C_58  and  C_60
REMARK   27  A    between atoms: O_61  and  C_62
REMARK                            x       y       z     vdW  Elec       q    Type
REMARK                         _______ _______ _______ _____ _____    ______ ____
ROOT
ATOM      1  C   UNL     1     146.069 157.071 189.247  0.00  0.00    +0.008 C 
ATOM      2  C   UNL     1     145.909 156.872 187.737  0.00  0.00    +0.014 C 
ATOM      3  C   UNL     1     146.313 158.037 186.849  0.00  0.00    +0.134 C 
ATOM      4  O   UNL     1     147.330 157.969 186.155  0.00  0.00    -0.297 OA
ATOM      5  C   UNL     1     145.390 159.242 186.815  0.00  0.00    +0.006 C 
ATOM      6  C   UNL     1     145.594 160.100 185.569  0.00  0.00    -0.044 C 
ATOM      7  C   UNL     1     144.465 161.104 185.296  0.00  0.00    -0.026 C 
ATOM      8  C   UNL     1     144.170 162.064 186.457  0.00  0.00    +0.065 C 
ATOM      9  C   UNL     1     143.323 163.245 185.983  0.00  0.00    +0.071 C 
ATOM     10  C   UNL     1     143.350 164.372 186.981  0.00  0.00    +0.310 C 
ATOM     11  O   UNL     1     142.365 164.771 187.591  0.00  0.00    -0.251 OA
ATOM     12  O   UNL     1     144.597 164.914 187.049  0.00  0.00    -0.461 OA
ATOM     13  C   UNL     1     144.760 166.070 187.906  0.00  0.00    +0.110 C 
ATOM     14  C   UNL     1     145.802 167.016 187.236  0.00  0.00    +0.020 C 
ATOM     15  C   UNL     1     147.040 166.306 186.590  0.00  0.00    +0.068 C 
ATOM     16  C   UNL     1     148.110 165.825 187.597  0.00  0.00    -0.008 C 
ATOM     17  C   UNL     1     148.869 166.945 188.277  0.00  0.00    -0.077 C 
ATOM     18  C   UNL     1     150.003 166.832 188.985  0.00  0.00    -0.003 C 
ATOM     19  C   UNL     1     150.625 165.591 189.301  0.00  0.00    +0.220 A 
ATOM     20  N   UNL     1     150.079 164.384 189.250  0.00  0.00    -0.205 NA
ATOM     21  C   UNL     1     151.039 163.527 189.719  0.00  0.00    +0.164 A 
ATOM     22  C   UNL     1     152.173 164.229 190.026  0.00  0.00    +0.125 A 
ATOM     23  O   UNL     1     151.928 165.544 189.777  0.00  0.00    -0.443 OA
ATOM     24  C   UNL     1     150.882 161.986 189.910  0.00  0.00    +0.250 A 
ATOM     25  N   UNL     1     149.769 161.310 189.663  0.00  0.00    -0.203 NA
ATOM     26  C   UNL     1     150.078 160.017 190.006  0.00  0.00    +0.164 A 
ATOM     27  C   UNL     1     151.377 159.947 190.441  0.00  0.00    +0.125 A 
ATOM     28  O   UNL     1     151.909 161.199 190.384  0.00  0.00    -0.442 OA
ATOM     29  C   UNL     1     149.133 158.775 189.935  0.00  0.00    +0.249 A 
ATOM     30  N   UNL     1     147.872 158.796 189.532  0.00  0.00    -0.212 NA
ATOM     31  C   UNL     1     147.450 157.489 189.628  0.00  0.00    +0.083 A 
ATOM     32  C   UNL     1     148.480 156.714 190.105  0.00  0.00    +0.116 A 
ATOM     33  O   UNL     1     149.559 157.516 190.303  0.00  0.00    -0.442 OA
ATOM     34  H   UNL     1     145.905 156.077 189.691  0.00  0.00    +0.037 HD
ATOM     35  H   UNL     1     144.880 156.590 187.487  0.00  0.00    +0.035 HD
ATOM     36  H   UNL     1     146.531 156.020 187.428  0.00  0.00    +0.035 HD
ATOM     37  H   UNL     1     144.359 158.872 186.840  0.00  0.00    +0.034 HD
ATOM     38  H   UNL     1     145.587 159.843 187.707  0.00  0.00    +0.034 HD
ATOM     39  H   UNL     1     146.546 160.641 185.656  0.00  0.00    +0.027 HD
ATOM     40  H   UNL     1     145.690 159.455 184.684  0.00  0.00    +0.027 HD
ATOM     41  H   UNL     1     144.751 161.679 184.406  0.00  0.00    +0.029 HD
ATOM     42  H   UNL     1     143.555 160.545 185.041  0.00  0.00    +0.029 HD
ATOM     43  H   UNL     1     145.112 162.412 186.896  0.00  0.00    +0.060 HD
ATOM     44  H   UNL     1     142.276 162.947 185.843  0.00  0.00    +0.040 HD
ATOM     45  H   UNL     1     143.680 163.652 185.030  0.00  0.00    +0.040 HD
ATOM     46  H   UNL     1     143.805 166.613 187.935  0.00  0.00    +0.074 HD
ATOM     47  H   UNL     1     146.141 167.763 187.963  0.00  0.00    +0.036 HD
ATOM     48  H   UNL     1     146.686 165.436 186.024  0.00  0.00    +0.060 HD
ATOM     49  H   UNL     1     148.837 165.212 187.050  0.00  0.00    +0.033 HD
ATOM     50  H   UNL     1     147.665 165.168 188.340  0.00  0.00    +0.033 HD
ATOM     51  H   UNL     1     148.472 167.950 188.131  0.00  0.00    +0.057 HD
ATOM     52  H   UNL     1     150.483 167.726 189.366  0.00  0.00    +0.067 HD
ATOM     53  H   UNL     1     153.150 163.981 190.412  0.00  0.00    +0.105 HD
ATOM     54  H   UNL     1     152.022 159.161 190.801  0.00  0.00    +0.105 HD
ATOM     55  H   UNL     1     148.614 155.668 190.323  0.00  0.00    +0.105 HD
ENDROOT
BRANCH   1  56
ATOM     56  C   UNL     1     144.995 157.964 189.868  0.00  0.00    -0.056 C 
ATOM     57  H   UNL     1     145.146 159.008 189.567  0.00  0.00    +0.024 HD
ATOM     58  H   UNL     1     143.983 157.695 189.556  0.00  0.00    +0.024 HD
ATOM     59  H   UNL     1     145.037 157.928 190.964  0.00  0.00    +0.024 HD
ENDBRANCH   1  56
BRANCH  14  60
ATOM     60  C   UNL     1     145.052 167.816 186.141  0.00  0.00    -0.057 C 
ATOM     61  H   UNL     1     144.407 167.167 185.539  0.00  0.00    +0.023 HD
ATOM     62  H   UNL     1     145.755 168.284 185.444  0.00  0.00    +0.023 HD
ATOM     63  H   UNL     1     144.432 168.605 186.582  0.00  0.00    +0.023 HD
ENDBRANCH  14  60
BRANCH  13  64
ATOM     64  C   UNL     1     145.033 165.582 189.346  0.00  0.00    +0.011 C 
ATOM     65  H   UNL     1     144.936 164.491 189.356  0.00  0.00    +0.033 HD
ATOM     66  H   UNL     1     146.059 165.789 189.640  0.00  0.00    +0.033 HD
BRANCH  64  67
ATOM     67  C   UNL     1     144.066 166.192 190.378  0.00  0.00    +0.064 C 
ATOM     68  H   UNL     1     143.461 165.382 190.808  0.00  0.00    +0.060 HD
BRANCH  67  69
ATOM     69  C   UNL     1     144.788 166.922 191.548  0.00  0.00    -0.017 C 
ATOM     70  H   UNL     1     144.520 167.984 191.499  0.00  0.00    +0.032 HD
BRANCH  69  71
ATOM     71  C   UNL     1     144.277 166.412 192.904  0.00  0.00    -0.060 C 
ATOM     72  H   UNL     1     144.699 167.000 193.726  0.00  0.00    +0.023 HD
ATOM     73  H   UNL     1     143.186 166.457 192.977  0.00  0.00    +0.023 HD
ATOM     74  H   UNL     1     144.575 165.369 193.060  0.00  0.00    +0.023 HD
ENDBRANCH  69  71
BRANCH  69  75
ATOM     75  C   UNL     1     146.332 166.855 191.529  0.00  0.00    -0.041 C 
ATOM     76  H   UNL     1     146.768 167.841 191.730  0.00  0.00    +0.027 HD
ATOM     77  H   UNL     1     146.648 166.596 190.509  0.00  0.00    +0.027 HD
BRANCH  75  78
ATOM     78  C   UNL     1     146.919 165.825 192.497  0.00  0.00    +0.007 C 
ATOM     79  H   UNL     1     146.113 165.310 193.027  0.00  0.00    +0.034 HD
ATOM     80  H   UNL     1     147.499 165.093 191.929  0.00  0.00    +0.034 HD
BRANCH  78  81
ATOM     81  C   UNL     1     147.830 166.458 193.543  0.00  0.00    +0.140 C 
ATOM     82  O   UNL     1     147.495 167.460 194.182  0.00  0.00    -0.297 OA
BRANCH  81  83
ATOM     83  C   UNL     1     149.180 165.805 193.834  0.00  0.00    +0.052 C 
ATOM     84  H   UNL     1     149.050 165.267 194.781  0.00  0.00    +0.041 HD
BRANCH  83  85
ATOM     85  C   UNL     1     149.493 164.732 192.788  0.00  0.00    -0.052 C 
ATOM     86  H   UNL     1     150.502 164.878 192.391  0.00  0.00    +0.024 HD
ATOM     87  H   UNL     1     149.441 163.720 193.199  0.00  0.00    +0.024 HD
ATOM     88  H   UNL     1     148.793 164.793 191.950  0.00  0.00    +0.024 HD
ENDBRANCH  83  85
BRANCH  83  89
ATOM     89  C   UNL     1     150.358 166.787 194.008  0.00  0.00    +0.118 C 
ATOM     90  H   UNL     1     149.940 167.636 194.568  0.00  0.00    +0.075 HD
BRANCH  89  91
ATOM     91  C   UNL     1     150.990 167.378 192.712  0.00  0.00    +0.014 C 
ATOM     92  H   UNL     1     150.636 166.746 191.883  0.00  0.00    +0.038 HD
BRANCH  91  93
ATOM     93  C   UNL     1     152.517 167.237 192.705  0.00  0.00    -0.056 C 
ATOM     94  H   UNL     1     153.020 168.151 192.374  0.00  0.00    +0.024 HD
ATOM     95  H   UNL     1     152.830 166.424 192.040  0.00  0.00    +0.024 HD
ATOM     96  H   UNL     1     152.886 166.997 193.708  0.00  0.00    +0.024 HD
ENDBRANCH  91  93
BRANCH  91  97
ATOM     97  C   UNL     1     150.468 168.759 192.358  0.00  0.00    -0.064 C 
ATOM     98  C   UNL     1     149.359 169.059 191.668  0.00  0.00    -0.010 C 
ATOM     99  H   UNL     1     151.072 169.578 192.743  0.00  0.00    +0.059 HD
ATOM    100  H   UNL     1     148.749 168.255 191.257  0.00  0.00    +0.078 HD
BRANCH  98 101
ATOM    101  N   UNL     1     148.851 170.310 191.353  0.00  0.00    -0.317 N 
BRANCH 101 102
ATOM    102  C   UNL     1     149.570 171.553 191.618  0.00  0.00    +0.002 C 
ATOM    103  H   UNL     1     150.565 171.528 191.161  0.00  0.00    +0.043 HD
ATOM    104  H   UNL     1     149.048 172.429 191.216  0.00  0.00    +0.043 HD
ATOM    105  H   UNL     1     149.679 171.706 192.699  0.00  0.00    +0.043 HD
ENDBRANCH 101 102
BRANCH 101 106
ATOM    106  C   UNL     1     147.539 170.463 190.749  0.00  0.00    +0.110 C 
ATOM    107  H   UNL     1     147.232 171.516 190.712  0.00  0.00    +0.077 HD
ATOM    108  H   UNL     1     146.760 169.912 191.287  0.00  0.00    +0.077 HD
BRANCH 106 109
ATOM    109  O   UNL     1     147.632 169.964 189.433  0.00  0.00    -0.377 OA
ATOM    110  H   UNL     1     148.561 170.156 189.214  0.00  0.00    +0.211 HD
ENDBRANCH 106 109
ENDBRANCH 101 106
ENDBRANCH  98 101
ENDBRANCH  91  97
ENDBRANCH  89  91
BRANCH  89 111
ATOM    111  O   UNL     1     151.378 166.170 194.829  0.00  0.00    -0.460 OA
BRANCH 111 112
ATOM    112  C   UNL     1     151.011 165.772 196.079  0.00  0.00    +0.304 C 
ATOM    113  O   UNL     1     150.529 166.489 196.945  0.00  0.00    -0.251 OA
BRANCH 112 114
ATOM    114  C   UNL     1     151.303 164.313 196.249  0.00  0.00    +0.033 C 
ATOM    115  H   UNL     1     150.367 163.756 196.325  0.00  0.00    +0.034 HD
ATOM    116  H   UNL     1     151.914 164.160 197.141  0.00  0.00    +0.034 HD
ATOM    117  H   UNL     1     151.858 163.949 195.380  0.00  0.00    +0.034 HD
ENDBRANCH 112 114
ENDBRANCH 111 112
ENDBRANCH  89 111
ENDBRANCH  83  89
ENDBRANCH  81  83
ENDBRANCH  78  81
ENDBRANCH  75  78
ENDBRANCH  69  75
ENDBRANCH  67  69
BRANCH  67 118
ATOM    118  O   UNL     1     143.200 167.096 189.680  0.00  0.00    -0.379 OA
BRANCH 118 119
ATOM    119  C   UNL     1     143.257 168.429 190.178  0.00  0.00    +0.037 C 
ATOM    120  H   UNL     1     144.224 168.855 189.897  0.00  0.00    +0.052 HD
ATOM    121  H   UNL     1     142.466 169.037 189.726  0.00  0.00    +0.052 HD
ATOM    122  H   UNL     1     143.175 168.451 191.268  0.00  0.00    +0.052 HD
ENDBRANCH 118 119
ENDBRANCH  67 118
ENDBRANCH  64  67
ENDBRANCH  13  64
BRANCH   8 123
ATOM    123  O   UNL     1     143.458 161.362 187.478  0.00  0.00    -0.391 OA
ATOM    124  H   UNL     1     142.611 161.818 187.636  0.00  0.00    +0.210 HD
ENDBRANCH   8 123
BRANCH  15 125
ATOM    125  O   UNL     1     147.652 167.211 185.640  0.00  0.00    -0.379 OA
BRANCH 125 126
ATOM    126  C   UNL     1     148.292 166.562 184.548  0.00  0.00    +0.037 C 
ATOM    127  H   UNL     1     149.254 166.138 184.853  0.00  0.00    +0.052 HD
ATOM    128  H   UNL     1     147.647 165.745 184.212  0.00  0.00    +0.052 HD
ATOM    129  H   UNL     1     148.429 167.247 183.708  0.00  0.00    +0.052 HD
ENDBRANCH 125 126
ENDBRANCH  15 125
TORSDOF 27
ENDMDL
MODEL 2
REMARK VINA RESULT:      -5.8      3.047      7.424
REMARK  Name = Ulapualide A_conf2
REMARK  27 active torsions:
REMARK  status: ('A' for Active; 'I' for Inactive)
REMARK    1  A    between atoms: C_1  and  C_2
REMARK    2  A    between atoms: C_9  and  O_63
REMARK    3  A    between atoms: C_14  and  C_38
REMARK    4  A    between atoms: C_15  and  C_37
REMARK    5  A    between atoms: C_16  and  O_35
REMARK    6  A    between atoms: O_35  and  C_36
REMARK    7  A    between atoms: C_38  and  C_39
REMARK    8  A    between atoms: C_39  and  C_40
REMARK    9  A    between atoms: C_39  and  O_61
REMARK   10  A    between atoms: C_40  and  C_41
REMARK   11  A    between atoms: C_40  and  C_42
REMARK   12  A    between atoms: C_42  and  C_43
REMARK   13  A    between atoms: C_43  and  C_44
REMARK   14  A    between atoms: C_44  and  C_46
REMARK   15  A    between atoms: C_46  and  C_47
REMARK   16  A    between atoms: C_46  and  C_48
REMARK   17  A    between atoms: C_48  and  C_49
REMARK   18  A    between atoms: C_48  and  O_57
REMARK   19  A    between atoms: C_49  and  C_50
REMARK   20  A    between atoms: C_49  and  C_51
REMARK   21  A    between atoms: C_52  and  N_53
REMARK   22  A    between atoms: N_53  and  C_54
REMARK   23  A    between atoms: N_53  and  C_55
REMARK   24  A    between atoms: C_55  and  O_56
REMARK   25  A    between atoms: O_57  and  C_58
REMARK   26  A    between atoms: C_58  and  C_60
REMARK   27  A    between atoms: O_61  and  C_62
REMARK                            x       y       z     vdW  Elec       q    Type
REMARK                         _______ _______ _______ _____ _____    ______ ____
ROOT
ATOM      1  C   UNL     1     143.114 166.527 186.681  0.00  0.00    +0.008 C 
ATOM      2  C   UNL     1     143.003 165.076 186.201  0.00  0.00    +0.014 C 
ATOM      3  C   UNL     1     143.952 164.073 186.837  0.00  0.00    +0.134 C 
ATOM      4  O   UNL     1     143.527 163.226 187.626  0.00  0.00    -0.297 OA
ATOM      5  C   UNL     1     145.410 164.129 186.418  0.00  0.00    +0.006 C 
ATOM      6  C   UNL     1     146.149 162.822 186.698  0.00  0.00    -0.044 C 
ATOM      7  C   UNL     1     147.496 162.686 185.975  0.00  0.00    -0.026 C 
ATOM      8  C   UNL     1     148.486 163.827 186.249  0.00  0.00    +0.065 C 
ATOM      9  C   UNL     1     149.899 163.438 185.815  0.00  0.00    +0.071 C 
ATOM     10  C   UNL     1     150.928 164.357 186.417  0.00  0.00    +0.310 C 
ATOM     11  O   UNL     1     151.650 165.099 185.762  0.00  0.00    -0.251 OA
ATOM     12  O   UNL     1     150.980 164.190 187.767  0.00  0.00    -0.461 OA
ATOM     13  C   UNL     1     151.989 164.946 188.479  0.00  0.00    +0.110 C 
ATOM     14  C   UNL     1     152.500 164.064 189.659  0.00  0.00    +0.020 C 
ATOM     15  C   UNL     1     151.396 163.262 190.428  0.00  0.00    +0.068 C 
ATOM     16  C   UNL     1     150.549 164.103 191.411  0.00  0.00    -0.008 C 
ATOM     17  C   UNL     1     151.311 164.588 192.626  0.00  0.00    -0.077 C 
ATOM     18  C   UNL     1     150.786 165.106 193.748  0.00  0.00    -0.003 C 
ATOM     19  C   UNL     1     149.400 165.380 193.928  0.00  0.00    +0.220 A 
ATOM     20  N   UNL     1     148.474 165.483 192.984  0.00  0.00    -0.205 NA
ATOM     21  C   UNL     1     147.323 165.832 193.638  0.00  0.00    +0.164 A 
ATOM     22  C   UNL     1     147.563 165.911 194.983  0.00  0.00    +0.125 A 
ATOM     23  O   UNL     1     148.879 165.637 195.188  0.00  0.00    -0.443 OA
ATOM     24  C   UNL     1     145.941 166.128 192.974  0.00  0.00    +0.250 A 
ATOM     25  N   UNL     1     145.718 166.103 191.668  0.00  0.00    -0.203 NA
ATOM     26  C   UNL     1     144.397 166.459 191.546  0.00  0.00    +0.164 A 
ATOM     27  C   UNL     1     143.857 166.677 192.788  0.00  0.00    +0.125 A 
ATOM     28  O   UNL     1     144.831 166.467 193.715  0.00  0.00    -0.442 OA
ATOM     29  C   UNL     1     143.583 166.610 190.221  0.00  0.00    +0.249 A 
ATOM     30  N   UNL     1     144.065 166.420 189.003  0.00  0.00    -0.212 NA
ATOM     31  C   UNL     1     143.000 166.653 188.163  0.00  0.00    +0.083 A 
ATOM     32  C   UNL     1     141.898 166.994 188.912  0.00  0.00    +0.116 A 
ATOM     33  O   UNL     1     142.252 166.969 190.223  0.00  0.00    -0.442 OA
ATOM     34  H   UNL     1     142.243 167.044 186.250  0.00  0.00    +0.037 HD
ATOM     35  H   UNL     1     143.116 165.014 185.113  0.00  0.00    +0.035 HD
ATOM     36  H   UNL     1     141.986 164.715 186.413  0.00  0.00    +0.035 HD
ATOM     37  H   UNL     1     145.438 164.342 185.343  0.00  0.00    +0.034 HD
ATOM     38  H   UNL     1     145.889 164.943 186.967  0.00  0.00    +0.034 HD
ATOM     39  H   UNL     1     146.306 162.723 187.780  0.00  0.00    +0.027 HD
ATOM     40  H   UNL     1     145.522 161.969 186.401  0.00  0.00    +0.027 HD
ATOM     41  H   UNL     1     147.937 161.732 186.290  0.00  0.00    +0.029 HD
ATOM     42  H   UNL     1     147.308 162.614 184.896  0.00  0.00    +0.029 HD
ATOM     43  H   UNL     1     148.464 164.087 187.314  0.00  0.00    +0.060 HD
ATOM     44  H   UNL     1     150.002 163.488 184.724  0.00  0.00    +0.040 HD
ATOM     45  H   UNL     1     150.158 162.419 186.124  0.00  0.00    +0.040 HD
ATOM     46  H   UNL     1     152.841 165.103 187.803  0.00  0.00    +0.074 HD
ATOM     47  H   UNL     1     153.065 164.685 190.363  0.00  0.00    +0.036 HD
ATOM     48  H   UNL     1     150.720 162.809 189.693  0.00  0.00    +0.060 HD
ATOM     49  H   UNL     1     149.720 163.477 191.763  0.00  0.00    +0.033 HD
ATOM     50  H   UNL     1     150.090 164.943 190.894  0.00  0.00    +0.033 HD
ATOM     51  H   UNL     1     152.392 164.457 192.598  0.00  0.00    +0.057 HD
ATOM     52  H   UNL     1     151.441 165.355 194.575  0.00  0.00    +0.067 HD
ATOM     53  H   UNL     1     146.973 166.144 195.858  0.00  0.00    +0.105 HD
ATOM     54  H   UNL     1     142.886 166.967 193.159  0.00  0.00    +0.105 HD
ATOM     55  H   UNL     1     140.872 167.242 188.696  0.00  0.00    +0.105 HD
ENDROOT
BRANCH   1  56
ATOM     56  C   UNL     1     144.330 167.268 186.123  0.00  0.00    -0.056 C 
ATOM     57  H   UNL     1     144.483 168.209 186.664  0.00  0.00    +0.024 HD
ATOM     58  H   UNL     1     145.258 166.699 186.220  0.00  0.00    +0.024 HD
ATOM     59  H   UNL     1     144.189 167.516 185.063  0.00  0.00    +0.024 HD
ENDBRANCH   1  56
BRANCH  14  60
ATOM     60  C   UNL     1     153.529 163.067 189.069  0.00  0.00    -0.057 C 
ATOM     61  H   UNL     1     154.046 163.490 188.201  0.00  0.00    +0.023 HD
ATOM     62  H   UNL     1     153.037 162.153 188.721  0.00  0.00    +0.023 HD
ATOM     63  H   UNL     1     154.281 162.787 189.816  0.00  0.00    +0.023 HD
ENDBRANCH  14  60
BRANCH  13  64
ATOM     64  C   UNL     1     151.420 166.345 188.802  0.00  0.00    +0.011 C 
ATOM     65  H   UNL     1     151.306 166.419 189.888  0.00  0.00    +0.033 HD
ATOM     66  H   UNL     1     152.125 167.126 188.526  0.00  0.00    +0.033 HD
BRANCH  64  67
ATOM     67  C   UNL     1     150.062 166.611 188.124  0.00  0.00    +0.064 C 
ATOM     68  H   UNL     1     149.754 165.698 187.597  0.00  0.00    +0.060 HD
BRANCH  67  69
ATOM     69  C   UNL     1     148.933 166.989 189.126  0.00  0.00    -0.017 C 
ATOM     70  H   UNL     1     148.442 167.897 188.755  0.00  0.00    +0.032 HD
BRANCH  69  71
ATOM     71  C   UNL     1     147.851 165.899 189.160  0.00  0.00    -0.060 C 
ATOM     72  H   UNL     1     148.200 165.021 189.713  0.00  0.00    +0.023 HD
ATOM     73  H   UNL     1     146.925 166.251 189.627  0.00  0.00    +0.023 HD
ATOM     74  H   UNL     1     147.603 165.570 188.145  0.00  0.00    +0.023 HD
ENDBRANCH  69  71
BRANCH  69  75
ATOM     75  C   UNL     1     149.392 167.294 190.571  0.00  0.00    -0.041 C 
ATOM     76  H   UNL     1     150.350 166.804 190.786  0.00  0.00    +0.027 HD
ATOM     77  H   UNL     1     148.668 166.840 191.260  0.00  0.00    +0.027 HD
BRANCH  75  78
ATOM     78  C   UNL     1     149.495 168.787 190.886  0.00  0.00    +0.007 C 
ATOM     79  H   UNL     1     150.295 168.962 191.610  0.00  0.00    +0.034 HD
ATOM     80  H   UNL     1     149.722 169.331 189.965  0.00  0.00    +0.034 HD
BRANCH  78  81
ATOM     81  C   UNL     1     148.207 169.352 191.474  0.00  0.00    +0.140 C 
ATOM     82  O   UNL     1     147.896 169.175 192.656  0.00  0.00    -0.297 OA
BRANCH  81  83
ATOM     83  C   UNL     1     147.298 170.195 190.582  0.00  0.00    +0.052 C 
ATOM     84  H   UNL     1     147.933 170.541 189.757  0.00  0.00    +0.041 HD
BRANCH  83  85
ATOM     85  C   UNL     1     146.220 169.321 189.937  0.00  0.00    -0.052 C 
ATOM     86  H   UNL     1     145.872 169.779 189.006  0.00  0.00    +0.024 HD
ATOM     87  H   UNL     1     146.583 168.317 189.698  0.00  0.00    +0.024 HD
ATOM     88  H   UNL     1     145.356 169.218 190.600  0.00  0.00    +0.024 HD
ENDBRANCH  83  85
BRANCH  83  89
ATOM     89  C   UNL     1     146.687 171.440 191.259  0.00  0.00    +0.118 C 
ATOM     90  H   UNL     1     146.348 171.089 192.245  0.00  0.00    +0.075 HD
BRANCH  89  91
ATOM     91  C   UNL     1     145.449 172.090 190.571  0.00  0.00    +0.014 C 
ATOM     92  H   UNL     1     144.904 171.268 190.083  0.00  0.00    +0.038 HD
BRANCH  91  93
ATOM     93  C   UNL     1     145.858 173.035 189.435  0.00  0.00    -0.056 C 
ATOM     94  H   UNL     1     145.454 174.044 189.564  0.00  0.00    +0.024 HD
ATOM     95  H   UNL     1     145.510 172.656 188.468  0.00  0.00    +0.024 HD
ATOM     96  H   UNL     1     146.949 173.118 189.378  0.00  0.00    +0.024 HD
ENDBRANCH  91  93
BRANCH  91  97
ATOM     97  C   UNL     1     144.438 172.658 191.551  0.00  0.00    -0.064 C 
ATOM     98  C   UNL     1     143.797 173.831 191.471  0.00  0.00    -0.010 C 
ATOM     99  H   UNL     1     144.211 172.003 192.390  0.00  0.00    +0.059 HD
ATOM    100  H   UNL     1     144.022 174.511 190.650  0.00  0.00    +0.078 HD
BRANCH  98 101
ATOM    101  N   UNL     1     142.853 174.359 192.339  0.00  0.00    -0.317 N 
BRANCH 101 102
ATOM    102  C   UNL     1     141.615 173.668 192.687  0.00  0.00    +0.002 C 
ATOM    103  H   UNL     1     141.116 174.170 193.524  0.00  0.00    +0.043 HD
ATOM    104  H   UNL     1     140.905 173.641 191.853  0.00  0.00    +0.043 HD
ATOM    105  H   UNL     1     141.825 172.629 192.971  0.00  0.00    +0.043 HD
ENDBRANCH 101 102
BRANCH 101 106
ATOM    106  C   UNL     1     143.033 175.665 192.949  0.00  0.00    +0.110 C 
ATOM    107  H   UNL     1     142.160 175.955 193.547  0.00  0.00    +0.077 HD
ATOM    108  H   UNL     1     143.203 176.456 192.210  0.00  0.00    +0.077 HD
BRANCH 106 109
ATOM    109  O   UNL     1     144.159 175.573 193.793  0.00  0.00    -0.377 OA
ATOM    110  H   UNL     1     144.082 176.391 194.315  0.00  0.00    +0.211 HD
ENDBRANCH 106 109
ENDBRANCH 101 106
ENDBRANCH  98 101
ENDBRANCH  91  97
ENDBRANCH  89  91
BRANCH  89 111
ATOM    111  O   UNL     1     147.723 172.428 191.470  0.00  0.00    -0.460 OA
BRANCH 111 112
ATOM    112  C   UNL     1     147.959 172.815 192.754  0.00  0.00    +0.304 C 
ATOM    113  O   UNL     1     147.140 173.314 193.512  0.00  0.00    -0.251 OA
BRANCH 112 114
ATOM    114  C   UNL     1     149.392 172.553 193.104  0.00  0.00    +0.033 C 
ATOM    115  H   UNL     1     149.789 173.390 193.683  0.00  0.00    +0.034 HD
ATOM    116  H   UNL     1     149.975 172.407 192.192  0.00  0.00    +0.034 HD
ATOM    117  H   UNL     1     149.459 171.646 193.710  0.00  0.00    +0.034 HD
ENDBRANCH 112 114
ENDBRANCH 111 112
ENDBRANCH  89 111
ENDBRANCH  83  89
ENDBRANCH  81  83
ENDBRANCH  78  81
ENDBRANCH  75  78
ENDBRANCH  69  75
ENDBRANCH  67  69
BRANCH  67 118
ATOM    118  O   UNL     1     150.254 167.659 187.165  0.00  0.00    -0.379 OA
BRANCH 118 119
ATOM    119  C   UNL     1     149.079 167.962 186.420  0.00  0.00    +0.037 C 
ATOM    120  H   UNL     1     148.241 168.027 187.119  0.00  0.00    +0.052 HD
ATOM    121  H   UNL     1     149.188 168.931 185.919  0.00  0.00    +0.052 HD
ATOM    122  H   UNL     1     148.859 167.180 185.688  0.00  0.00    +0.052 HD
ENDBRANCH 118 119
ENDBRANCH  67 118
ENDBRANCH  64  67
ENDBRANCH  13  64
BRANCH   8 123
ATOM    123  O   UNL     1     148.079 164.988 185.520  0.00  0.00    -0.391 OA
ATOM    124  H   UNL     1     147.107 164.986 185.451  0.00  0.00    +0.210 HD
ENDBRANCH   8 123
BRANCH  15 125
ATOM    125  O   UNL     1     152.027 162.177 191.150  0.00  0.00    -0.379 OA
BRANCH 125 126
ATOM    126  C   UNL     1     151.580 160.884 190.764  0.00  0.00    +0.037 C 
ATOM    127  H   UNL     1     150.512 160.761 190.971  0.00  0.00    +0.052 HD
ATOM    128  H   UNL     1     151.736 160.777 189.687  0.00  0.00    +0.052 HD
ATOM    129  H   UNL     1     152.157 160.102 191.264  0.00  0.00    +0.052 HD
ENDBRANCH 125 126
ENDBRANCH  15 125
TORSDOF 27
ENDMDL
MODEL 3
REMARK VINA RESULT:      -5.5      6.454     11.411
REMARK  Name = Ulapualide A_conf2
REMARK  27 active torsions:
REMARK  status: ('A' for Active; 'I' for Inactive)
REMARK    1  A    between atoms: C_1  and  C_2
REMARK    2  A    between atoms: C_9  and  O_63
REMARK    3  A    between atoms: C_14  and  C_38
REMARK    4  A    between atoms: C_15  and  C_37
REMARK    5  A    between atoms: C_16  and  O_35
REMARK    6  A    between atoms: O_35  and  C_36
REMARK    7  A    between atoms: C_38  and  C_39
REMARK    8  A    between atoms: C_39  and  C_40
REMARK    9  A    between atoms: C_39  and  O_61
REMARK   10  A    between atoms: C_40  and  C_41
REMARK   11  A    between atoms: C_40  and  C_42
REMARK   12  A    between atoms: C_42  and  C_43
REMARK   13  A    between atoms: C_43  and  C_44
REMARK   14  A    between atoms: C_44  and  C_46
REMARK   15  A    between atoms: C_46  and  C_47
REMARK   16  A    between atoms: C_46  and  C_48
REMARK   17  A    between atoms: C_48  and  C_49
REMARK   18  A    between atoms: C_48  and  O_57
REMARK   19  A    between atoms: C_49  and  C_50
REMARK   20  A    between atoms: C_49  and  C_51
REMARK   21  A    between atoms: C_52  and  N_53
REMARK   22  A    between atoms: N_53  and  C_54
REMARK   23  A    between atoms: N_53  and  C_55
REMARK   24  A    between atoms: C_55  and  O_56
REMARK   25  A    between atoms: O_57  and  C_58
REMARK   26  A    between atoms: C_58  and  C_60
REMARK   27  A    between atoms: O_61  and  C_62
REMARK                            x       y       z     vdW  Elec       q    Type
REMARK                         _______ _______ _______ _____ _____    ______ ____
ROOT
ATOM      1  C   UNL     1     150.889 167.209 192.348  0.00  0.00    +0.008 C 
ATOM      2  C   UNL     1     150.482 168.085 191.158  0.00  0.00    +0.014 C 
ATOM      3  C   UNL     1     150.611 167.463 189.778  0.00  0.00    +0.134 C 
ATOM      4  O   UNL     1     149.604 167.151 189.138  0.00  0.00    -0.297 OA
ATOM      5  C   UNL     1     152.011 167.300 189.213  0.00  0.00    +0.006 C 
ATOM      6  C   UNL     1     152.015 167.156 187.693  0.00  0.00    -0.044 C 
ATOM      7  C   UNL     1     153.389 167.356 187.040  0.00  0.00    -0.026 C 
ATOM      8  C   UNL     1     154.494 166.437 187.579  0.00  0.00    +0.065 C 
ATOM      9  C   UNL     1     155.702 166.430 186.642  0.00  0.00    +0.071 C 
ATOM     10  C   UNL     1     156.613 165.267 186.934  0.00  0.00    +0.310 C 
ATOM     11  O   UNL     1     157.765 165.383 187.334  0.00  0.00    -0.251 OA
ATOM     12  O   UNL     1     155.995 164.093 186.626  0.00  0.00    -0.461 OA
ATOM     13  C   UNL     1     156.781 162.886 186.772  0.00  0.00    +0.110 C 
ATOM     14  C   UNL     1     156.354 161.902 185.640  0.00  0.00    +0.020 C 
ATOM     15  C   UNL     1     154.817 161.837 185.347  0.00  0.00    +0.068 C 
ATOM     16  C   UNL     1     153.995 161.027 186.376  0.00  0.00    -0.008 C 
ATOM     17  C   UNL     1     154.255 159.536 186.341  0.00  0.00    -0.077 C 
ATOM     18  C   UNL     1     153.517 158.578 186.923  0.00  0.00    -0.003 C 
ATOM     19  C   UNL     1     152.403 158.835 187.771  0.00  0.00    +0.220 A 
ATOM     20  N   UNL     1     152.101 159.977 188.374  0.00  0.00    -0.205 NA
ATOM     21  C   UNL     1     150.995 159.707 189.136  0.00  0.00    +0.164 A 
ATOM     22  C   UNL     1     150.623 158.401 188.963  0.00  0.00    +0.125 A 
ATOM     23  O   UNL     1     151.510 157.827 188.107  0.00  0.00    -0.443 OA
ATOM     24  C   UNL     1     150.267 160.708 190.087  0.00  0.00    +0.250 A 
ATOM     25  N   UNL     1     150.654 161.958 190.297  0.00  0.00    -0.203 NA
ATOM     26  C   UNL     1     149.756 162.437 191.219  0.00  0.00    +0.164 A 
ATOM     27  C   UNL     1     148.843 161.463 191.531  0.00  0.00    +0.125 A 
ATOM     28  O   UNL     1     149.152 160.349 190.813  0.00  0.00    -0.442 OA
ATOM     29  C   UNL     1     149.733 163.865 191.853  0.00  0.00    +0.249 A 
ATOM     30  N   UNL     1     150.598 164.832 191.590  0.00  0.00    -0.212 NA
ATOM     31  C   UNL     1     150.183 165.894 192.361  0.00  0.00    +0.083 A 
ATOM     32  C   UNL     1     149.074 165.524 193.083  0.00  0.00    +0.116 A 
ATOM     33  O   UNL     1     148.772 164.237 192.770  0.00  0.00    -0.442 OA
ATOM     34  H   UNL     1     150.555 167.757 193.242  0.00  0.00    +0.037 HD
ATOM     35  H   UNL     1     151.034 169.031 191.162  0.00  0.00    +0.035 HD
ATOM     36  H   UNL     1     149.424 168.361 191.274  0.00  0.00    +0.035 HD
ATOM     37  H   UNL     1     152.588 168.187 189.498  0.00  0.00    +0.034 HD
ATOM     38  H   UNL     1     152.456 166.410 189.665  0.00  0.00    +0.034 HD
ATOM     39  H   UNL     1     151.628 166.164 187.425  0.00  0.00    +0.027 HD
ATOM     40  H   UNL     1     151.323 167.884 187.248  0.00  0.00    +0.027 HD
ATOM     41  H   UNL     1     153.263 167.188 185.962  0.00  0.00    +0.029 HD
ATOM     42  H   UNL     1     153.688 168.405 187.169  0.00  0.00    +0.029 HD
ATOM     43  H   UNL     1     154.098 165.424 187.712  0.00  0.00    +0.060 HD
ATOM     44  H   UNL     1     156.289 167.350 186.750  0.00  0.00    +0.040 HD
ATOM     45  H   UNL     1     155.406 166.349 185.590  0.00  0.00    +0.040 HD
ATOM     46  H   UNL     1     157.836 163.140 186.596  0.00  0.00    +0.074 HD
ATOM     47  H   UNL     1     156.731 160.897 185.866  0.00  0.00    +0.036 HD
ATOM     48  H   UNL     1     154.424 162.861 185.324  0.00  0.00    +0.060 HD
ATOM     49  H   UNL     1     152.931 161.186 186.157  0.00  0.00    +0.033 HD
ATOM     50  H   UNL     1     154.153 161.413 187.380  0.00  0.00    +0.033 HD
ATOM     51  H   UNL     1     155.106 159.212 185.741  0.00  0.00    +0.057 HD
ATOM     52  H   UNL     1     153.777 157.538 186.766  0.00  0.00    +0.067 HD
ATOM     53  H   UNL     1     149.837 157.768 189.346  0.00  0.00    +0.105 HD
ATOM     54  H   UNL     1     147.988 161.397 192.187  0.00  0.00    +0.105 HD
ATOM     55  H   UNL     1     148.420 166.012 193.787  0.00  0.00    +0.105 HD
ENDROOT
BRANCH   1  56
ATOM     56  C   UNL     1     152.402 167.063 192.515  0.00  0.00    -0.056 C 
ATOM     57  H   UNL     1     152.908 167.992 192.227  0.00  0.00    +0.024 HD
ATOM     58  H   UNL     1     152.699 166.854 193.545  0.00  0.00    +0.024 HD
ATOM     59  H   UNL     1     152.793 166.262 191.875  0.00  0.00    +0.024 HD
ENDBRANCH   1  56
BRANCH  14  60
ATOM     60  C   UNL     1     157.095 162.341 184.352  0.00  0.00    -0.057 C 
ATOM     61  H   UNL     1     156.502 163.055 183.771  0.00  0.00    +0.023 HD
ATOM     62  H   UNL     1     157.280 161.486 183.693  0.00  0.00    +0.023 HD
ATOM     63  H   UNL     1     158.059 162.805 184.588  0.00  0.00    +0.023 HD
ENDBRANCH  14  60
BRANCH  13  64
ATOM     64  C   UNL     1     156.682 162.407 188.236  0.00  0.00    +0.011 C 
ATOM     65  H   UNL     1     156.210 163.203 188.820  0.00  0.00    +0.033 HD
ATOM     66  H   UNL     1     156.020 161.548 188.321  0.00  0.00    +0.033 HD
BRANCH  64  67
ATOM     67  C   UNL     1     158.053 162.065 188.849  0.00  0.00    +0.064 C 
ATOM     68  H   UNL     1     158.831 162.577 188.267  0.00  0.00    +0.060 HD
BRANCH  67  69
ATOM     69  C   UNL     1     158.197 162.510 190.334  0.00  0.00    -0.017 C 
ATOM     70  H   UNL     1     157.566 163.393 190.484  0.00  0.00    +0.032 HD
BRANCH  69  71
ATOM     71  C   UNL     1     157.653 161.428 191.279  0.00  0.00    -0.060 C 
ATOM     72  H   UNL     1     157.717 160.437 190.816  0.00  0.00    +0.023 HD
ATOM     73  H   UNL     1     158.198 161.397 192.228  0.00  0.00    +0.023 HD
ATOM     74  H   UNL     1     156.598 161.613 191.511  0.00  0.00    +0.023 HD
ENDBRANCH  69  71
BRANCH  69  75
ATOM     75  C   UNL     1     159.624 162.904 190.780  0.00  0.00    -0.041 C 
ATOM     76  H   UNL     1     159.642 163.931 191.164  0.00  0.00    +0.027 HD
ATOM     77  H   UNL     1     160.268 162.910 189.891  0.00  0.00    +0.027 HD
BRANCH  75  78
ATOM     78  C   UNL     1     160.232 161.956 191.816  0.00  0.00    +0.007 C 
ATOM     79  H   UNL     1     159.447 161.554 192.461  0.00  0.00    +0.034 HD
ATOM     80  H   UNL     1     160.727 161.131 191.297  0.00  0.00    +0.034 HD
BRANCH  78  81
ATOM     81  C   UNL     1     161.256 162.646 192.711  0.00  0.00    +0.140 C 
ATOM     82  O   UNL     1     161.645 163.798 192.491  0.00  0.00    -0.297 OA
BRANCH  81  83
ATOM     83  C   UNL     1     161.783 161.902 193.936  0.00  0.00    +0.052 C 
ATOM     84  H   UNL     1     161.891 160.856 193.623  0.00  0.00    +0.041 HD
BRANCH  83  85
ATOM     85  C   UNL     1     163.195 162.378 194.286  0.00  0.00    -0.052 C 
ATOM     86  H   UNL     1     163.550 161.869 195.187  0.00  0.00    +0.024 HD
ATOM     87  H   UNL     1     163.914 162.177 193.487  0.00  0.00    +0.024 HD
ATOM     88  H   UNL     1     163.203 163.453 194.486  0.00  0.00    +0.024 HD
ENDBRANCH  83  85
BRANCH  83  89
ATOM     89  C   UNL     1     160.854 161.931 195.169  0.00  0.00    +0.118 C 
ATOM     90  H   UNL     1     161.522 162.112 196.024  0.00  0.00    +0.075 HD
BRANCH  89  91
ATOM     91  C   UNL     1     160.062 160.630 195.494  0.00  0.00    +0.014 C 
ATOM     92  H   UNL     1     160.686 159.795 195.141  0.00  0.00    +0.038 HD
BRANCH  91  93
ATOM     93  C   UNL     1     158.764 160.534 194.682  0.00  0.00    -0.056 C 
ATOM     94  H   UNL     1     158.378 161.516 194.391  0.00  0.00    +0.024 HD
ATOM     95  H   UNL     1     157.981 160.025 195.257  0.00  0.00    +0.024 HD
ATOM     96  H   UNL     1     158.924 159.953 193.768  0.00  0.00    +0.024 HD
ENDBRANCH  91  93
BRANCH  91  97
ATOM     97  C   UNL     1     159.914 160.363 196.981  0.00  0.00    -0.064 C 
ATOM     98  C   UNL     1     158.830 160.564 197.741  0.00  0.00    -0.010 C 
ATOM     99  H   UNL     1     160.800 159.939 197.450  0.00  0.00    +0.059 HD
ATOM    100  H   UNL     1     157.937 161.006 197.297  0.00  0.00    +0.078 HD
BRANCH  98 101
ATOM    101  N   UNL     1     158.664 160.306 199.093  0.00  0.00    -0.317 N 
BRANCH 101 102
ATOM    102  C   UNL     1     158.517 158.959 199.636  0.00  0.00    +0.002 C 
ATOM    103  H   UNL     1     157.514 158.819 200.055  0.00  0.00    +0.043 HD
ATOM    104  H   UNL     1     158.664 158.185 198.875  0.00  0.00    +0.043 HD
ATOM    105  H   UNL     1     159.258 158.785 200.426  0.00  0.00    +0.043 HD
ENDBRANCH 101 102
BRANCH 101 106
ATOM    106  C   UNL     1     158.604 161.383 200.067  0.00  0.00    +0.110 C 
ATOM    107  H   UNL     1     159.007 161.071 201.039  0.00  0.00    +0.077 HD
ATOM    108  H   UNL     1     157.583 161.743 200.235  0.00  0.00    +0.077 HD
BRANCH 106 109
ATOM    109  O   UNL     1     159.388 162.439 199.560  0.00  0.00    -0.377 OA
ATOM    110  H   UNL     1     158.921 163.218 199.912  0.00  0.00    +0.211 HD
ENDBRANCH 106 109
ENDBRANCH 101 106
ENDBRANCH  98 101
ENDBRANCH  91  97
ENDBRANCH  89  91
BRANCH  89 111
ATOM    111  O   UNL     1     159.952 163.057 195.062  0.00  0.00    -0.460 OA
BRANCH 111 112
ATOM    112  C   UNL     1     160.050 164.023 196.017  0.00  0.00    +0.304 C 
ATOM    113  O   UNL     1     159.696 163.915 197.182  0.00  0.00    -0.251 OA
BRANCH 112 114
ATOM    114  C   UNL     1     160.647 165.261 195.421  0.00  0.00    +0.033 C 
ATOM    115  H   UNL     1     160.665 165.176 194.333  0.00  0.00    +0.034 HD
ATOM    116  H   UNL     1     161.657 165.409 195.811  0.00  0.00    +0.034 HD
ATOM    117  H   UNL     1     160.038 166.127 195.695  0.00  0.00    +0.034 HD
ENDBRANCH 112 114
ENDBRANCH 111 112
ENDBRANCH  89 111
ENDBRANCH  83  89
ENDBRANCH  81  83
ENDBRANCH  78  81
ENDBRANCH  75  78
ENDBRANCH  69  75
ENDBRANCH  67  69
BRANCH  67 118
ATOM    118  O   UNL     1     158.241 160.649 188.729  0.00  0.00    -0.379 OA
BRANCH 118 119
ATOM    119  C   UNL     1     159.410 160.295 187.998  0.00  0.00    +0.037 C 
ATOM    120  H   UNL     1     159.779 161.193 187.492  0.00  0.00    +0.052 HD
ATOM    121  H   UNL     1     160.190 159.938 188.678  0.00  0.00    +0.052 HD
ATOM    122  H   UNL     1     159.192 159.538 187.240  0.00  0.00    +0.052 HD
ENDBRANCH 118 119
ENDBRANCH  67 118
ENDBRANCH  64  67
ENDBRANCH  13  64
BRANCH   8 123
ATOM    123  O   UNL     1     154.907 166.904 188.866  0.00  0.00    -0.391 OA
ATOM    124  H   UNL     1     154.113 167.067 189.407  0.00  0.00    +0.210 HD
ENDBRANCH   8 123
BRANCH  15 125
ATOM    125  O   UNL     1     154.618 161.275 184.028  0.00  0.00    -0.379 OA
BRANCH 125 126
ATOM    126  C   UNL     1     153.372 161.614 183.433  0.00  0.00    +0.037 C 
ATOM    127  H   UNL     1     152.882 160.728 183.017  0.00  0.00    +0.052 HD
ATOM    128  H   UNL     1     152.727 162.031 184.210  0.00  0.00    +0.052 HD
ATOM    129  H   UNL     1     153.499 162.376 182.659  0.00  0.00    +0.052 HD
ENDBRANCH 125 126
ENDBRANCH  15 125
TORSDOF 27
ENDMDL
MODEL 4
REMARK VINA RESULT:      -5.4      3.643      9.431
REMARK  Name = Ulapualide A_conf2
REMARK  27 active torsions:
REMARK  status: ('A' for Active; 'I' for Inactive)
REMARK    1  A    between atoms: C_1  and  C_2
REMARK    2  A    between atoms: C_9  and  O_63
REMARK    3  A    between atoms: C_14  and  C_38
REMARK    4  A    between atoms: C_15  and  C_37
REMARK    5  A    between atoms: C_16  and  O_35
REMARK    6  A    between atoms: O_35  and  C_36
REMARK    7  A    between atoms: C_38  and  C_39
REMARK    8  A    between atoms: C_39  and  C_40
REMARK    9  A    between atoms: C_39  and  O_61
REMARK   10  A    between atoms: C_40  and  C_41
REMARK   11  A    between atoms: C_40  and  C_42
REMARK   12  A    between atoms: C_42  and  C_43
REMARK   13  A    between atoms: C_43  and  C_44
REMARK   14  A    between atoms: C_44  and  C_46
REMARK   15  A    between atoms: C_46  and  C_47
REMARK   16  A    between atoms: C_46  and  C_48
REMARK   17  A    between atoms: C_48  and  C_49
REMARK   18  A    between atoms: C_48  and  O_57
REMARK   19  A    between atoms: C_49  and  C_50
REMARK   20  A    between atoms: C_49  and  C_51
REMARK   21  A    between atoms: C_52  and  N_53
REMARK   22  A    between atoms: N_53  and  C_54
REMARK   23  A    between atoms: N_53  and  C_55
REMARK   24  A    between atoms: C_55  and  O_56
REMARK   25  A    between atoms: O_57  and  C_58
REMARK   26  A    between atoms: C_58  and  C_60
REMARK   27  A    between atoms: O_61  and  C_62
REMARK                            x       y       z     vdW  Elec       q    Type
REMARK                         _______ _______ _______ _____ _____    ______ ____
ROOT
ATOM      1  C   UNL     1     142.694 171.618 189.795  0.00  0.00    +0.008 C 
ATOM      2  C   UNL     1     141.907 170.551 190.563  0.00  0.00    +0.014 C 
ATOM      3  C   UNL     1     142.702 169.376 191.106  0.00  0.00    +0.134 C 
ATOM      4  O   UNL     1     142.897 169.262 192.318  0.00  0.00    -0.297 OA
ATOM      5  C   UNL     1     143.185 168.338 190.108  0.00  0.00    +0.006 C 
ATOM      6  C   UNL     1     143.508 166.999 190.767  0.00  0.00    -0.044 C 
ATOM      7  C   UNL     1     143.643 165.825 189.787  0.00  0.00    -0.026 C 
ATOM      8  C   UNL     1     144.678 166.037 188.674  0.00  0.00    +0.065 C 
ATOM      9  C   UNL     1     145.019 164.714 187.989  0.00  0.00    +0.071 C 
ATOM     10  C   UNL     1     146.286 164.827 187.183  0.00  0.00    +0.310 C 
ATOM     11  O   UNL     1     146.337 164.702 185.965  0.00  0.00    -0.251 OA
ATOM     12  O   UNL     1     147.355 165.014 188.006  0.00  0.00    -0.461 OA
ATOM     13  C   UNL     1     148.660 165.054 187.380  0.00  0.00    +0.110 C 
ATOM     14  C   UNL     1     149.677 164.392 188.359  0.00  0.00    +0.020 C 
ATOM     15  C   UNL     1     149.492 164.756 189.871  0.00  0.00    +0.068 C 
ATOM     16  C   UNL     1     150.009 166.158 190.268  0.00  0.00    -0.008 C 
ATOM     17  C   UNL     1     151.516 166.299 190.223  0.00  0.00    -0.077 C 
ATOM     18  C   UNL     1     152.245 167.294 190.751  0.00  0.00    -0.003 C 
ATOM     19  C   UNL     1     151.688 168.454 191.361  0.00  0.00    +0.220 A 
ATOM     20  N   UNL     1     150.447 168.905 191.242  0.00  0.00    -0.205 NA
ATOM     21  C   UNL     1     150.416 170.081 191.943  0.00  0.00    +0.164 A 
ATOM     22  C   UNL     1     151.643 170.316 192.503  0.00  0.00    +0.125 A 
ATOM     23  O   UNL     1     152.468 169.299 192.138  0.00  0.00    -0.443 OA
ATOM     24  C   UNL     1     149.192 171.041 192.075  0.00  0.00    +0.250 A 
ATOM     25  N   UNL     1     148.019 170.843 191.492  0.00  0.00    -0.203 NA
ATOM     26  C   UNL     1     147.276 171.941 191.850  0.00  0.00    +0.164 A 
ATOM     27  C   UNL     1     148.022 172.767 192.652  0.00  0.00    +0.125 A 
ATOM     28  O   UNL     1     149.251 172.205 192.810  0.00  0.00    -0.442 OA
ATOM     29  C   UNL     1     145.803 172.256 191.434  0.00  0.00    +0.249 A 
ATOM     30  N   UNL     1     145.050 171.494 190.656  0.00  0.00    -0.212 NA
ATOM     31  C   UNL     1     143.846 172.156 190.576  0.00  0.00    +0.083 A 
ATOM     32  C   UNL     1     143.917 173.317 191.309  0.00  0.00    +0.116 A 
ATOM     33  O   UNL     1     145.154 173.394 191.864  0.00  0.00    -0.442 OA
ATOM     34  H   UNL     1     141.991 172.452 189.650  0.00  0.00    +0.037 HD
ATOM     35  H   UNL     1     141.085 170.159 189.954  0.00  0.00    +0.035 HD
ATOM     36  H   UNL     1     141.429 171.027 191.431  0.00  0.00    +0.035 HD
ATOM     37  H   UNL     1     142.392 168.199 189.365  0.00  0.00    +0.034 HD
ATOM     38  H   UNL     1     144.082 168.730 189.620  0.00  0.00    +0.034 HD
ATOM     39  H   UNL     1     144.437 167.097 191.345  0.00  0.00    +0.027 HD
ATOM     40  H   UNL     1     142.723 166.742 191.492  0.00  0.00    +0.027 HD
ATOM     41  H   UNL     1     143.912 164.940 190.378  0.00  0.00    +0.029 HD
ATOM     42  H   UNL     1     142.658 165.628 189.341  0.00  0.00    +0.029 HD
ATOM     43  H   UNL     1     145.578 166.503 189.092  0.00  0.00    +0.060 HD
ATOM     44  H   UNL     1     144.216 164.405 187.308  0.00  0.00    +0.040 HD
ATOM     45  H   UNL     1     145.168 163.903 188.711  0.00  0.00    +0.040 HD
ATOM     46  H   UNL     1     148.627 164.427 186.478  0.00  0.00    +0.074 HD
ATOM     47  H   UNL     1     150.699 164.629 188.043  0.00  0.00    +0.036 HD
ATOM     48  H   UNL     1     148.424 164.703 190.114  0.00  0.00    +0.060 HD
ATOM     49  H   UNL     1     149.684 166.359 191.297  0.00  0.00    +0.033 HD
ATOM     50  H   UNL     1     149.541 166.924 189.653  0.00  0.00    +0.033 HD
ATOM     51  H   UNL     1     152.060 165.480 189.753  0.00  0.00    +0.057 HD
ATOM     52  H   UNL     1     153.326 167.241 190.706  0.00  0.00    +0.067 HD
ATOM     53  H   UNL     1     152.071 171.092 193.120  0.00  0.00    +0.105 HD
ATOM     54  H   UNL     1     147.851 173.710 193.148  0.00  0.00    +0.105 HD
ATOM     55  H   UNL     1     143.237 174.119 191.540  0.00  0.00    +0.105 HD
ENDROOT
BRANCH   1  56
ATOM     56  C   UNL     1     143.095 171.189 188.383  0.00  0.00    -0.056 C 
ATOM     57  H   UNL     1     142.808 171.957 187.655  0.00  0.00    +0.024 HD
ATOM     58  H   UNL     1     144.172 171.042 188.271  0.00  0.00    +0.024 HD
ATOM     59  H   UNL     1     142.590 170.258 188.095  0.00  0.00    +0.024 HD
ENDBRANCH   1  56
BRANCH  14  60
ATOM     60  C   UNL     1     149.538 162.857 188.190  0.00  0.00    -0.057 C 
ATOM     61  H   UNL     1     150.133 162.491 187.346  0.00  0.00    +0.023 HD
ATOM     62  H   UNL     1     148.501 162.576 187.982  0.00  0.00    +0.023 HD
ATOM     63  H   UNL     1     149.861 162.329 189.095  0.00  0.00    +0.023 HD
ENDBRANCH  14  60
BRANCH  13  64
ATOM     64  C   UNL     1     148.935 166.497 186.903  0.00  0.00    +0.011 C 
ATOM     65  H   UNL     1     148.014 167.076 187.033  0.00  0.00    +0.033 HD
ATOM     66  H   UNL     1     149.677 166.981 187.534  0.00  0.00    +0.033 HD
BRANCH  64  67
ATOM     67  C   UNL     1     149.382 166.566 185.431  0.00  0.00    +0.064 C 
ATOM     68  H   UNL     1     150.258 167.227 185.365  0.00  0.00    +0.060 HD
BRANCH  67  69
ATOM     69  C   UNL     1     149.781 165.183 184.839  0.00  0.00    -0.017 C 
ATOM     70  H   UNL     1     149.550 164.416 185.587  0.00  0.00    +0.032 HD
BRANCH  69  71
ATOM     71  C   UNL     1     148.924 164.854 183.607  0.00  0.00    -0.060 C 
ATOM     72  H   UNL     1     149.431 165.162 182.686  0.00  0.00    +0.023 HD
ATOM     73  H   UNL     1     148.702 163.785 183.533  0.00  0.00    +0.023 HD
ATOM     74  H   UNL     1     147.968 165.387 183.649  0.00  0.00    +0.023 HD
ENDBRANCH  69  71
BRANCH  69  75
ATOM     75  C   UNL     1     151.275 165.014 184.478  0.00  0.00    -0.041 C 
ATOM     76  H   UNL     1     151.578 165.747 183.720  0.00  0.00    +0.027 HD
ATOM     77  H   UNL     1     151.400 164.031 184.004  0.00  0.00    +0.027 HD
BRANCH  75  78
ATOM     78  C   UNL     1     152.216 165.099 185.681  0.00  0.00    +0.007 C 
ATOM     79  H   UNL     1     151.771 165.724 186.460  0.00  0.00    +0.034 HD
ATOM     80  H   UNL     1     152.376 164.093 186.079  0.00  0.00    +0.034 HD
BRANCH  78  81
ATOM     81  C   UNL     1     153.571 165.698 185.324  0.00  0.00    +0.140 C 
ATOM     82  O   UNL     1     154.061 165.582 184.196  0.00  0.00    -0.297 OA
BRANCH  81  83
ATOM     83  C   UNL     1     154.323 166.501 186.384  0.00  0.00    +0.052 C 
ATOM     84  H   UNL     1     154.920 167.236 185.830  0.00  0.00    +0.041 HD
BRANCH  83  85
ATOM     85  C   UNL     1     153.345 167.316 187.232  0.00  0.00    -0.052 C 
ATOM     86  H   UNL     1     153.005 166.723 188.088  0.00  0.00    +0.024 HD
ATOM     87  H   UNL     1     153.794 168.234 187.622  0.00  0.00    +0.024 HD
ATOM     88  H   UNL     1     152.463 167.593 186.648  0.00  0.00    +0.024 HD
ENDBRANCH  83  85
BRANCH  83  89
ATOM     89  C   UNL     1     155.288 165.679 187.265  0.00  0.00    +0.118 C 
ATOM     90  H   UNL     1     155.262 164.663 186.844  0.00  0.00    +0.075 HD
BRANCH  89  91
ATOM     91  C   UNL     1     154.932 165.542 188.775  0.00  0.00    +0.014 C 
ATOM     92  H   UNL     1     154.025 166.147 188.932  0.00  0.00    +0.038 HD
BRANCH  91  93
ATOM     93  C   UNL     1     156.001 166.175 189.674  0.00  0.00    -0.056 C 
ATOM     94  H   UNL     1     155.850 167.250 189.812  0.00  0.00    +0.024 HD
ATOM     95  H   UNL     1     157.002 166.030 189.251  0.00  0.00    +0.024 HD
ATOM     96  H   UNL     1     155.997 165.707 190.665  0.00  0.00    +0.024 HD
ENDBRANCH  91  93
BRANCH  91  97
ATOM     97  C   UNL     1     154.500 164.142 189.174  0.00  0.00    -0.064 C 
ATOM     98  C   UNL     1     153.466 163.440 188.692  0.00  0.00    -0.010 C 
ATOM     99  H   UNL     1     155.138 163.673 189.920  0.00  0.00    +0.059 HD
ATOM    100  H   UNL     1     152.803 163.897 187.958  0.00  0.00    +0.078 HD
BRANCH  98 101
ATOM    101  N   UNL     1     153.068 162.154 189.022  0.00  0.00    -0.317 N 
BRANCH 101 102
ATOM    102  C   UNL     1     152.837 161.110 188.027  0.00  0.00    +0.002 C 
ATOM    103  H   UNL     1     152.298 161.514 187.163  0.00  0.00    +0.043 HD
ATOM    104  H   UNL     1     153.771 160.675 187.656  0.00  0.00    +0.043 HD
ATOM    105  H   UNL     1     152.247 160.294 188.463  0.00  0.00    +0.043 HD
ENDBRANCH 101 102
BRANCH 101 106
ATOM    106  C   UNL     1     152.832 161.765 190.402  0.00  0.00    +0.110 C 
ATOM    107  H   UNL     1     151.853 162.109 190.756  0.00  0.00    +0.077 HD
ATOM    108  H   UNL     1     153.588 162.163 191.087  0.00  0.00    +0.077 HD
BRANCH 106 109
ATOM    109  O   UNL     1     152.869 160.356 190.443  0.00  0.00    -0.377 OA
ATOM    110  H   UNL     1     153.827 160.184 190.481  0.00  0.00    +0.211 HD
ENDBRANCH 106 109
ENDBRANCH 101 106
ENDBRANCH  98 101
ENDBRANCH  91  97
ENDBRANCH  89  91
BRANCH  89 111
ATOM    111  O   UNL     1     156.633 166.191 187.109  0.00  0.00    -0.460 OA
BRANCH 111 112
ATOM    112  C   UNL     1     157.513 165.420 186.413  0.00  0.00    +0.304 C 
ATOM    113  O   UNL     1     158.626 165.764 186.040  0.00  0.00    -0.251 OA
BRANCH 112 114
ATOM    114  C   UNL     1     156.906 164.076 186.149  0.00  0.00    +0.033 C 
ATOM    115  H   UNL     1     157.645 163.294 186.339  0.00  0.00    +0.034 HD
ATOM    116  H   UNL     1     156.553 164.026 185.117  0.00  0.00    +0.034 HD
ATOM    117  H   UNL     1     156.054 163.924 186.816  0.00  0.00    +0.034 HD
ENDBRANCH 112 114
ENDBRANCH 111 112
ENDBRANCH  89 111
ENDBRANCH  83  89
ENDBRANCH  81  83
ENDBRANCH  78  81
ENDBRANCH  75  78
ENDBRANCH  69  75
ENDBRANCH  67  69
BRANCH  67 118
ATOM    118  O   UNL     1     148.308 167.144 184.678  0.00  0.00    -0.379 OA
BRANCH 118 119
ATOM    119  C   UNL     1     147.594 168.147 185.392  0.00  0.00    +0.037 C 
ATOM    120  H   UNL     1     147.867 169.121 184.976  0.00  0.00    +0.052 HD
ATOM    121  H   UNL     1     146.514 168.008 185.265  0.00  0.00    +0.052 HD
ATOM    122  H   UNL     1     147.854 168.141 186.455  0.00  0.00    +0.052 HD
ENDBRANCH 118 119
ENDBRANCH  67 118
ENDBRANCH  64  67
ENDBRANCH  13  64
BRANCH   8 123
ATOM    123  O   UNL     1     144.145 166.940 187.702  0.00  0.00    -0.391 OA
ATOM    124  H   UNL     1     143.984 166.448 186.876  0.00  0.00    +0.210 HD
ENDBRANCH   8 123
BRANCH  15 125
ATOM    125  O   UNL     1     150.161 163.756 190.676  0.00  0.00    -0.379 OA
BRANCH 125 126
ATOM    126  C   UNL     1     149.586 163.564 191.962  0.00  0.00    +0.037 C 
ATOM    127  H   UNL     1     150.241 162.959 192.598  0.00  0.00    +0.052 HD
ATOM    128  H   UNL     1     149.464 164.545 192.429  0.00  0.00    +0.052 HD
ATOM    129  H   UNL     1     148.598 163.104 191.888  0.00  0.00    +0.052 HD
ENDBRANCH 125 126
ENDBRANCH  15 125
TORSDOF 27
ENDMDL
MODEL 5
REMARK VINA RESULT:      -5.4      6.414     12.828
REMARK  Name = Ulapualide A_conf2
REMARK  27 active torsions:
REMARK  status: ('A' for Active; 'I' for Inactive)
REMARK    1  A    between atoms: C_1  and  C_2
REMARK    2  A    between atoms: C_9  and  O_63
REMARK    3  A    between atoms: C_14  and  C_38
REMARK    4  A    between atoms: C_15  and  C_37
REMARK    5  A    between atoms: C_16  and  O_35
REMARK    6  A    between atoms: O_35  and  C_36
REMARK    7  A    between atoms: C_38  and  C_39
REMARK    8  A    between atoms: C_39  and  C_40
REMARK    9  A    between atoms: C_39  and  O_61
REMARK   10  A    between atoms: C_40  and  C_41
REMARK   11  A    between atoms: C_40  and  C_42
REMARK   12  A    between atoms: C_42  and  C_43
REMARK   13  A    between atoms: C_43  and  C_44
REMARK   14  A    between atoms: C_44  and  C_46
REMARK   15  A    between atoms: C_46  and  C_47
REMARK   16  A    between atoms: C_46  and  C_48
REMARK   17  A    between atoms: C_48  and  C_49
REMARK   18  A    between atoms: C_48  and  O_57
REMARK   19  A    between atoms: C_49  and  C_50
REMARK   20  A    between atoms: C_49  and  C_51
REMARK   21  A    between atoms: C_52  and  N_53
REMARK   22  A    between atoms: N_53  and  C_54
REMARK   23  A    between atoms: N_53  and  C_55
REMARK   24  A    between atoms: C_55  and  O_56
REMARK   25  A    between atoms: O_57  and  C_58
REMARK   26  A    between atoms: C_58  and  C_60
REMARK   27  A    between atoms: O_61  and  C_62
REMARK                            x       y       z     vdW  Elec       q    Type
REMARK                         _______ _______ _______ _____ _____    ______ ____
ROOT
ATOM      1  C   UNL     1     145.567 178.347 184.418  0.00  0.00    +0.008 C 
ATOM      2  C   UNL     1     144.709 177.535 183.442  0.00  0.00    +0.014 C 
ATOM      3  C   UNL     1     143.718 176.559 184.054  0.00  0.00    +0.134 C 
ATOM      4  O   UNL     1     142.507 176.788 184.007  0.00  0.00    -0.297 OA
ATOM      5  C   UNL     1     144.277 175.285 184.662  0.00  0.00    +0.006 C 
ATOM      6  C   UNL     1     143.227 174.184 184.780  0.00  0.00    -0.044 C 
ATOM      7  C   UNL     1     143.801 172.783 185.037  0.00  0.00    -0.026 C 
ATOM      8  C   UNL     1     144.700 172.678 186.276  0.00  0.00    +0.065 C 
ATOM      9  C   UNL     1     144.915 171.217 186.670  0.00  0.00    +0.071 C 
ATOM     10  C   UNL     1     145.452 171.102 188.072  0.00  0.00    +0.310 C 
ATOM     11  O   UNL     1     146.554 170.644 188.348  0.00  0.00    -0.251 OA
ATOM     12  O   UNL     1     144.516 171.514 188.972  0.00  0.00    -0.461 OA
ATOM     13  C   UNL     1     144.856 171.380 190.373  0.00  0.00    +0.110 C 
ATOM     14  C   UNL     1     143.551 171.018 191.146  0.00  0.00    +0.020 C 
ATOM     15  C   UNL     1     142.265 171.790 190.695  0.00  0.00    +0.068 C 
ATOM     16  C   UNL     1     142.172 173.247 191.201  0.00  0.00    -0.008 C 
ATOM     17  C   UNL     1     141.953 173.372 192.694  0.00  0.00    -0.077 C 
ATOM     18  C   UNL     1     141.583 174.476 193.361  0.00  0.00    -0.003 C 
ATOM     19  C   UNL     1     141.437 175.760 192.762  0.00  0.00    +0.220 A 
ATOM     20  N   UNL     1     141.920 176.157 191.592  0.00  0.00    -0.205 NA
ATOM     21  C   UNL     1     141.588 177.483 191.492  0.00  0.00    +0.164 A 
ATOM     22  C   UNL     1     140.881 177.866 192.599  0.00  0.00    +0.125 A 
ATOM     23  O   UNL     1     140.782 176.789 193.423  0.00  0.00    -0.443 OA
ATOM     24  C   UNL     1     141.970 178.439 190.318  0.00  0.00    +0.250 A 
ATOM     25  N   UNL     1     142.698 178.085 189.270  0.00  0.00    -0.203 NA
ATOM     26  C   UNL     1     142.809 179.238 188.533  0.00  0.00    +0.164 A 
ATOM     27  C   UNL     1     142.132 180.256 189.154  0.00  0.00    +0.125 A 
ATOM     28  O   UNL     1     141.585 179.762 190.298  0.00  0.00    -0.442 OA
ATOM     29  C   UNL     1     143.579 179.422 187.186  0.00  0.00    +0.249 A 
ATOM     30  N   UNL     1     144.254 178.472 186.556  0.00  0.00    -0.212 NA
ATOM     31  C   UNL     1     144.749 179.083 185.426  0.00  0.00    +0.083 A 
ATOM     32  C   UNL     1     144.363 180.403 185.418  0.00  0.00    +0.116 A 
ATOM     33  O   UNL     1     143.616 180.634 186.529  0.00  0.00    -0.442 OA
ATOM     34  H   UNL     1     146.071 179.107 183.802  0.00  0.00    +0.037 HD
ATOM     35  H   UNL     1     145.338 176.987 182.732  0.00  0.00    +0.035 HD
ATOM     36  H   UNL     1     144.117 178.234 182.833  0.00  0.00    +0.035 HD
ATOM     37  H   UNL     1     145.096 174.943 184.020  0.00  0.00    +0.034 HD
ATOM     38  H   UNL     1     144.665 175.527 185.656  0.00  0.00    +0.034 HD
ATOM     39  H   UNL     1     142.525 174.441 185.585  0.00  0.00    +0.027 HD
ATOM     40  H   UNL     1     142.630 174.138 183.858  0.00  0.00    +0.027 HD
ATOM     41  H   UNL     1     142.949 172.099 185.140  0.00  0.00    +0.029 HD
ATOM     42  H   UNL     1     144.362 172.468 184.147  0.00  0.00    +0.029 HD
ATOM     43  H   UNL     1     144.255 173.243 187.103  0.00  0.00    +0.060 HD
ATOM     44  H   UNL     1     145.631 170.730 185.996  0.00  0.00    +0.040 HD
ATOM     45  H   UNL     1     143.984 170.640 186.634  0.00  0.00    +0.040 HD
ATOM     46  H   UNL     1     145.540 170.526 190.479  0.00  0.00    +0.074 HD
ATOM     47  H   UNL     1     143.710 171.160 192.221  0.00  0.00    +0.036 HD
ATOM     48  H   UNL     1     142.235 171.804 189.599  0.00  0.00    +0.060 HD
ATOM     49  H   UNL     1     141.323 173.726 190.697  0.00  0.00    +0.033 HD
ATOM     50  H   UNL     1     143.053 173.811 190.902  0.00  0.00    +0.033 HD
ATOM     51  H   UNL     1     142.063 172.455 193.273  0.00  0.00    +0.057 HD
ATOM     52  H   UNL     1     141.396 174.415 194.427  0.00  0.00    +0.067 HD
ATOM     53  H   UNL     1     140.428 178.784 192.942  0.00  0.00    +0.105 HD
ATOM     54  H   UNL     1     141.957 181.300 188.943  0.00  0.00    +0.105 HD
ATOM     55  H   UNL     1     144.501 181.237 184.751  0.00  0.00    +0.105 HD
ENDROOT
BRANCH   1  56
ATOM     56  C   UNL     1     146.698 177.542 185.059  0.00  0.00    -0.056 C 
ATOM     57  H   UNL     1     146.433 176.479 185.101  0.00  0.00    +0.024 HD
ATOM     58  H   UNL     1     147.636 177.606 184.501  0.00  0.00    +0.024 HD
ATOM     59  H   UNL     1     146.887 177.875 186.087  0.00  0.00    +0.024 HD
ENDBRANCH   1  56
BRANCH  14  60
ATOM     60  C   UNL     1     143.318 169.497 190.960  0.00  0.00    -0.057 C 
ATOM     61  H   UNL     1     142.302 169.287 190.609  0.00  0.00    +0.023 HD
ATOM     62  H   UNL     1     143.435 168.962 191.907  0.00  0.00    +0.023 HD
ATOM     63  H   UNL     1     144.027 169.074 190.239  0.00  0.00    +0.023 HD
ENDBRANCH  14  60
BRANCH  13  64
ATOM     64  C   UNL     1     145.645 172.633 190.811  0.00  0.00    +0.011 C 
ATOM     65  H   UNL     1     146.179 173.018 189.937  0.00  0.00    +0.033 HD
ATOM     66  H   UNL     1     144.971 173.429 191.119  0.00  0.00    +0.033 HD
BRANCH  64  67
ATOM     67  C   UNL     1     146.652 172.342 191.941  0.00  0.00    +0.064 C 
ATOM     68  H   UNL     1     146.113 171.867 192.772  0.00  0.00    +0.060 HD
BRANCH  67  69
ATOM     69  C   UNL     1     147.805 171.389 191.512  0.00  0.00    -0.017 C 
ATOM     70  H   UNL     1     147.502 170.888 190.586  0.00  0.00    +0.032 HD
BRANCH  69  71
ATOM     71  C   UNL     1     149.072 172.190 191.173  0.00  0.00    -0.060 C 
ATOM     72  H   UNL     1     149.657 171.682 190.398  0.00  0.00    +0.023 HD
ATOM     73  H   UNL     1     148.840 173.199 190.819  0.00  0.00    +0.023 HD
ATOM     74  H   UNL     1     149.713 172.289 192.056  0.00  0.00    +0.023 HD
ENDBRANCH  69  71
BRANCH  69  75
ATOM     75  C   UNL     1     148.164 170.275 192.522  0.00  0.00    -0.041 C 
ATOM     76  H   UNL     1     147.386 170.180 193.290  0.00  0.00    +0.027 HD
ATOM     77  H   UNL     1     149.072 170.583 193.058  0.00  0.00    +0.027 HD
BRANCH  75  78
ATOM     78  C   UNL     1     148.419 168.912 191.876  0.00  0.00    +0.007 C 
ATOM     79  H   UNL     1     148.221 168.965 190.802  0.00  0.00    +0.034 HD
ATOM     80  H   UNL     1     149.464 168.632 192.033  0.00  0.00    +0.034 HD
BRANCH  78  81
ATOM     81  C   UNL     1     147.532 167.814 192.455  0.00  0.00    +0.140 C 
ATOM     82  O   UNL     1     146.432 167.538 191.967  0.00  0.00    -0.297 OA
BRANCH  81  83
ATOM     83  C   UNL     1     148.043 167.009 193.648  0.00  0.00    +0.052 C 
ATOM     84  H   UNL     1     148.301 167.750 194.415  0.00  0.00    +0.041 HD
BRANCH  83  85
ATOM     85  C   UNL     1     146.916 166.166 194.248  0.00  0.00    -0.052 C 
ATOM     86  H   UNL     1     146.112 166.038 193.515  0.00  0.00    +0.024 HD
ATOM     87  H   UNL     1     147.253 165.170 194.549  0.00  0.00    +0.024 HD
ATOM     88  H   UNL     1     146.489 166.659 195.126  0.00  0.00    +0.024 HD
ENDBRANCH  83  85
BRANCH  83  89
ATOM     89  C   UNL     1     149.301 166.159 193.373  0.00  0.00    +0.118 C 
ATOM     90  H   UNL     1     150.123 166.885 193.289  0.00  0.00    +0.075 HD
BRANCH  89  91
ATOM     91  C   UNL     1     149.319 165.316 192.063  0.00  0.00    +0.014 C 
ATOM     92  H   UNL     1     148.311 165.404 191.629  0.00  0.00    +0.038 HD
BRANCH  91  93
ATOM     93  C   UNL     1     149.508 163.821 192.347  0.00  0.00    -0.056 C 
ATOM     94  H   UNL     1     150.496 163.595 192.760  0.00  0.00    +0.024 HD
ATOM     95  H   UNL     1     149.385 163.232 191.431  0.00  0.00    +0.024 HD
ATOM     96  H   UNL     1     148.758 163.468 193.063  0.00  0.00    +0.024 HD
ENDBRANCH  91  93
BRANCH  91  97
ATOM     97  C   UNL     1     150.224 165.888 190.985  0.00  0.00    -0.064 C 
ATOM     98  C   UNL     1     151.466 165.497 190.673  0.00  0.00    -0.010 C 
ATOM     99  H   UNL     1     149.773 166.688 190.401  0.00  0.00    +0.059 HD
ATOM    100  H   UNL     1     151.944 164.710 191.257  0.00  0.00    +0.078 HD
BRANCH  98 101
ATOM    101  N   UNL     1     152.300 165.987 189.680  0.00  0.00    -0.317 N 
BRANCH 101 102
ATOM    102  C   UNL     1     153.683 165.548 189.512  0.00  0.00    +0.002 C 
ATOM    103  H   UNL     1     154.368 166.402 189.566  0.00  0.00    +0.043 HD
ATOM    104  H   UNL     1     153.990 164.834 190.284  0.00  0.00    +0.043 HD
ATOM    105  H   UNL     1     153.810 165.053 188.541  0.00  0.00    +0.043 HD
ENDBRANCH 101 102
BRANCH 101 106
ATOM    106  C   UNL     1     151.848 167.000 188.742  0.00  0.00    +0.110 C 
ATOM    107  H   UNL     1     150.760 166.972 188.611  0.00  0.00    +0.077 HD
ATOM    108  H   UNL     1     152.302 166.889 187.751  0.00  0.00    +0.077 HD
BRANCH 106 109
ATOM    109  O   UNL     1     152.216 168.250 189.280  0.00  0.00    -0.377 OA
ATOM    110  H   UNL     1     151.387 168.533 189.708  0.00  0.00    +0.211 HD
ENDBRANCH 106 109
ENDBRANCH 101 106
ENDBRANCH  98 101
ENDBRANCH  91  97
ENDBRANCH  89  91
BRANCH  89 111
ATOM    111  O   UNL     1     149.568 165.315 194.518  0.00  0.00    -0.460 OA
BRANCH 111 112
ATOM    112  C   UNL     1     150.498 165.755 195.410  0.00  0.00    +0.304 C 
ATOM    113  O   UNL     1     150.324 165.902 196.612  0.00  0.00    -0.251 OA
BRANCH 112 114
ATOM    114  C   UNL     1     151.779 166.057 194.694  0.00  0.00    +0.033 C 
ATOM    115  H   UNL     1     151.567 166.595 193.768  0.00  0.00    +0.034 HD
ATOM    116  H   UNL     1     152.313 165.127 194.483  0.00  0.00    +0.034 HD
ATOM    117  H   UNL     1     152.411 166.684 195.328  0.00  0.00    +0.034 HD
ENDBRANCH 112 114
ENDBRANCH 111 112
ENDBRANCH  89 111
ENDBRANCH  83  89
ENDBRANCH  81  83
ENDBRANCH  78  81
ENDBRANCH  75  78
ENDBRANCH  69  75
ENDBRANCH  67  69
BRANCH  67 118
ATOM    118  O   UNL     1     147.178 173.599 192.387  0.00  0.00    -0.379 OA
BRANCH 118 119
ATOM    119  C   UNL     1     147.244 173.711 193.804  0.00  0.00    +0.037 C 
ATOM    120  H   UNL     1     147.711 172.803 194.196  0.00  0.00    +0.052 HD
ATOM    121  H   UNL     1     147.864 174.568 194.089  0.00  0.00    +0.052 HD
ATOM    122  H   UNL     1     146.247 173.803 194.243  0.00  0.00    +0.052 HD
ENDBRANCH 118 119
ENDBRANCH  67 118
ENDBRANCH  64  67
ENDBRANCH  13  64
BRANCH   8 123
ATOM    123  O   UNL     1     145.968 173.273 185.988  0.00  0.00    -0.391 OA
ATOM    124  H   UNL     1     145.882 173.812 185.181  0.00  0.00    +0.210 HD
ENDBRANCH   8 123
BRANCH  15 125
ATOM    125  O   UNL     1     141.101 171.054 191.143  0.00  0.00    -0.379 OA
BRANCH 125 126
ATOM    126  C   UNL     1     139.960 171.208 190.309  0.00  0.00    +0.037 C 
ATOM    127  H   UNL     1     139.044 171.273 190.906  0.00  0.00    +0.052 HD
ATOM    128  H   UNL     1     140.071 172.140 189.748  0.00  0.00    +0.052 HD
ATOM    129  H   UNL     1     139.885 170.390 189.587  0.00  0.00    +0.052 HD
ENDBRANCH 125 126
ENDBRANCH  15 125
TORSDOF 27
ENDMDL
MODEL 6
REMARK VINA RESULT:      -5.4      1.411      1.846
REMARK  Name = Ulapualide A_conf2
REMARK  27 active torsions:
REMARK  status: ('A' for Active; 'I' for Inactive)
REMARK    1  A    between atoms: C_1  and  C_2
REMARK    2  A    between atoms: C_9  and  O_63
REMARK    3  A    between atoms: C_14  and  C_38
REMARK    4  A    between atoms: C_15  and  C_37
REMARK    5  A    between atoms: C_16  and  O_35
REMARK    6  A    between atoms: O_35  and  C_36
REMARK    7  A    between atoms: C_38  and  C_39
REMARK    8  A    between atoms: C_39  and  C_40
REMARK    9  A    between atoms: C_39  and  O_61
REMARK   10  A    between atoms: C_40  and  C_41
REMARK   11  A    between atoms: C_40  and  C_42
REMARK   12  A    between atoms: C_42  and  C_43
REMARK   13  A    between atoms: C_43  and  C_44
REMARK   14  A    between atoms: C_44  and  C_46
REMARK   15  A    between atoms: C_46  and  C_47
REMARK   16  A    between atoms: C_46  and  C_48
REMARK   17  A    between atoms: C_48  and  C_49
REMARK   18  A    between atoms: C_48  and  O_57
REMARK   19  A    between atoms: C_49  and  C_50
REMARK   20  A    between atoms: C_49  and  C_51
REMARK   21  A    between atoms: C_52  and  N_53
REMARK   22  A    between atoms: N_53  and  C_54
REMARK   23  A    between atoms: N_53  and  C_55
REMARK   24  A    between atoms: C_55  and  O_56
REMARK   25  A    between atoms: O_57  and  C_58
REMARK   26  A    between atoms: C_58  and  C_60
REMARK   27  A    between atoms: O_61  and  C_62
REMARK                            x       y       z     vdW  Elec       q    Type
REMARK                         _______ _______ _______ _____ _____    ______ ____
ROOT
ATOM      1  C   UNL     1     145.872 157.299 189.505  0.00  0.00    +0.008 C 
ATOM      2  C   UNL     1     145.496 156.929 188.066  0.00  0.00    +0.014 C 
ATOM      3  C   UNL     1     145.886 157.921 186.983  0.00  0.00    +0.134 C 
ATOM      4  O   UNL     1     146.792 157.654 186.190  0.00  0.00    -0.297 OA
ATOM      5  C   UNL     1     145.082 159.205 186.890  0.00  0.00    +0.006 C 
ATOM      6  C   UNL     1     145.198 159.871 185.521  0.00  0.00    -0.044 C 
ATOM      7  C   UNL     1     144.140 160.948 185.246  0.00  0.00    -0.026 C 
ATOM      8  C   UNL     1     144.090 162.075 186.288  0.00  0.00    +0.065 C 
ATOM      9  C   UNL     1     143.301 163.272 185.757  0.00  0.00    +0.071 C 
ATOM     10  C   UNL     1     143.563 164.506 186.578  0.00  0.00    +0.310 C 
ATOM     11  O   UNL     1     142.708 165.084 187.238  0.00  0.00    -0.251 OA
ATOM     12  O   UNL     1     144.853 164.913 186.421  0.00  0.00    -0.461 OA
ATOM     13  C   UNL     1     145.232 166.144 187.083  0.00  0.00    +0.110 C 
ATOM     14  C   UNL     1     146.260 166.878 186.169  0.00  0.00    +0.020 C 
ATOM     15  C   UNL     1     147.331 165.960 185.487  0.00  0.00    +0.068 C 
ATOM     16  C   UNL     1     148.476 165.498 186.418  0.00  0.00    -0.008 C 
ATOM     17  C   UNL     1     149.418 166.606 186.840  0.00  0.00    -0.077 C 
ATOM     18  C   UNL     1     150.620 166.461 187.419  0.00  0.00    -0.003 C 
ATOM     19  C   UNL     1     151.161 165.210 187.829  0.00  0.00    +0.220 A 
ATOM     20  N   UNL     1     150.504 164.073 188.012  0.00  0.00    -0.205 NA
ATOM     21  C   UNL     1     151.434 163.183 188.479  0.00  0.00    +0.164 A 
ATOM     22  C   UNL     1     152.658 163.790 188.549  0.00  0.00    +0.125 A 
ATOM     23  O   UNL     1     152.506 165.081 188.149  0.00  0.00    -0.443 OA
ATOM     24  C   UNL     1     151.162 161.704 188.901  0.00  0.00    +0.250 A 
ATOM     25  N   UNL     1     149.969 161.128 188.884  0.00  0.00    -0.203 NA
ATOM     26  C   UNL     1     150.200 159.863 189.365  0.00  0.00    +0.164 A 
ATOM     27  C   UNL     1     151.533 159.708 189.650  0.00  0.00    +0.125 A 
ATOM     28  O   UNL     1     152.166 160.877 189.355  0.00  0.00    -0.442 OA
ATOM     29  C   UNL     1     149.143 158.732 189.581  0.00  0.00    +0.249 A 
ATOM     30  N   UNL     1     147.848 158.840 189.330  0.00  0.00    -0.212 NA
ATOM     31  C   UNL     1     147.324 157.610 189.658  0.00  0.00    +0.083 A 
ATOM     32  C   UNL     1     148.332 156.794 190.113  0.00  0.00    +0.116 A 
ATOM     33  O   UNL     1     149.496 157.492 190.068  0.00  0.00    -0.442 OA
ATOM     34  H   UNL     1     145.677 156.394 190.099  0.00  0.00    +0.037 HD
ATOM     35  H   UNL     1     144.422 156.731 187.981  0.00  0.00    +0.035 HD
ATOM     36  H   UNL     1     145.992 155.982 187.809  0.00  0.00    +0.035 HD
ATOM     37  H   UNL     1     144.033 158.955 187.088  0.00  0.00    +0.034 HD
ATOM     38  H   UNL     1     145.448 159.890 187.660  0.00  0.00    +0.034 HD
ATOM     39  H   UNL     1     146.199 160.311 185.419  0.00  0.00    +0.027 HD
ATOM     40  H   UNL     1     145.117 159.112 184.730  0.00  0.00    +0.027 HD
ATOM     41  H   UNL     1     144.358 161.371 184.257  0.00  0.00    +0.029 HD
ATOM     42  H   UNL     1     143.157 160.464 185.181  0.00  0.00    +0.029 HD
ATOM     43  H   UNL     1     145.110 162.371 186.560  0.00  0.00    +0.060 HD
ATOM     44  H   UNL     1     142.222 163.074 185.785  0.00  0.00    +0.040 HD
ATOM     45  H   UNL     1     143.565 163.512 184.721  0.00  0.00    +0.040 HD
ATOM     46  H   UNL     1     144.344 166.787 187.148  0.00  0.00    +0.074 HD
ATOM     47  H   UNL     1     146.759 167.669 186.739  0.00  0.00    +0.036 HD
ATOM     48  H   UNL     1     146.827 165.070 185.094  0.00  0.00    +0.060 HD
ATOM     49  H   UNL     1     149.065 164.745 185.880  0.00  0.00    +0.033 HD
ATOM     50  H   UNL     1     148.074 164.993 187.293  0.00  0.00    +0.033 HD
ATOM     51  H   UNL     1     149.100 167.622 186.603  0.00  0.00    +0.057 HD
ATOM     52  H   UNL     1     151.226 167.338 187.611  0.00  0.00    +0.067 HD
ATOM     53  H   UNL     1     153.651 163.488 188.848  0.00  0.00    +0.105 HD
ATOM     54  H   UNL     1     152.145 158.908 190.037  0.00  0.00    +0.105 HD
ATOM     55  H   UNL     1     148.396 155.775 190.458  0.00  0.00    +0.105 HD
ENDROOT
BRANCH   1  56
ATOM     56  C   UNL     1     144.975 158.376 190.117  0.00  0.00    -0.056 C 
ATOM     57  H   UNL     1     145.379 159.373 189.904  0.00  0.00    +0.024 HD
ATOM     58  H   UNL     1     143.958 158.361 189.719  0.00  0.00    +0.024 HD
ATOM     59  H   UNL     1     144.919 158.269 191.207  0.00  0.00    +0.024 HD
ENDBRANCH   1  56
BRANCH  14  60
ATOM     60  C   UNL     1     145.450 167.609 185.069  0.00  0.00    -0.057 C 
ATOM     61  H   UNL     1     144.638 166.982 184.684  0.00  0.00    +0.023 HD
ATOM     62  H   UNL     1     146.083 167.856 184.211  0.00  0.00    +0.023 HD
ATOM     63  H   UNL     1     145.014 168.540 185.451  0.00  0.00    +0.023 HD
ENDBRANCH  14  60
BRANCH  13  64
ATOM     64  C   UNL     1     145.646 165.816 188.535  0.00  0.00    +0.011 C 
ATOM     65  H   UNL     1     144.899 165.133 188.952  0.00  0.00    +0.033 HD
ATOM     66  H   UNL     1     146.588 165.271 188.558  0.00  0.00    +0.033 HD
BRANCH  64  67
ATOM     67  C   UNL     1     145.751 167.068 189.425  0.00  0.00    +0.064 C 
ATOM     68  H   UNL     1     145.616 166.762 190.471  0.00  0.00    +0.060 HD
BRANCH  67  69
ATOM     69  C   UNL     1     147.122 167.796 189.313  0.00  0.00    -0.017 C 
ATOM     70  H   UNL     1     147.519 167.616 188.307  0.00  0.00    +0.032 HD
BRANCH  69  71
ATOM     71  C   UNL     1     146.942 169.316 189.439  0.00  0.00    -0.060 C 
ATOM     72  H   UNL     1     147.786 169.766 189.973  0.00  0.00    +0.023 HD
ATOM     73  H   UNL     1     146.857 169.804 188.463  0.00  0.00    +0.023 HD
ATOM     74  H   UNL     1     146.034 169.551 190.005  0.00  0.00    +0.023 HD
ENDBRANCH  69  71
BRANCH  69  75
ATOM     75  C   UNL     1     148.212 167.330 190.307  0.00  0.00    -0.041 C 
ATOM     76  H   UNL     1     148.731 168.190 190.747  0.00  0.00    +0.027 HD
ATOM     77  H   UNL     1     148.976 166.782 189.740  0.00  0.00    +0.027 HD
BRANCH  75  78
ATOM     78  C   UNL     1     147.686 166.421 191.420  0.00  0.00    +0.007 C 
ATOM     79  H   UNL     1     147.915 166.856 192.397  0.00  0.00    +0.034 HD
ATOM     80  H   UNL     1     146.602 166.323 191.318  0.00  0.00    +0.034 HD
BRANCH  78  81
ATOM     81  C   UNL     1     148.303 165.027 191.379  0.00  0.00    +0.140 C 
ATOM     82  O   UNL     1     148.088 164.245 190.448  0.00  0.00    -0.297 OA
BRANCH  81  83
ATOM     83  C   UNL     1     149.247 164.606 192.504  0.00  0.00    +0.052 C 
ATOM     84  H   UNL     1     148.717 163.819 193.054  0.00  0.00    +0.041 HD
BRANCH  83  85
ATOM     85  C   UNL     1     150.500 163.941 191.931  0.00  0.00    -0.052 C 
ATOM     86  H   UNL     1     151.305 164.676 191.833  0.00  0.00    +0.024 HD
ATOM     87  H   UNL     1     150.868 163.128 192.563  0.00  0.00    +0.024 HD
ATOM     88  H   UNL     1     150.301 163.532 190.936  0.00  0.00    +0.024 HD
ENDBRANCH  83  85
BRANCH  83  89
ATOM     89  C   UNL     1     149.607 165.722 193.508  0.00  0.00    +0.118 C 
ATOM     90  H   UNL     1     148.964 166.571 193.232  0.00  0.00    +0.075 HD
BRANCH  89  91
ATOM     91  C   UNL     1     151.072 166.250 193.490  0.00  0.00    +0.014 C 
ATOM     92  H   UNL     1     151.639 165.558 192.848  0.00  0.00    +0.038 HD
BRANCH  91  93
ATOM     93  C   UNL     1     151.732 166.154 194.871  0.00  0.00    -0.056 C 
ATOM     94  H   UNL     1     151.482 167.003 195.515  0.00  0.00    +0.024 HD
ATOM     95  H   UNL     1     152.823 166.113 194.780  0.00  0.00    +0.024 HD
ATOM     96  H   UNL     1     151.415 165.240 195.385  0.00  0.00    +0.024 HD
ENDBRANCH  91  93
BRANCH  91  97
ATOM     97  C   UNL     1     151.226 167.591 192.793  0.00  0.00    -0.064 C 
ATOM     98  C   UNL     1     150.314 168.566 192.693  0.00  0.00    -0.010 C 
ATOM     99  H   UNL     1     152.209 167.758 192.357  0.00  0.00    +0.059 HD
ATOM    100  H   UNL     1     149.317 168.414 193.106  0.00  0.00    +0.078 HD
BRANCH  98 101
ATOM    101  N   UNL     1     150.440 169.806 192.084  0.00  0.00    -0.317 N 
BRANCH 101 102
ATOM    102  C   UNL     1     151.707 170.316 191.568  0.00  0.00    +0.002 C 
ATOM    103  H   UNL     1     151.701 170.325 190.472  0.00  0.00    +0.043 HD
ATOM    104  H   UNL     1     151.910 171.340 191.902  0.00  0.00    +0.043 HD
ATOM    105  H   UNL     1     152.539 169.689 191.913  0.00  0.00    +0.043 HD
ENDBRANCH 101 102
BRANCH 101 106
ATOM    106  C   UNL     1     149.302 170.697 191.940  0.00  0.00    +0.110 C 
ATOM    107  H   UNL     1     149.031 170.839 190.887  0.00  0.00    +0.077 HD
ATOM    108  H   UNL     1     149.486 171.689 192.369  0.00  0.00    +0.077 HD
BRANCH 106 109
ATOM    109  O   UNL     1     148.221 170.096 192.617  0.00  0.00    -0.377 OA
ATOM    110  H   UNL     1     148.402 170.346 193.541  0.00  0.00    +0.211 HD
ENDBRANCH 106 109
ENDBRANCH 101 106
ENDBRANCH  98 101
ENDBRANCH  91  97
ENDBRANCH  89  91
BRANCH  89 111
ATOM    111  O   UNL     1     149.239 165.301 194.843  0.00  0.00    -0.460 OA
BRANCH 111 112
ATOM    112  C   UNL     1     148.061 165.771 195.338  0.00  0.00    +0.304 C 
ATOM    113  O   UNL     1     146.945 165.463 194.943  0.00  0.00    -0.251 OA
BRANCH 112 114
ATOM    114  C   UNL     1     148.332 166.747 196.442  0.00  0.00    +0.033 C 
ATOM    115  H   UNL     1     147.419 166.915 197.018  0.00  0.00    +0.034 HD
ATOM    116  H   UNL     1     148.700 167.686 196.023  0.00  0.00    +0.034 HD
ATOM    117  H   UNL     1     149.097 166.340 197.108  0.00  0.00    +0.034 HD
ENDBRANCH 112 114
ENDBRANCH 111 112
ENDBRANCH  89 111
ENDBRANCH  83  89
ENDBRANCH  81  83
ENDBRANCH  78  81
ENDBRANCH  75  78
ENDBRANCH  69  75
ENDBRANCH  67  69
BRANCH  67 118
ATOM    118  O   UNL     1     144.683 167.952 189.059  0.00  0.00    -0.379 OA
BRANCH 118 119
ATOM    119  C   UNL     1     143.544 167.841 189.905  0.00  0.00    +0.037 C 
ATOM    120  H   UNL     1     143.846 167.314 190.815  0.00  0.00    +0.052 HD
ATOM    121  H   UNL     1     143.181 168.836 190.185  0.00  0.00    +0.052 HD
ATOM    122  H   UNL     1     142.745 167.268 189.424  0.00  0.00    +0.052 HD
ENDBRANCH 118 119
ENDBRANCH  67 118
ENDBRANCH  64  67
ENDBRANCH  13  64
BRANCH   8 123
ATOM    123  O   UNL     1     143.457 161.590 187.474  0.00  0.00    -0.391 OA
ATOM    124  H   UNL     1     142.518 161.419 187.277  0.00  0.00    +0.210 HD
ENDBRANCH   8 123
BRANCH  15 125
ATOM    125  O   UNL     1     147.893 166.665 184.354  0.00  0.00    -0.379 OA
BRANCH 125 126
ATOM    126  C   UNL     1     148.349 165.816 183.309  0.00  0.00    +0.037 C 
ATOM    127  H   UNL     1     148.149 164.765 183.542  0.00  0.00    +0.052 HD
ATOM    128  H   UNL     1     147.803 166.075 182.398  0.00  0.00    +0.052 HD
ATOM    129  H   UNL     1     149.414 165.966 183.115  0.00  0.00    +0.052 HD
ENDBRANCH 125 126
ENDBRANCH  15 125
TORSDOF 27
ENDMDL
MODEL 7
REMARK VINA RESULT:      -5.4      6.496     13.075
REMARK  Name = Ulapualide A_conf2
REMARK  27 active torsions:
REMARK  status: ('A' for Active; 'I' for Inactive)
REMARK    1  A    between atoms: C_1  and  C_2
REMARK    2  A    between atoms: C_9  and  O_63
REMARK    3  A    between atoms: C_14  and  C_38
REMARK    4  A    between atoms: C_15  and  C_37
REMARK    5  A    between atoms: C_16  and  O_35
REMARK    6  A    between atoms: O_35  and  C_36
REMARK    7  A    between atoms: C_38  and  C_39
REMARK    8  A    between atoms: C_39  and  C_40
REMARK    9  A    between atoms: C_39  and  O_61
REMARK   10  A    between atoms: C_40  and  C_41
REMARK   11  A    between atoms: C_40  and  C_42
REMARK   12  A    between atoms: C_42  and  C_43
REMARK   13  A    between atoms: C_43  and  C_44
REMARK   14  A    between atoms: C_44  and  C_46
REMARK   15  A    between atoms: C_46  and  C_47
REMARK   16  A    between atoms: C_46  and  C_48
REMARK   17  A    between atoms: C_48  and  C_49
REMARK   18  A    between atoms: C_48  and  O_57
REMARK   19  A    between atoms: C_49  and  C_50
REMARK   20  A    between atoms: C_49  and  C_51
REMARK   21  A    between atoms: C_52  and  N_53
REMARK   22  A    between atoms: N_53  and  C_54
REMARK   23  A    between atoms: N_53  and  C_55
REMARK   24  A    between atoms: C_55  and  O_56
REMARK   25  A    between atoms: O_57  and  C_58
REMARK   26  A    between atoms: C_58  and  C_60
REMARK   27  A    between atoms: O_61  and  C_62
REMARK                            x       y       z     vdW  Elec       q    Type
REMARK                         _______ _______ _______ _____ _____    ______ ____
ROOT
ATOM      1  C   UNL     1     145.551 178.495 184.556  0.00  0.00    +0.008 C 
ATOM      2  C   UNL     1     144.693 177.698 183.568  0.00  0.00    +0.014 C 
ATOM      3  C   UNL     1     143.696 176.719 184.165  0.00  0.00    +0.134 C 
ATOM      4  O   UNL     1     142.487 176.953 184.117  0.00  0.00    -0.297 OA
ATOM      5  C   UNL     1     144.249 175.436 184.761  0.00  0.00    +0.006 C 
ATOM      6  C   UNL     1     143.194 174.337 184.863  0.00  0.00    -0.044 C 
ATOM      7  C   UNL     1     143.761 172.932 185.105  0.00  0.00    -0.026 C 
ATOM      8  C   UNL     1     144.656 172.809 186.346  0.00  0.00    +0.065 C 
ATOM      9  C   UNL     1     144.864 171.343 186.724  0.00  0.00    +0.071 C 
ATOM     10  C   UNL     1     145.396 171.210 188.127  0.00  0.00    +0.310 C 
ATOM     11  O   UNL     1     146.495 170.744 188.401  0.00  0.00    -0.251 OA
ATOM     12  O   UNL     1     144.459 171.615 189.028  0.00  0.00    -0.461 OA
ATOM     13  C   UNL     1     144.793 171.463 190.428  0.00  0.00    +0.110 C 
ATOM     14  C   UNL     1     143.485 171.098 191.193  0.00  0.00    +0.020 C 
ATOM     15  C   UNL     1     142.202 171.879 190.746  0.00  0.00    +0.068 C 
ATOM     16  C   UNL     1     142.114 173.331 191.269  0.00  0.00    -0.008 C 
ATOM     17  C   UNL     1     141.890 173.440 192.763  0.00  0.00    -0.077 C 
ATOM     18  C   UNL     1     141.522 174.538 193.441  0.00  0.00    -0.003 C 
ATOM     19  C   UNL     1     141.383 175.829 192.856  0.00  0.00    +0.220 A 
ATOM     20  N   UNL     1     141.871 176.238 191.693  0.00  0.00    -0.205 NA
ATOM     21  C   UNL     1     141.545 177.565 191.606  0.00  0.00    +0.164 A 
ATOM     22  C   UNL     1     140.836 177.939 192.715  0.00  0.00    +0.125 A 
ATOM     23  O   UNL     1     140.730 176.853 193.526  0.00  0.00    -0.443 OA
ATOM     24  C   UNL     1     141.934 178.534 190.445  0.00  0.00    +0.250 A 
ATOM     25  N   UNL     1     142.665 178.188 189.395  0.00  0.00    -0.203 NA
ATOM     26  C   UNL     1     142.782 179.350 188.671  0.00  0.00    +0.164 A 
ATOM     27  C   UNL     1     142.107 180.363 189.302  0.00  0.00    +0.125 A 
ATOM     28  O   UNL     1     141.555 179.858 190.439  0.00  0.00    -0.442 OA
ATOM     29  C   UNL     1     143.558 179.546 187.329  0.00  0.00    +0.249 A 
ATOM     30  N   UNL     1     144.231 178.601 186.690  0.00  0.00    -0.212 NA
ATOM     31  C   UNL     1     144.733 179.223 185.570  0.00  0.00    +0.083 A 
ATOM     32  C   UNL     1     144.351 180.544 185.576  0.00  0.00    +0.116 A 
ATOM     33  O   UNL     1     143.602 180.765 186.686  0.00  0.00    -0.442 OA
ATOM     34  H   UNL     1     146.060 179.260 183.951  0.00  0.00    +0.037 HD
ATOM     35  H   UNL     1     145.322 177.156 182.853  0.00  0.00    +0.035 HD
ATOM     36  H   UNL     1     144.106 178.406 182.965  0.00  0.00    +0.035 HD
ATOM     37  H   UNL     1     145.069 175.098 184.118  0.00  0.00    +0.034 HD
ATOM     38  H   UNL     1     144.634 175.665 185.758  0.00  0.00    +0.034 HD
ATOM     39  H   UNL     1     142.490 174.587 185.668  0.00  0.00    +0.027 HD
ATOM     40  H   UNL     1     142.600 174.304 183.938  0.00  0.00    +0.027 HD
ATOM     41  H   UNL     1     142.907 172.249 185.198  0.00  0.00    +0.029 HD
ATOM     42  H   UNL     1     144.325 172.624 184.214  0.00  0.00    +0.029 HD
ATOM     43  H   UNL     1     144.210 173.366 187.178  0.00  0.00    +0.060 HD
ATOM     44  H   UNL     1     145.581 170.860 186.047  0.00  0.00    +0.040 HD
ATOM     45  H   UNL     1     143.931 170.769 186.679  0.00  0.00    +0.040 HD
ATOM     46  H   UNL     1     145.473 170.605 190.527  0.00  0.00    +0.074 HD
ATOM     47  H   UNL     1     143.641 171.227 192.270  0.00  0.00    +0.036 HD
ATOM     48  H   UNL     1     142.176 171.906 189.650  0.00  0.00    +0.060 HD
ATOM     49  H   UNL     1     141.269 173.820 190.768  0.00  0.00    +0.033 HD
ATOM     50  H   UNL     1     142.998 173.895 190.979  0.00  0.00    +0.033 HD
ATOM     51  H   UNL     1     141.995 172.516 193.331  0.00  0.00    +0.057 HD
ATOM     52  H   UNL     1     141.331 174.465 194.505  0.00  0.00    +0.067 HD
ATOM     53  H   UNL     1     140.384 178.855 193.067  0.00  0.00    +0.105 HD
ATOM     54  H   UNL     1     141.938 181.410 189.102  0.00  0.00    +0.105 HD
ATOM     55  H   UNL     1     144.495 181.385 184.918  0.00  0.00    +0.105 HD
ENDROOT
BRANCH   1  56
ATOM     56  C   UNL     1     146.677 177.678 185.191  0.00  0.00    -0.056 C 
ATOM     57  H   UNL     1     146.971 178.117 186.152  0.00  0.00    +0.024 HD
ATOM     58  H   UNL     1     146.391 176.644 185.396  0.00  0.00    +0.024 HD
ATOM     59  H   UNL     1     147.566 177.667 184.549  0.00  0.00    +0.024 HD
ENDBRANCH   1  56
BRANCH  14  60
ATOM     60  C   UNL     1     143.246 169.580 190.988  0.00  0.00    -0.057 C 
ATOM     61  H   UNL     1     144.190 169.041 190.850  0.00  0.00    +0.023 HD
ATOM     62  H   UNL     1     142.649 169.392 190.090  0.00  0.00    +0.023 HD
ATOM     63  H   UNL     1     142.721 169.143 191.846  0.00  0.00    +0.023 HD
ENDBRANCH  14  60
BRANCH  13  64
ATOM     64  C   UNL     1     145.585 172.708 190.884  0.00  0.00    +0.011 C 
ATOM     65  H   UNL     1     146.025 173.171 189.995  0.00  0.00    +0.033 HD
ATOM     66  H   UNL     1     144.922 173.458 191.308  0.00  0.00    +0.033 HD
BRANCH  64  67
ATOM     67  C   UNL     1     146.700 172.373 191.893  0.00  0.00    +0.064 C 
ATOM     68  H   UNL     1     146.256 171.809 192.725  0.00  0.00    +0.060 HD
BRANCH  67  69
ATOM     69  C   UNL     1     147.845 171.510 191.288  0.00  0.00    -0.017 C 
ATOM     70  H   UNL     1     147.587 171.290 190.245  0.00  0.00    +0.032 HD
BRANCH  69  71
ATOM     71  C   UNL     1     149.159 172.306 191.246  0.00  0.00    -0.060 C 
ATOM     72  H   UNL     1     149.636 172.322 192.232  0.00  0.00    +0.023 HD
ATOM     73  H   UNL     1     149.872 171.888 190.528  0.00  0.00    +0.023 HD
ATOM     74  H   UNL     1     148.971 173.346 190.956  0.00  0.00    +0.023 HD
ENDBRANCH  69  71
BRANCH  69  75
ATOM     75  C   UNL     1     148.097 170.150 191.978  0.00  0.00    -0.041 C 
ATOM     76  H   UNL     1     147.498 170.061 192.893  0.00  0.00    +0.027 HD
ATOM     77  H   UNL     1     149.144 170.126 192.309  0.00  0.00    +0.027 HD
BRANCH  75  78
ATOM     78  C   UNL     1     147.842 168.941 191.076  0.00  0.00    +0.007 C 
ATOM     79  H   UNL     1     146.848 169.013 190.628  0.00  0.00    +0.034 HD
ATOM     80  H   UNL     1     148.593 168.926 190.281  0.00  0.00    +0.034 HD
BRANCH  78  81
ATOM     81  C   UNL     1     147.915 167.620 191.833  0.00  0.00    +0.140 C 
ATOM     82  O   UNL     1     147.343 166.602 191.429  0.00  0.00    -0.297 OA
BRANCH  81  83
ATOM     83  C   UNL     1     148.754 167.547 193.108  0.00  0.00    +0.052 C 
ATOM     84  H   UNL     1     148.906 168.587 193.421  0.00  0.00    +0.041 HD
BRANCH  83  85
ATOM     85  C   UNL     1     147.958 166.886 194.236  0.00  0.00    -0.052 C 
ATOM     86  H   UNL     1     148.413 165.927 194.504  0.00  0.00    +0.024 HD
ATOM     87  H   UNL     1     147.924 167.502 195.139  0.00  0.00    +0.024 HD
ATOM     88  H   UNL     1     146.929 166.691 193.921  0.00  0.00    +0.024 HD
ENDBRANCH  83  85
BRANCH  83  89
ATOM     89  C   UNL     1     150.144 166.898 192.940  0.00  0.00    +0.118 C 
ATOM     90  H   UNL     1     150.162 166.528 191.904  0.00  0.00    +0.075 HD
BRANCH  89  91
ATOM     91  C   UNL     1     150.475 165.678 193.851  0.00  0.00    +0.014 C 
ATOM     92  H   UNL     1     149.635 165.586 194.556  0.00  0.00    +0.038 HD
BRANCH  91  93
ATOM     93  C   UNL     1     151.709 165.936 194.725  0.00  0.00    -0.056 C 
ATOM     94  H   UNL     1     152.037 166.980 194.690  0.00  0.00    +0.024 HD
ATOM     95  H   UNL     1     152.551 165.311 194.405  0.00  0.00    +0.024 HD
ATOM     96  H   UNL     1     151.499 165.687 195.770  0.00  0.00    +0.024 HD
ENDBRANCH  91  93
BRANCH  91  97
ATOM     97  C   UNL     1     150.472 164.350 193.115  0.00  0.00    -0.064 C 
ATOM     98  C   UNL     1     150.192 164.136 191.823  0.00  0.00    -0.010 C 
ATOM     99  H   UNL     1     150.759 163.498 193.728  0.00  0.00    +0.059 HD
ATOM    100  H   UNL     1     149.884 164.972 191.195  0.00  0.00    +0.078 HD
BRANCH  98 101
ATOM    101  N   UNL     1     150.206 162.939 191.124  0.00  0.00    -0.317 N 
BRANCH 101 102
ATOM    102  C   UNL     1     149.019 162.109 190.938  0.00  0.00    +0.002 C 
ATOM    103  H   UNL     1     148.159 162.543 191.460  0.00  0.00    +0.043 HD
ATOM    104  H   UNL     1     148.743 162.008 189.882  0.00  0.00    +0.043 HD
ATOM    105  H   UNL     1     149.196 161.099 191.327  0.00  0.00    +0.043 HD
ENDBRANCH 101 102
BRANCH 101 106
ATOM    106  C   UNL     1     151.430 162.417 190.542  0.00  0.00    +0.110 C 
ATOM    107  H   UNL     1     152.274 163.101 190.692  0.00  0.00    +0.077 HD
ATOM    108  H   UNL     1     151.341 162.237 189.464  0.00  0.00    +0.077 HD
BRANCH 106 109
ATOM    109  O   UNL     1     151.706 161.196 191.192  0.00  0.00    -0.377 OA
ATOM    110  H   UNL     1     151.124 160.580 190.711  0.00  0.00    +0.211 HD
ENDBRANCH 106 109
ENDBRANCH 101 106
ENDBRANCH  98 101
ENDBRANCH  91  97
ENDBRANCH  89  91
BRANCH  89 111
ATOM    111  O   UNL     1     151.166 167.915 193.068  0.00  0.00    -0.460 OA
BRANCH 111 112
ATOM    112  C   UNL     1     151.521 168.582 191.936  0.00  0.00    +0.304 C 
ATOM    113  O   UNL     1     151.658 169.794 191.833  0.00  0.00    -0.251 OA
BRANCH 112 114
ATOM    114  C   UNL     1     151.704 167.609 190.812  0.00  0.00    +0.033 C 
ATOM    115  H   UNL     1     150.732 167.348 190.388  0.00  0.00    +0.034 HD
ATOM    116  H   UNL     1     152.215 166.715 191.177  0.00  0.00    +0.034 HD
ATOM    117  H   UNL     1     152.316 168.066 190.030  0.00  0.00    +0.034 HD
ENDBRANCH 112 114
ENDBRANCH 111 112
ENDBRANCH  89 111
ENDBRANCH  83  89
ENDBRANCH  81  83
ENDBRANCH  78  81
ENDBRANCH  75  78
ENDBRANCH  69  75
ENDBRANCH  67  69
BRANCH  67 118
ATOM    118  O   UNL     1     147.217 173.612 192.396  0.00  0.00    -0.379 OA
BRANCH 118 119
ATOM    119  C   UNL     1     147.207 173.691 193.818  0.00  0.00    +0.037 C 
ATOM    120  H   UNL     1     146.241 174.101 194.128  0.00  0.00    +0.052 HD
ATOM    121  H   UNL     1     147.315 172.692 194.254  0.00  0.00    +0.052 HD
ATOM    122  H   UNL     1     147.996 174.353 194.185  0.00  0.00    +0.052 HD
ENDBRANCH 118 119
ENDBRANCH  67 118
ENDBRANCH  64  67
ENDBRANCH  13  64
BRANCH   8 123
ATOM    123  O   UNL     1     145.927 173.402 186.070  0.00  0.00    -0.391 OA
ATOM    124  H   UNL     1     145.819 174.045 185.345  0.00  0.00    +0.210 HD
ENDBRANCH   8 123
BRANCH  15 125
ATOM    125  O   UNL     1     141.034 171.143 191.182  0.00  0.00    -0.379 OA
BRANCH 125 126
ATOM    126  C   UNL     1     139.961 171.151 190.249  0.00  0.00    +0.037 C 
ATOM    127  H   UNL     1     139.582 170.139 190.079  0.00  0.00    +0.052 HD
ATOM    128  H   UNL     1     139.152 171.756 190.667  0.00  0.00    +0.052 HD
ATOM    129  H   UNL     1     140.264 171.607 189.303  0.00  0.00    +0.052 HD
ENDBRANCH 125 126
ENDBRANCH  15 125
TORSDOF 27
ENDMDL
MODEL 8
REMARK VINA RESULT:      -5.4      7.022     12.052
REMARK  Name = Ulapualide A_conf2
REMARK  27 active torsions:
REMARK  status: ('A' for Active; 'I' for Inactive)
REMARK    1  A    between atoms: C_1  and  C_2
REMARK    2  A    between atoms: C_9  and  O_63
REMARK    3  A    between atoms: C_14  and  C_38
REMARK    4  A    between atoms: C_15  and  C_37
REMARK    5  A    between atoms: C_16  and  O_35
REMARK    6  A    between atoms: O_35  and  C_36
REMARK    7  A    between atoms: C_38  and  C_39
REMARK    8  A    between atoms: C_39  and  C_40
REMARK    9  A    between atoms: C_39  and  O_61
REMARK   10  A    between atoms: C_40  and  C_41
REMARK   11  A    between atoms: C_40  and  C_42
REMARK   12  A    between atoms: C_42  and  C_43
REMARK   13  A    between atoms: C_43  and  C_44
REMARK   14  A    between atoms: C_44  and  C_46
REMARK   15  A    between atoms: C_46  and  C_47
REMARK   16  A    between atoms: C_46  and  C_48
REMARK   17  A    between atoms: C_48  and  C_49
REMARK   18  A    between atoms: C_48  and  O_57
REMARK   19  A    between atoms: C_49  and  C_50
REMARK   20  A    between atoms: C_49  and  C_51
REMARK   21  A    between atoms: C_52  and  N_53
REMARK   22  A    between atoms: N_53  and  C_54
REMARK   23  A    between atoms: N_53  and  C_55
REMARK   24  A    between atoms: C_55  and  O_56
REMARK   25  A    between atoms: O_57  and  C_58
REMARK   26  A    between atoms: C_58  and  C_60
REMARK   27  A    between atoms: O_61  and  C_62
REMARK                            x       y       z     vdW  Elec       q    Type
REMARK                         _______ _______ _______ _____ _____    ______ ____
ROOT
ATOM      1  C   UNL     1     156.568 173.879 183.200  0.00  0.00    +0.008 C 
ATOM      2  C   UNL     1     157.992 173.503 182.780  0.00  0.00    +0.014 C 
ATOM      3  C   UNL     1     158.203 172.083 182.280  0.00  0.00    +0.134 C 
ATOM      4  O   UNL     1     158.425 171.868 181.087  0.00  0.00    -0.297 OA
ATOM      5  C   UNL     1     158.185 170.970 183.313  0.00  0.00    +0.006 C 
ATOM      6  C   UNL     1     158.884 169.705 182.821  0.00  0.00    -0.044 C 
ATOM      7  C   UNL     1     159.219 168.694 183.926  0.00  0.00    -0.026 C 
ATOM      8  C   UNL     1     158.016 168.242 184.765  0.00  0.00    +0.065 C 
ATOM      9  C   UNL     1     158.353 166.985 185.567  0.00  0.00    +0.071 C 
ATOM     10  C   UNL     1     157.107 166.312 186.079  0.00  0.00    +0.310 C 
ATOM     11  O   UNL     1     156.834 166.189 187.266  0.00  0.00    -0.251 OA
ATOM     12  O   UNL     1     156.381 165.811 185.041  0.00  0.00    -0.461 OA
ATOM     13  C   UNL     1     155.193 165.056 185.382  0.00  0.00    +0.110 C 
ATOM     14  C   UNL     1     155.043 163.909 184.337  0.00  0.00    +0.020 C 
ATOM     15  C   UNL     1     155.354 164.304 182.853  0.00  0.00    +0.068 C 
ATOM     16  C   UNL     1     154.236 165.105 182.148  0.00  0.00    -0.008 C 
ATOM     17  C   UNL     1     152.981 164.306 181.871  0.00  0.00    -0.077 C 
ATOM     18  C   UNL     1     151.970 164.654 181.060  0.00  0.00    -0.003 C 
ATOM     19  C   UNL     1     151.875 165.911 180.399  0.00  0.00    +0.220 A 
ATOM     20  N   UNL     1     152.539 167.022 180.689  0.00  0.00    -0.205 NA
ATOM     21  C   UNL     1     152.052 167.974 179.833  0.00  0.00    +0.164 A 
ATOM     22  C   UNL     1     151.110 167.416 179.011  0.00  0.00    +0.125 A 
ATOM     23  O   UNL     1     150.976 166.108 179.360  0.00  0.00    -0.443 OA
ATOM     24  C   UNL     1     152.468 169.478 179.797  0.00  0.00    +0.250 A 
ATOM     25  N   UNL     1     153.342 170.033 180.624  0.00  0.00    -0.203 NA
ATOM     26  C   UNL     1     153.363 171.355 180.253  0.00  0.00    +0.164 A 
ATOM     27  C   UNL     1     152.508 171.558 179.200  0.00  0.00    +0.125 A 
ATOM     28  O   UNL     1     151.928 170.365 178.892  0.00  0.00    -0.442 OA
ATOM     29  C   UNL     1     154.211 172.498 180.898  0.00  0.00    +0.249 A 
ATOM     30  N   UNL     1     155.040 172.351 181.919  0.00  0.00    -0.212 NA
ATOM     31  C   UNL     1     155.562 173.607 182.131  0.00  0.00    +0.083 A 
ATOM     32  C   UNL     1     155.014 174.485 181.226  0.00  0.00    +0.116 A 
ATOM     33  O   UNL     1     154.154 173.795 180.433  0.00  0.00    -0.442 OA
ATOM     34  H   UNL     1     156.586 174.970 183.348  0.00  0.00    +0.037 HD
ATOM     35  H   UNL     1     158.702 173.691 183.592  0.00  0.00    +0.035 HD
ATOM     36  H   UNL     1     158.301 174.166 181.959  0.00  0.00    +0.035 HD
ATOM     37  H   UNL     1     158.690 171.342 184.211  0.00  0.00    +0.034 HD
ATOM     38  H   UNL     1     157.141 170.742 183.546  0.00  0.00    +0.034 HD
ATOM     39  H   UNL     1     158.257 169.218 182.062  0.00  0.00    +0.027 HD
ATOM     40  H   UNL     1     159.823 169.971 182.315  0.00  0.00    +0.027 HD
ATOM     41  H   UNL     1     159.677 167.823 183.439  0.00  0.00    +0.029 HD
ATOM     42  H   UNL     1     159.981 169.134 184.583  0.00  0.00    +0.029 HD
ATOM     43  H   UNL     1     157.155 168.066 184.109  0.00  0.00    +0.060 HD
ATOM     44  H   UNL     1     158.982 167.229 186.433  0.00  0.00    +0.040 HD
ATOM     45  H   UNL     1     158.894 166.245 184.966  0.00  0.00    +0.040 HD
ATOM     46  H   UNL     1     155.358 164.581 186.359  0.00  0.00    +0.074 HD
ATOM     47  H   UNL     1     154.036 163.481 184.404  0.00  0.00    +0.036 HD
ATOM     48  H   UNL     1     156.270 164.906 182.839  0.00  0.00    +0.060 HD
ATOM     49  H   UNL     1     154.629 165.456 181.185  0.00  0.00    +0.033 HD
ATOM     50  H   UNL     1     153.994 166.001 182.715  0.00  0.00    +0.033 HD
ATOM     51  H   UNL     1     152.921 163.327 182.347  0.00  0.00    +0.057 HD
ATOM     52  H   UNL     1     151.155 163.958 180.898  0.00  0.00    +0.067 HD
ATOM     53  H   UNL     1     150.482 167.772 178.208  0.00  0.00    +0.105 HD
ATOM     54  H   UNL     1     152.213 172.409 178.607  0.00  0.00    +0.105 HD
ATOM     55  H   UNL     1     155.128 175.535 181.012  0.00  0.00    +0.105 HD
ENDROOT
BRANCH   1  56
ATOM     56  C   UNL     1     156.153 173.302 184.554  0.00  0.00    -0.056 C 
ATOM     57  H   UNL     1     155.602 174.052 185.134  0.00  0.00    +0.024 HD
ATOM     58  H   UNL     1     155.496 172.434 184.465  0.00  0.00    +0.024 HD
ATOM     59  H   UNL     1     157.031 173.010 185.143  0.00  0.00    +0.024 HD
ENDBRANCH   1  56
BRANCH  14  60
ATOM     60  C   UNL     1     156.004 162.772 184.768  0.00  0.00    -0.057 C 
ATOM     61  H   UNL     1     155.956 162.594 185.848  0.00  0.00    +0.023 HD
ATOM     62  H   UNL     1     157.044 163.029 184.543  0.00  0.00    +0.023 HD
ATOM     63  H   UNL     1     155.764 161.834 184.253  0.00  0.00    +0.023 HD
ENDBRANCH  14  60
BRANCH  13  64
ATOM     64  C   UNL     1     154.018 166.041 185.563  0.00  0.00    +0.011 C 
ATOM     65  H   UNL     1     154.426 167.057 185.564  0.00  0.00    +0.033 HD
ATOM     66  H   UNL     1     153.339 165.998 184.715  0.00  0.00    +0.033 HD
BRANCH  64  67
ATOM     67  C   UNL     1     153.232 165.803 186.867  0.00  0.00    +0.064 C 
ATOM     68  H   UNL     1     153.950 165.691 187.689  0.00  0.00    +0.060 HD
BRANCH  67  69
ATOM     69  C   UNL     1     152.266 166.968 187.230  0.00  0.00    -0.017 C 
ATOM     70  H   UNL     1     152.493 167.813 186.570  0.00  0.00    +0.032 HD
BRANCH  69  71
ATOM     71  C   UNL     1     150.809 166.576 186.941  0.00  0.00    -0.060 C 
ATOM     72  H   UNL     1     150.765 165.682 186.310  0.00  0.00    +0.023 HD
ATOM     73  H   UNL     1     150.246 166.376 187.858  0.00  0.00    +0.023 HD
ATOM     74  H   UNL     1     150.293 167.381 186.406  0.00  0.00    +0.023 HD
ENDBRANCH  69  71
BRANCH  69  75
ATOM     75  C   UNL     1     152.372 167.499 188.679  0.00  0.00    -0.041 C 
ATOM     76  H   UNL     1     151.441 167.997 188.980  0.00  0.00    +0.027 HD
ATOM     77  H   UNL     1     153.144 168.280 188.699  0.00  0.00    +0.027 HD
BRANCH  75  78
ATOM     78  C   UNL     1     152.737 166.425 189.706  0.00  0.00    +0.007 C 
ATOM     79  H   UNL     1     153.203 165.573 189.206  0.00  0.00    +0.034 HD
ATOM     80  H   UNL     1     153.442 166.847 190.427  0.00  0.00    +0.034 HD
BRANCH  78  81
ATOM     81  C   UNL     1     151.522 165.906 190.468  0.00  0.00    +0.140 C 
ATOM     82  O   UNL     1     151.502 164.782 190.978  0.00  0.00    -0.297 OA
BRANCH  81  83
ATOM     83  C   UNL     1     150.312 166.823 190.636  0.00  0.00    +0.052 C 
ATOM     84  H   UNL     1     150.287 167.447 189.734  0.00  0.00    +0.041 HD
BRANCH  83  85
ATOM     85  C   UNL     1     149.016 166.010 190.613  0.00  0.00    -0.052 C 
ATOM     86  H   UNL     1     149.227 164.974 190.327  0.00  0.00    +0.024 HD
ATOM     87  H   UNL     1     148.517 165.990 191.586  0.00  0.00    +0.024 HD
ATOM     88  H   UNL     1     148.314 166.420 189.882  0.00  0.00    +0.024 HD
ENDBRANCH  83  85
BRANCH  83  89
ATOM     89  C   UNL     1     150.368 167.763 191.858  0.00  0.00    +0.118 C 
ATOM     90  H   UNL     1     149.344 167.769 192.260  0.00  0.00    +0.075 HD
BRANCH  89  91
ATOM     91  C   UNL     1     150.750 169.251 191.596  0.00  0.00    +0.014 C 
ATOM     92  H   UNL     1     150.867 169.349 190.505  0.00  0.00    +0.038 HD
BRANCH  91  93
ATOM     93  C   UNL     1     152.123 169.601 192.183  0.00  0.00    -0.056 C 
ATOM     94  H   UNL     1     152.932 169.018 191.732  0.00  0.00    +0.024 HD
ATOM     95  H   UNL     1     152.142 169.419 193.264  0.00  0.00    +0.024 HD
ATOM     96  H   UNL     1     152.348 170.662 192.028  0.00  0.00    +0.024 HD
ENDBRANCH  91  93
BRANCH  91  97
ATOM     97  C   UNL     1     149.638 170.231 191.926  0.00  0.00    -0.064 C 
ATOM     98  C   UNL     1     149.751 171.548 192.144  0.00  0.00    -0.010 C 
ATOM     99  H   UNL     1     148.645 169.787 191.957  0.00  0.00    +0.059 HD
ATOM    100  H   UNL     1     150.738 172.010 192.136  0.00  0.00    +0.078 HD
BRANCH  98 101
ATOM    101  N   UNL     1     148.749 172.465 192.423  0.00  0.00    -0.317 N 
BRANCH 101 102
ATOM    102  C   UNL     1     148.372 172.847 193.781  0.00  0.00    +0.002 C 
ATOM    103  H   UNL     1     148.323 171.965 194.430  0.00  0.00    +0.043 HD
ATOM    104  H   UNL     1     149.089 173.544 194.231  0.00  0.00    +0.043 HD
ATOM    105  H   UNL     1     147.393 173.342 193.779  0.00  0.00    +0.043 HD
ENDBRANCH 101 102
BRANCH 101 106
ATOM    106  C   UNL     1     147.985 173.097 191.361  0.00  0.00    +0.110 C 
ATOM    107  H   UNL     1     147.265 173.822 191.759  0.00  0.00    +0.077 HD
ATOM    108  H   UNL     1     147.425 172.375 190.757  0.00  0.00    +0.077 HD
BRANCH 106 109
ATOM    109  O   UNL     1     148.909 173.771 190.536  0.00  0.00    -0.377 OA
ATOM    110  H   UNL     1     148.319 174.304 189.973  0.00  0.00    +0.211 HD
ENDBRANCH 106 109
ENDBRANCH 101 106
ENDBRANCH  98 101
ENDBRANCH  91  97
ENDBRANCH  89  91
BRANCH  89 111
ATOM    111  O   UNL     1     151.237 167.190 192.864  0.00  0.00    -0.460 OA
BRANCH 111 112
ATOM    112  C   UNL     1     150.641 166.627 193.951  0.00  0.00    +0.304 C 
ATOM    113  O   UNL     1     149.437 166.582 194.163  0.00  0.00    -0.251 OA
BRANCH 112 114
ATOM    114  C   UNL     1     151.687 166.078 194.872  0.00  0.00    +0.033 C 
ATOM    115  H   UNL     1     151.473 166.386 195.898  0.00  0.00    +0.034 HD
ATOM    116  H   UNL     1     152.673 166.431 194.563  0.00  0.00    +0.034 HD
ATOM    117  H   UNL     1     151.677 164.986 194.824  0.00  0.00    +0.034 HD
ENDBRANCH 112 114
ENDBRANCH 111 112
ENDBRANCH  89 111
ENDBRANCH  83  89
ENDBRANCH  81  83
ENDBRANCH  78  81
ENDBRANCH  75  78
ENDBRANCH  69  75
ENDBRANCH  67  69
BRANCH  67 118
ATOM    118  O   UNL     1     152.504 164.577 186.716  0.00  0.00    -0.379 OA
BRANCH 118 119
ATOM    119  C   UNL     1     152.915 163.562 187.625  0.00  0.00    +0.037 C 
ATOM    120  H   UNL     1     152.659 163.888 188.638  0.00  0.00    +0.052 HD
ATOM    121  H   UNL     1     152.382 162.627 187.418  0.00  0.00    +0.052 HD
ATOM    122  H   UNL     1     153.996 163.400 187.579  0.00  0.00    +0.052 HD
ENDBRANCH 118 119
ENDBRANCH  67 118
ENDBRANCH  64  67
ENDBRANCH  13  64
BRANCH   8 123
ATOM    123  O   UNL     1     157.655 169.288 185.670  0.00  0.00    -0.391 OA
ATOM    124  H   UNL     1     157.701 170.138 185.196  0.00  0.00    +0.210 HD
ENDBRANCH   8 123
BRANCH  15 125
ATOM    125  O   UNL     1     155.625 163.098 182.099  0.00  0.00    -0.379 OA
BRANCH 125 126
ATOM    126  C   UNL     1     156.536 163.279 181.022  0.00  0.00    +0.037 C 
ATOM    127  H   UNL     1     157.180 162.402 180.902  0.00  0.00    +0.052 HD
ATOM    128  H   UNL     1     155.955 163.407 180.104  0.00  0.00    +0.052 HD
ATOM    129  H   UNL     1     157.141 164.178 181.164  0.00  0.00    +0.052 HD
ENDBRANCH 125 126
ENDBRANCH  15 125
TORSDOF 27
ENDMDL
MODEL 9
REMARK VINA RESULT:      -5.3     17.628     21.411
REMARK  Name = Ulapualide A_conf2
REMARK  27 active torsions:
REMARK  status: ('A' for Active; 'I' for Inactive)
REMARK    1  A    between atoms: C_1  and  C_2
REMARK    2  A    between atoms: C_9  and  O_63
REMARK    3  A    between atoms: C_14  and  C_38
REMARK    4  A    between atoms: C_15  and  C_37
REMARK    5  A    between atoms: C_16  and  O_35
REMARK    6  A    between atoms: O_35  and  C_36
REMARK    7  A    between atoms: C_38  and  C_39
REMARK    8  A    between atoms: C_39  and  C_40
REMARK    9  A    between atoms: C_39  and  O_61
REMARK   10  A    between atoms: C_40  and  C_41
REMARK   11  A    between atoms: C_40  and  C_42
REMARK   12  A    between atoms: C_42  and  C_43
REMARK   13  A    between atoms: C_43  and  C_44
REMARK   14  A    between atoms: C_44  and  C_46
REMARK   15  A    between atoms: C_46  and  C_47
REMARK   16  A    between atoms: C_46  and  C_48
REMARK   17  A    between atoms: C_48  and  C_49
REMARK   18  A    between atoms: C_48  and  O_57
REMARK   19  A    between atoms: C_49  and  C_50
REMARK   20  A    between atoms: C_49  and  C_51
REMARK   21  A    between atoms: C_52  and  N_53
REMARK   22  A    between atoms: N_53  and  C_54
REMARK   23  A    between atoms: N_53  and  C_55
REMARK   24  A    between atoms: C_55  and  O_56
REMARK   25  A    between atoms: O_57  and  C_58
REMARK   26  A    between atoms: C_58  and  C_60
REMARK   27  A    between atoms: O_61  and  C_62
REMARK                            x       y       z     vdW  Elec       q    Type
REMARK                         _______ _______ _______ _____ _____    ______ ____
ROOT
ATOM      1  C   UNL     1     129.447 153.849 206.453  0.00  0.00    +0.008 C 
ATOM      2  C   UNL     1     128.265 153.204 205.723  0.00  0.00    +0.014 C 
ATOM      3  C   UNL     1     128.576 152.495 204.414  0.00  0.00    +0.134 C 
ATOM      4  O   UNL     1     128.530 151.265 204.345  0.00  0.00    -0.297 OA
ATOM      5  C   UNL     1     128.883 153.363 203.206  0.00  0.00    +0.006 C 
ATOM      6  C   UNL     1     128.683 152.621 201.888  0.00  0.00    -0.044 C 
ATOM      7  C   UNL     1     128.618 153.528 200.651  0.00  0.00    -0.026 C 
ATOM      8  C   UNL     1     129.835 154.445 200.467  0.00  0.00    +0.065 C 
ATOM      9  C   UNL     1     129.873 155.022 199.053  0.00  0.00    +0.071 C 
ATOM     10  C   UNL     1     131.229 155.593 198.731  0.00  0.00    +0.310 C 
ATOM     11  O   UNL     1     131.436 156.779 198.502  0.00  0.00    -0.251 OA
ATOM     12  O   UNL     1     132.158 154.600 198.668  0.00  0.00    -0.461 OA
ATOM     13  C   UNL     1     133.498 154.985 198.280  0.00  0.00    +0.110 C 
ATOM     14  C   UNL     1     134.101 153.823 197.432  0.00  0.00    +0.020 C 
ATOM     15  C   UNL     1     133.791 152.378 197.953  0.00  0.00    +0.068 C 
ATOM     16  C   UNL     1     134.631 151.936 199.173  0.00  0.00    -0.008 C 
ATOM     17  C   UNL     1     136.098 151.716 198.870  0.00  0.00    -0.077 C 
ATOM     18  C   UNL     1     136.995 151.095 199.651  0.00  0.00    -0.003 C 
ATOM     19  C   UNL     1     136.718 150.626 200.967  0.00  0.00    +0.220 A 
ATOM     20  N   UNL     1     135.703 150.976 201.745  0.00  0.00    -0.205 NA
ATOM     21  C   UNL     1     135.911 150.324 202.932  0.00  0.00    +0.164 A 
ATOM     22  C   UNL     1     137.044 149.562 202.847  0.00  0.00    +0.125 A 
ATOM     23  O   UNL     1     137.578 149.747 201.609  0.00  0.00    -0.443 OA
ATOM     24  C   UNL     1     135.023 150.437 204.211  0.00  0.00    +0.250 A 
ATOM     25  N   UNL     1     133.954 151.214 204.314  0.00  0.00    -0.203 NA
ATOM     26  C   UNL     1     133.524 151.023 205.604  0.00  0.00    +0.164 A 
ATOM     27  C   UNL     1     134.342 150.125 206.241  0.00  0.00    +0.125 A 
ATOM     28  O   UNL     1     135.306 149.737 205.363  0.00  0.00    -0.442 OA
ATOM     29  C   UNL     1     132.298 151.702 206.296  0.00  0.00    +0.249 A 
ATOM     30  N   UNL     1     131.488 152.581 205.724  0.00  0.00    -0.212 NA
ATOM     31  C   UNL     1     130.564 152.891 206.696  0.00  0.00    +0.083 A 
ATOM     32  C   UNL     1     130.858 152.189 207.841  0.00  0.00    +0.116 A 
ATOM     33  O   UNL     1     131.957 151.426 207.603  0.00  0.00    -0.442 OA
ATOM     34  H   UNL     1     129.057 154.139 207.440  0.00  0.00    +0.037 HD
ATOM     35  H   UNL     1     127.472 153.937 205.537  0.00  0.00    +0.035 HD
ATOM     36  H   UNL     1     127.817 152.447 206.383  0.00  0.00    +0.035 HD
ATOM     37  H   UNL     1     128.215 154.231 203.243  0.00  0.00    +0.034 HD
ATOM     38  H   UNL     1     129.922 153.694 203.284  0.00  0.00    +0.034 HD
ATOM     39  H   UNL     1     129.493 151.890 201.759  0.00  0.00    +0.027 HD
ATOM     40  H   UNL     1     127.751 152.039 201.925  0.00  0.00    +0.027 HD
ATOM     41  H   UNL     1     128.514 152.874 199.775  0.00  0.00    +0.029 HD
ATOM     42  H   UNL     1     127.705 154.135 200.711  0.00  0.00    +0.029 HD
ATOM     43  H   UNL     1     130.753 153.887 200.685  0.00  0.00    +0.060 HD
ATOM     44  H   UNL     1     129.135 155.826 198.936  0.00  0.00    +0.040 HD
ATOM     45  H   UNL     1     129.656 154.263 198.292  0.00  0.00    +0.040 HD
ATOM     46  H   UNL     1     133.426 155.860 197.620  0.00  0.00    +0.074 HD
ATOM     47  H   UNL     1     135.184 153.960 197.340  0.00  0.00    +0.036 HD
ATOM     48  H   UNL     1     132.731 152.328 198.228  0.00  0.00    +0.060 HD
ATOM     49  H   UNL     1     134.219 150.986 199.539  0.00  0.00    +0.033 HD
ATOM     50  H   UNL     1     134.517 152.644 199.990  0.00  0.00    +0.033 HD
ATOM     51  H   UNL     1     136.442 152.060 197.894  0.00  0.00    +0.057 HD
ATOM     52  H   UNL     1     138.004 150.946 199.286  0.00  0.00    +0.067 HD
ATOM     53  H   UNL     1     137.578 148.901 203.513  0.00  0.00    +0.105 HD
ATOM     54  H   UNL     1     134.381 149.694 207.229  0.00  0.00    +0.105 HD
ATOM     55  H   UNL     1     130.420 152.105 208.822  0.00  0.00    +0.105 HD
ENDROOT
BRANCH   1  56
ATOM     56  C   UNL     1     129.924 155.155 205.817  0.00  0.00    -0.056 C 
ATOM     57  H   UNL     1     129.239 155.974 206.068  0.00  0.00    +0.024 HD
ATOM     58  H   UNL     1     130.914 155.462 206.163  0.00  0.00    +0.024 HD
ATOM     59  H   UNL     1     129.953 155.073 204.723  0.00  0.00    +0.024 HD
ENDBRANCH   1  56
BRANCH  14  60
ATOM     60  C   UNL     1     133.541 153.971 195.995  0.00  0.00    -0.057 C 
ATOM     61  H   UNL     1     134.226 153.549 195.252  0.00  0.00    +0.023 HD
ATOM     62  H   UNL     1     133.411 155.026 195.730  0.00  0.00    +0.023 HD
ATOM     63  H   UNL     1     132.571 153.471 195.894  0.00  0.00    +0.023 HD
ENDBRANCH  14  60
BRANCH  13  64
ATOM     64  C   UNL     1     134.263 155.445 199.541  0.00  0.00    +0.011 C 
ATOM     65  H   UNL     1     134.017 156.497 199.719  0.00  0.00    +0.033 HD
ATOM     66  H   UNL     1     133.919 154.909 200.423  0.00  0.00    +0.033 HD
BRANCH  64  67
ATOM     67  C   UNL     1     135.790 155.291 199.405  0.00  0.00    +0.064 C 
ATOM     68  H   UNL     1     135.995 154.571 198.601  0.00  0.00    +0.060 HD
BRANCH  67  69
ATOM     69  C   UNL     1     136.519 156.620 199.054  0.00  0.00    -0.017 C 
ATOM     70  H   UNL     1     137.594 156.465 199.200  0.00  0.00    +0.032 HD
BRANCH  69  71
ATOM     71  C   UNL     1     136.332 156.966 197.569  0.00  0.00    -0.060 C 
ATOM     72  H   UNL     1     136.808 156.214 196.931  0.00  0.00    +0.023 HD
ATOM     73  H   UNL     1     135.275 157.032 197.290  0.00  0.00    +0.023 HD
ATOM     74  H   UNL     1     136.794 157.933 197.337  0.00  0.00    +0.023 HD
ENDBRANCH  69  71
BRANCH  69  75
ATOM     75  C   UNL     1     136.129 157.845 199.914  0.00  0.00    -0.041 C 
ATOM     76  H   UNL     1     137.009 158.261 200.421  0.00  0.00    +0.027 HD
ATOM     77  H   UNL     1     135.463 157.499 200.716  0.00  0.00    +0.027 HD
BRANCH  75  78
ATOM     78  C   UNL     1     135.416 158.950 199.131  0.00  0.00    +0.007 C 
ATOM     79  H   UNL     1     135.913 159.106 198.170  0.00  0.00    +0.034 HD
ATOM     80  H   UNL     1     134.380 158.648 198.953  0.00  0.00    +0.034 HD
BRANCH  78  81
ATOM     81  C   UNL     1     135.411 160.283 199.871  0.00  0.00    +0.140 C 
ATOM     82  O   UNL     1     136.287 161.134 199.690  0.00  0.00    -0.297 OA
BRANCH  81  83
ATOM     83  C   UNL     1     134.264 160.585 200.834  0.00  0.00    +0.052 C 
ATOM     84  H   UNL     1     133.882 159.608 201.155  0.00  0.00    +0.041 HD
BRANCH  83  85
ATOM     85  C   UNL     1     134.793 161.260 202.102  0.00  0.00    -0.052 C 
ATOM     86  H   UNL     1     133.958 161.588 202.729  0.00  0.00    +0.024 HD
ATOM     87  H   UNL     1     135.416 160.591 202.702  0.00  0.00    +0.024 HD
ATOM     88  H   UNL     1     135.388 162.143 201.851  0.00  0.00    +0.024 HD
ENDBRANCH  83  85
BRANCH  83  89
ATOM     89  C   UNL     1     133.086 161.373 200.222  0.00  0.00    +0.118 C 
ATOM     90  H   UNL     1     133.513 161.889 199.349  0.00  0.00    +0.075 HD
BRANCH  89  91
ATOM     91  C   UNL     1     132.429 162.473 201.109  0.00  0.00    +0.014 C 
ATOM     92  H   UNL     1     133.039 162.535 202.022  0.00  0.00    +0.038 HD
BRANCH  91  93
ATOM     93  C   UNL     1     131.030 162.061 201.585  0.00  0.00    -0.056 C 
ATOM     94  H   UNL     1     131.051 161.187 202.243  0.00  0.00    +0.024 HD
ATOM     95  H   UNL     1     130.382 161.823 200.733  0.00  0.00    +0.024 HD
ATOM     96  H   UNL     1     130.554 162.881 202.134  0.00  0.00    +0.024 HD
ENDBRANCH  91  93
BRANCH  91  97
ATOM     97  C   UNL     1     132.525 163.868 200.517  0.00  0.00    -0.064 C 
ATOM     98  C   UNL     1     132.579 164.202 199.222  0.00  0.00    -0.010 C 
ATOM     99  H   UNL     1     132.523 164.667 201.256  0.00  0.00    +0.059 HD
ATOM    100  H   UNL     1     132.600 163.417 198.466  0.00  0.00    +0.078 HD
BRANCH  98 101
ATOM    101  N   UNL     1     132.642 165.467 198.659  0.00  0.00    -0.317 N 
BRANCH 101 102
ATOM    102  C   UNL     1     132.621 166.694 199.450  0.00  0.00    +0.002 C 
ATOM    103  H   UNL     1     132.409 167.560 198.813  0.00  0.00    +0.043 HD
ATOM    104  H   UNL     1     131.857 166.670 200.234  0.00  0.00    +0.043 HD
ATOM    105  H   UNL     1     133.590 166.846 199.942  0.00  0.00    +0.043 HD
ENDBRANCH 101 102
BRANCH 101 106
ATOM    106  C   UNL     1     132.713 165.653 197.219  0.00  0.00    +0.110 C 
ATOM    107  H   UNL     1     132.453 166.678 196.931  0.00  0.00    +0.077 HD
ATOM    108  H   UNL     1     132.044 164.978 196.674  0.00  0.00    +0.077 HD
BRANCH 106 109
ATOM    109  O   UNL     1     134.045 165.390 196.837  0.00  0.00    -0.377 OA
ATOM    110  H   UNL     1     134.142 164.454 197.088  0.00  0.00    +0.211 HD
ENDBRANCH 106 109
ENDBRANCH 101 106
ENDBRANCH  98 101
ENDBRANCH  91  97
ENDBRANCH  89  91
BRANCH  89 111
ATOM    111  O   UNL     1     132.085 160.444 199.746  0.00  0.00    -0.460 OA
BRANCH 111 112
ATOM    112  C   UNL     1     131.699 160.562 198.445  0.00  0.00    +0.304 C 
ATOM    113  O   UNL     1     132.423 160.869 197.509  0.00  0.00    -0.251 OA
BRANCH 112 114
ATOM    114  C   UNL     1     130.233 160.274 198.327  0.00  0.00    +0.033 C 
ATOM    115  H   UNL     1     129.970 160.125 197.277  0.00  0.00    +0.034 HD
ATOM    116  H   UNL     1     129.659 161.099 198.753  0.00  0.00    +0.034 HD
ATOM    117  H   UNL     1     129.996 159.361 198.880  0.00  0.00    +0.034 HD
ENDBRANCH 112 114
ENDBRANCH 111 112
ENDBRANCH  89 111
ENDBRANCH  83  89
ENDBRANCH  81  83
ENDBRANCH  78  81
ENDBRANCH  75  78
ENDBRANCH  69  75
ENDBRANCH  67  69
BRANCH  67 118
ATOM    118  O   UNL     1     136.284 154.759 200.641  0.00  0.00    -0.379 OA
BRANCH 118 119
ATOM    119  C   UNL     1     135.273 154.599 201.630  0.00  0.00    +0.037 C 
ATOM    120  H   UNL     1     135.747 154.662 202.614  0.00  0.00    +0.052 HD
ATOM    121  H   UNL     1     134.533 155.403 201.550  0.00  0.00    +0.052 HD
ATOM    122  H   UNL     1     134.783 153.624 201.546  0.00  0.00    +0.052 HD
ENDBRANCH 118 119
ENDBRANCH  67 118
ENDBRANCH  64  67
ENDBRANCH  13  64
BRANCH   8 123
ATOM    123  O   UNL     1     129.758 155.521 201.406  0.00  0.00    -0.391 OA
ATOM    124  H   UNL     1     130.374 155.338 202.139  0.00  0.00    +0.210 HD
ENDBRANCH   8 123
BRANCH  15 125
ATOM    125  O   UNL     1     133.994 151.441 196.869  0.00  0.00    -0.379 OA
BRANCH 125 126
ATOM    126  C   UNL     1     133.165 150.287 196.935  0.00  0.00    +0.037 C 
ATOM    127  H   UNL     1     133.759 149.389 197.133  0.00  0.00    +0.052 HD
ATOM    128  H   UNL     1     132.460 150.422 197.759  0.00  0.00    +0.052 HD
ATOM    129  H   UNL     1     132.586 150.164 196.016  0.00  0.00    +0.052 HD
ENDBRANCH 125 126
ENDBRANCH  15 125
TORSDOF 27
ENDMDL
MODEL 10
REMARK VINA RESULT:      -5.3      7.868     12.810
REMARK  Name = Ulapualide A_conf2
REMARK  27 active torsions:
REMARK  status: ('A' for Active; 'I' for Inactive)
REMARK    1  A    between atoms: C_1  and  C_2
REMARK    2  A    between atoms: C_9  and  O_63
REMARK    3  A    between atoms: C_14  and  C_38
REMARK    4  A    between atoms: C_15  and  C_37
REMARK    5  A    between atoms: C_16  and  O_35
REMARK    6  A    between atoms: O_35  and  C_36
REMARK    7  A    between atoms: C_38  and  C_39
REMARK    8  A    between atoms: C_39  and  C_40
REMARK    9  A    between atoms: C_39  and  O_61
REMARK   10  A    between atoms: C_40  and  C_41
REMARK   11  A    between atoms: C_40  and  C_42
REMARK   12  A    between atoms: C_42  and  C_43
REMARK   13  A    between atoms: C_43  and  C_44
REMARK   14  A    between atoms: C_44  and  C_46
REMARK   15  A    between atoms: C_46  and  C_47
REMARK   16  A    between atoms: C_46  and  C_48
REMARK   17  A    between atoms: C_48  and  C_49
REMARK   18  A    between atoms: C_48  and  O_57
REMARK   19  A    between atoms: C_49  and  C_50
REMARK   20  A    between atoms: C_49  and  C_51
REMARK   21  A    between atoms: C_52  and  N_53
REMARK   22  A    between atoms: N_53  and  C_54
REMARK   23  A    between atoms: N_53  and  C_55
REMARK   24  A    between atoms: C_55  and  O_56
REMARK   25  A    between atoms: O_57  and  C_58
REMARK   26  A    between atoms: C_58  and  C_60
REMARK   27  A    between atoms: O_61  and  C_62
REMARK                            x       y       z     vdW  Elec       q    Type
REMARK                         _______ _______ _______ _____ _____    ______ ____
ROOT
ATOM      1  C   UNL     1     156.978 174.239 183.533  0.00  0.00    +0.008 C 
ATOM      2  C   UNL     1     158.485 174.015 183.367  0.00  0.00    +0.014 C 
ATOM      3  C   UNL     1     158.916 172.674 182.795  0.00  0.00    +0.134 C 
ATOM      4  O   UNL     1     159.375 172.602 181.653  0.00  0.00    -0.297 OA
ATOM      5  C   UNL     1     158.809 171.462 183.703  0.00  0.00    +0.006 C 
ATOM      6  C   UNL     1     159.702 170.310 183.247  0.00  0.00    -0.044 C 
ATOM      7  C   UNL     1     159.918 169.217 184.303  0.00  0.00    -0.026 C 
ATOM      8  C   UNL     1     158.627 168.592 184.849  0.00  0.00    +0.065 C 
ATOM      9  C   UNL     1     158.924 167.288 185.588  0.00  0.00    +0.071 C 
ATOM     10  C   UNL     1     157.673 166.475 185.787  0.00  0.00    +0.310 C 
ATOM     11  O   UNL     1     157.195 166.209 186.883  0.00  0.00    -0.251 OA
ATOM     12  O   UNL     1     157.202 166.032 184.588  0.00  0.00    -0.461 OA
ATOM     13  C   UNL     1     156.047 165.159 184.624  0.00  0.00    +0.110 C 
ATOM     14  C   UNL     1     156.201 164.118 183.473  0.00  0.00    +0.020 C 
ATOM     15  C   UNL     1     156.745 164.687 182.119  0.00  0.00    +0.068 C 
ATOM     16  C   UNL     1     155.708 165.472 181.283  0.00  0.00    -0.008 C 
ATOM     17  C   UNL     1     154.606 164.615 180.698  0.00  0.00    -0.077 C 
ATOM     18  C   UNL     1     153.736 164.970 179.740  0.00  0.00    -0.003 C 
ATOM     19  C   UNL     1     153.650 166.278 179.185  0.00  0.00    +0.220 A 
ATOM     20  N   UNL     1     154.142 167.399 179.695  0.00  0.00    -0.205 NA
ATOM     21  C   UNL     1     153.737 168.396 178.848  0.00  0.00    +0.164 A 
ATOM     22  C   UNL     1     153.020 167.858 177.813  0.00  0.00    +0.125 A 
ATOM     23  O   UNL     1     152.945 166.515 178.013  0.00  0.00    -0.443 OA
ATOM     24  C   UNL     1     154.011 169.922 179.026  0.00  0.00    +0.250 A 
ATOM     25  N   UNL     1     154.660 170.451 180.053  0.00  0.00    -0.203 NA
ATOM     26  C   UNL     1     154.627 171.803 179.810  0.00  0.00    +0.164 A 
ATOM     27  C   UNL     1     153.968 172.050 178.633  0.00  0.00    +0.125 A 
ATOM     28  O   UNL     1     153.569 170.856 178.115  0.00  0.00    -0.442 OA
ATOM     29  C   UNL     1     155.230 172.933 180.705  0.00  0.00    +0.249 A 
ATOM     30  N   UNL     1     155.865 172.743 181.851  0.00  0.00    -0.212 NA
ATOM     31  C   UNL     1     156.219 174.005 182.270  0.00  0.00    +0.083 A 
ATOM     32  C   UNL     1     155.770 174.929 181.356  0.00  0.00    +0.116 A 
ATOM     33  O   UNL     1     155.141 174.263 180.353  0.00  0.00    -0.442 OA
ATOM     34  H   UNL     1     156.867 175.306 183.777  0.00  0.00    +0.037 HD
ATOM     35  H   UNL     1     159.011 174.170 184.315  0.00  0.00    +0.035 HD
ATOM     36  H   UNL     1     158.879 174.781 182.683  0.00  0.00    +0.035 HD
ATOM     37  H   UNL     1     159.102 171.775 184.711  0.00  0.00    +0.034 HD
ATOM     38  H   UNL     1     157.766 171.134 183.707  0.00  0.00    +0.034 HD
ATOM     39  H   UNL     1     159.275 169.860 182.341  0.00  0.00    +0.027 HD
ATOM     40  H   UNL     1     160.690 170.697 182.958  0.00  0.00    +0.027 HD
ATOM     41  H   UNL     1     160.538 168.438 183.840  0.00  0.00    +0.029 HD
ATOM     42  H   UNL     1     160.500 169.643 185.132  0.00  0.00    +0.029 HD
ATOM     43  H   UNL     1     157.924 168.422 184.026  0.00  0.00    +0.060 HD
ATOM     44  H   UNL     1     159.355 167.486 186.578  0.00  0.00    +0.040 HD
ATOM     45  H   UNL     1     159.634 166.657 185.041  0.00  0.00    +0.040 HD
ATOM     46  H   UNL     1     156.070 164.599 185.569  0.00  0.00    +0.074 HD
ATOM     47  H   UNL     1     155.244 163.613 183.305  0.00  0.00    +0.036 HD
ATOM     48  H   UNL     1     157.588 165.354 182.335  0.00  0.00    +0.060 HD
ATOM     49  H   UNL     1     156.239 165.949 180.449  0.00  0.00    +0.033 HD
ATOM     50  H   UNL     1     155.283 166.284 181.869  0.00  0.00    +0.033 HD
ATOM     51  H   UNL     1     154.550 163.590 181.065  0.00  0.00    +0.057 HD
ATOM     52  H   UNL     1     153.034 164.236 179.362  0.00  0.00    +0.067 HD
ATOM     53  H   UNL     1     152.523 168.248 176.937  0.00  0.00    +0.105 HD
ATOM     54  H   UNL     1     153.711 172.934 178.071  0.00  0.00    +0.105 HD
ATOM     55  H   UNL     1     155.824 176.001 181.261  0.00  0.00    +0.105 HD
ENDROOT
BRANCH   1  56
ATOM     56  C   UNL     1     156.374 173.495 184.725  0.00  0.00    -0.056 C 
ATOM     57  H   UNL     1     156.949 172.586 184.938  0.00  0.00    +0.024 HD
ATOM     58  H   UNL     1     156.377 174.087 185.644  0.00  0.00    +0.024 HD
ATOM     59  H   UNL     1     155.341 173.190 184.517  0.00  0.00    +0.024 HD
ENDBRANCH   1  56
BRANCH  14  60
ATOM     60  C   UNL     1     157.166 163.018 183.982  0.00  0.00    -0.057 C 
ATOM     61  H   UNL     1     157.653 163.311 184.918  0.00  0.00    +0.023 HD
ATOM     62  H   UNL     1     157.969 162.834 183.260  0.00  0.00    +0.023 HD
ATOM     63  H   UNL     1     156.636 162.073 184.150  0.00  0.00    +0.023 HD
ENDBRANCH  14  60
BRANCH  13  64
ATOM     64  C   UNL     1     154.772 166.030 184.659  0.00  0.00    +0.011 C 
ATOM     65  H   UNL     1     155.032 166.990 185.115  0.00  0.00    +0.033 HD
ATOM     66  H   UNL     1     154.433 166.265 183.653  0.00  0.00    +0.033 HD
BRANCH  64  67
ATOM     67  C   UNL     1     153.623 165.379 185.453  0.00  0.00    +0.064 C 
ATOM     68  H   UNL     1     153.867 164.319 185.609  0.00  0.00    +0.060 HD
BRANCH  67  69
ATOM     69  C   UNL     1     153.390 166.026 186.849  0.00  0.00    -0.017 C 
ATOM     70  H   UNL     1     153.836 165.369 187.605  0.00  0.00    +0.032 HD
BRANCH  69  71
ATOM     71  C   UNL     1     154.131 167.368 186.956  0.00  0.00    -0.060 C 
ATOM     72  H   UNL     1     153.522 168.108 187.485  0.00  0.00    +0.023 HD
ATOM     73  H   UNL     1     155.086 167.271 187.482  0.00  0.00    +0.023 HD
ATOM     74  H   UNL     1     154.343 167.771 185.959  0.00  0.00    +0.023 HD
ENDBRANCH  69  71
BRANCH  69  75
ATOM     75  C   UNL     1     151.912 166.229 187.255  0.00  0.00    -0.041 C 
ATOM     76  H   UNL     1     151.495 165.307 187.680  0.00  0.00    +0.027 HD
ATOM     77  H   UNL     1     151.332 166.421 186.342  0.00  0.00    +0.027 HD
BRANCH  75  78
ATOM     78  C   UNL     1     151.690 167.390 188.227  0.00  0.00    +0.007 C 
ATOM     79  H   UNL     1     152.632 167.654 188.714  0.00  0.00    +0.034 HD
ATOM     80  H   UNL     1     151.321 168.255 187.669  0.00  0.00    +0.034 HD
BRANCH  78  81
ATOM     81  C   UNL     1     150.682 167.054 189.320  0.00  0.00    +0.140 C 
ATOM     82  O   UNL     1     149.473 166.957 189.088  0.00  0.00    -0.297 OA
BRANCH  81  83
ATOM     83  C   UNL     1     151.193 166.789 190.736  0.00  0.00    +0.052 C 
ATOM     84  H   UNL     1     150.844 165.781 190.992  0.00  0.00    +0.041 HD
BRANCH  83  85
ATOM     85  C   UNL     1     152.721 166.714 190.748  0.00  0.00    -0.052 C 
ATOM     86  H   UNL     1     153.046 165.707 191.026  0.00  0.00    +0.024 HD
ATOM     87  H   UNL     1     153.159 166.947 189.773  0.00  0.00    +0.024 HD
ATOM     88  H   UNL     1     153.138 167.412 191.480  0.00  0.00    +0.024 HD
ENDBRANCH  83  85
BRANCH  83  89
ATOM     89  C   UNL     1     150.665 167.758 191.814  0.00  0.00    +0.118 C 
ATOM     90  H   UNL     1     149.596 167.517 191.915  0.00  0.00    +0.075 HD
BRANCH  89  91
ATOM     91  C   UNL     1     150.747 169.283 191.503  0.00  0.00    +0.014 C 
ATOM     92  H   UNL     1     150.928 169.365 190.421  0.00  0.00    +0.038 HD
BRANCH  91  93
ATOM     93  C   UNL     1     151.965 169.936 192.168  0.00  0.00    -0.056 C 
ATOM     94  H   UNL     1     152.912 169.588 191.742  0.00  0.00    +0.024 HD
ATOM     95  H   UNL     1     151.984 169.723 193.243  0.00  0.00    +0.024 HD
ATOM     96  H   UNL     1     151.928 171.025 192.054  0.00  0.00    +0.024 HD
ENDBRANCH  91  93
BRANCH  91  97
ATOM     97  C   UNL     1     149.433 170.016 191.703  0.00  0.00    -0.064 C 
ATOM     98  C   UNL     1     149.258 171.314 191.982  0.00  0.00    -0.010 C 
ATOM     99  H   UNL     1     148.549 169.393 191.575  0.00  0.00    +0.059 HD
ATOM    100  H   UNL     1     150.128 171.952 192.132  0.00  0.00    +0.078 HD
BRANCH  98 101
ATOM    101  N   UNL     1     148.069 172.009 192.144  0.00  0.00    -0.317 N 
BRANCH 101 102
ATOM    102  C   UNL     1     146.822 171.620 191.492  0.00  0.00    +0.002 C 
ATOM    103  H   UNL     1     146.336 172.492 191.039  0.00  0.00    +0.043 HD
ATOM    104  H   UNL     1     146.981 170.885 190.695  0.00  0.00    +0.043 HD
ATOM    105  H   UNL     1     146.136 171.170 192.220  0.00  0.00    +0.043 HD
ENDBRANCH 101 102
BRANCH 101 106
ATOM    106  C   UNL     1     147.996 173.201 192.972  0.00  0.00    +0.110 C 
ATOM    107  H   UNL     1     146.961 173.541 193.099  0.00  0.00    +0.077 HD
ATOM    108  H   UNL     1     148.569 174.037 192.558  0.00  0.00    +0.077 HD
BRANCH 106 109
ATOM    109  O   UNL     1     148.527 172.858 194.233  0.00  0.00    -0.377 OA
ATOM    110  H   UNL     1     148.164 171.963 194.363  0.00  0.00    +0.211 HD
ENDBRANCH 106 109
ENDBRANCH 101 106
ENDBRANCH  98 101
ENDBRANCH  91  97
ENDBRANCH  89  91
BRANCH  89 111
ATOM    111  O   UNL     1     151.308 167.466 193.077  0.00  0.00    -0.460 OA
BRANCH 111 112
ATOM    112  C   UNL     1     150.643 166.645 193.936  0.00  0.00    +0.304 C 
ATOM    113  O   UNL     1     149.430 166.501 193.993  0.00  0.00    -0.251 OA
BRANCH 112 114
ATOM    114  C   UNL     1     151.624 165.945 194.825  0.00  0.00    +0.033 C 
ATOM    115  H   UNL     1     151.440 164.869 194.803  0.00  0.00    +0.034 HD
ATOM    116  H   UNL     1     151.538 166.328 195.845  0.00  0.00    +0.034 HD
ATOM    117  H   UNL     1     152.640 166.135 194.467  0.00  0.00    +0.034 HD
ENDBRANCH 112 114
ENDBRANCH 111 112
ENDBRANCH  89 111
ENDBRANCH  83  89
ENDBRANCH  81  83
ENDBRANCH  78  81
ENDBRANCH  75  78
ENDBRANCH  69  75
ENDBRANCH  67  69
BRANCH  67 118
ATOM    118  O   UNL     1     152.437 165.469 184.653  0.00  0.00    -0.379 OA
BRANCH 118 119
ATOM    119  C   UNL     1     152.326 164.427 183.689  0.00  0.00    +0.037 C 
ATOM    120  H   UNL     1     152.237 164.887 182.701  0.00  0.00    +0.052 HD
ATOM    121  H   UNL     1     153.226 163.803 183.700  0.00  0.00    +0.052 HD
ATOM    122  H   UNL     1     151.438 163.814 183.866  0.00  0.00    +0.052 HD
ENDBRANCH 118 119
ENDBRANCH  67 118
ENDBRANCH  64  67
ENDBRANCH  13  64
BRANCH   8 123
ATOM    123  O   UNL     1     158.008 169.509 185.754  0.00  0.00    -0.391 OA
ATOM    124  H   UNL     1     157.184 169.109 186.087  0.00  0.00    +0.210 HD
ENDBRANCH   8 123
BRANCH  15 125
ATOM    125  O   UNL     1     157.263 163.590 181.329  0.00  0.00    -0.379 OA
BRANCH 125 126
ATOM    126  C   UNL     1     158.340 163.948 180.473  0.00  0.00    +0.037 C 
ATOM    127  H   UNL     1     158.746 163.067 179.964  0.00  0.00    +0.052 HD
ATOM    128  H   UNL     1     157.958 164.637 179.715  0.00  0.00    +0.052 HD
ATOM    129  H   UNL     1     159.129 164.464 181.026  0.00  0.00    +0.052 HD
ENDBRANCH 125 126
ENDBRANCH  15 125
TORSDOF 27
ENDMDL
