MODEL 1
REMARK VINA RESULT:      -5.5      0.000      0.000
REMARK  Name = Ulapualide A_conf1
REMARK  27 active torsions:
REMARK  status: ('A' for Active; 'I' for Inactive)
REMARK    1  A    between atoms: C_1  and  C_2
REMARK    2  A    between atoms: C_9  and  O_63
REMARK    3  A    between atoms: C_14  and  C_38
REMARK    4  A    between atoms: C_15  and  C_37
REMARK    5  A    between atoms: C_16  and  O_35
REMARK    6  A    between atoms: O_35  and  C_36
REMARK    7  A    between atoms: C_38  and  C_39
REMARK    8  A    between atoms: C_39  and  C_40
REMARK    9  A    between atoms: C_39  and  O_61
REMARK   10  A    between atoms: C_40  and  C_41
REMARK   11  A    between atoms: C_40  and  C_42
REMARK   12  A    between atoms: C_42  and  C_43
REMARK   13  A    between atoms: C_43  and  C_44
REMARK   14  A    between atoms: C_44  and  C_46
REMARK   15  A    between atoms: C_46  and  C_47
REMARK   16  A    between atoms: C_46  and  C_48
REMARK   17  A    between atoms: C_48  and  C_49
REMARK   18  A    between atoms: C_48  and  O_57
REMARK   19  A    between atoms: C_49  and  C_50
REMARK   20  A    between atoms: C_49  and  C_51
REMARK   21  A    between atoms: C_52  and  N_53
REMARK   22  A    between atoms: N_53  and  C_54
REMARK   23  A    between atoms: N_53  and  C_55
REMARK   24  A    between atoms: C_55  and  O_56
REMARK   25  A    between atoms: O_57  and  C_58
REMARK   26  A    between atoms: C_58  and  C_60
REMARK   27  A    between atoms: O_61  and  C_62
REMARK                            x       y       z     vdW  Elec       q    Type
REMARK                         _______ _______ _______ _____ _____    ______ ____
ROOT
ATOM      1  C   UNL     1     145.676 172.807 191.407  0.00  0.00    +0.008 C 
ATOM      2  C   UNL     1     146.918 172.025 191.882  0.00  0.00    +0.014 C 
ATOM      3  C   UNL     1     148.178 172.861 191.786  0.00  0.00    +0.134 C 
ATOM      4  O   UNL     1     148.354 173.662 190.865  0.00  0.00    -0.297 OA
ATOM      5  C   UNL     1     149.229 172.694 192.865  0.00  0.00    +0.006 C 
ATOM      6  C   UNL     1     149.782 171.280 192.997  0.00  0.00    -0.044 C 
ATOM      7  C   UNL     1     150.388 170.731 191.696  0.00  0.00    -0.026 C 
ATOM      8  C   UNL     1     151.194 169.454 191.972  0.00  0.00    +0.065 C 
ATOM      9  C   UNL     1     151.437 168.641 190.702  0.00  0.00    +0.071 C 
ATOM     10  C   UNL     1     151.769 167.230 191.107  0.00  0.00    +0.310 C 
ATOM     11  O   UNL     1     152.781 166.919 191.726  0.00  0.00    -0.251 OA
ATOM     12  O   UNL     1     150.759 166.380 190.769  0.00  0.00    -0.461 OA
ATOM     13  C   UNL     1     150.774 165.085 191.420  0.00  0.00    +0.110 C 
ATOM     14  C   UNL     1     149.853 164.120 190.624  0.00  0.00    +0.020 C 
ATOM     15  C   UNL     1     150.287 164.042 189.128  0.00  0.00    +0.068 C 
ATOM     16  C   UNL     1     149.279 163.285 188.225  0.00  0.00    -0.008 C 
ATOM     17  C   UNL     1     147.889 163.831 188.354  0.00  0.00    -0.077 C 
ATOM     18  C   UNL     1     146.798 163.105 188.655  0.00  0.00    -0.003 C 
ATOM     19  C   UNL     1     145.556 163.758 188.900  0.00  0.00    +0.220 A 
ATOM     20  N   UNL     1     145.409 165.033 189.233  0.00  0.00    -0.205 NA
ATOM     21  C   UNL     1     144.057 165.222 189.363  0.00  0.00    +0.164 A 
ATOM     22  C   UNL     1     143.400 164.048 189.118  0.00  0.00    +0.125 A 
ATOM     23  O   UNL     1     144.340 163.096 188.851  0.00  0.00    -0.443 OA
ATOM     24  C   UNL     1     143.394 166.581 189.740  0.00  0.00    +0.250 A 
ATOM     25  N   UNL     1     144.095 167.653 190.070  0.00  0.00    -0.203 NA
ATOM     26  C   UNL     1     143.148 168.620 190.289  0.00  0.00    +0.164 A 
ATOM     27  C   UNL     1     141.893 168.096 190.096  0.00  0.00    +0.125 A 
ATOM     28  O   UNL     1     142.031 166.782 189.768  0.00  0.00    -0.442 OA
ATOM     29  C   UNL     1     143.452 170.096 190.682  0.00  0.00    +0.249 A 
ATOM     30  N   UNL     1     144.672 170.564 190.882  0.00  0.00    -0.212 NA
ATOM     31  C   UNL     1     144.498 171.898 191.178  0.00  0.00    +0.083 A 
ATOM     32  C   UNL     1     143.152 172.185 191.141  0.00  0.00    +0.116 A 
ATOM     33  O   UNL     1     142.473 171.047 190.838  0.00  0.00    -0.442 OA
ATOM     34  H   UNL     1     145.895 173.279 190.441  0.00  0.00    +0.037 HD
ATOM     35  H   UNL     1     146.778 171.689 192.914  0.00  0.00    +0.035 HD
ATOM     36  H   UNL     1     147.094 171.135 191.266  0.00  0.00    +0.035 HD
ATOM     37  H   UNL     1     150.047 173.392 192.655  0.00  0.00    +0.034 HD
ATOM     38  H   UNL     1     148.780 173.009 193.814  0.00  0.00    +0.034 HD
ATOM     39  H   UNL     1     150.544 171.288 193.788  0.00  0.00    +0.027 HD
ATOM     40  H   UNL     1     148.991 170.599 193.334  0.00  0.00    +0.027 HD
ATOM     41  H   UNL     1     151.037 171.492 191.246  0.00  0.00    +0.029 HD
ATOM     42  H   UNL     1     149.575 170.522 190.993  0.00  0.00    +0.029 HD
ATOM     43  H   UNL     1     150.680 168.858 192.730  0.00  0.00    +0.060 HD
ATOM     44  H   UNL     1     152.271 169.033 190.109  0.00  0.00    +0.040 HD
ATOM     45  H   UNL     1     150.548 168.623 190.064  0.00  0.00    +0.040 HD
ATOM     46  H   UNL     1     151.796 164.687 191.385  0.00  0.00    +0.074 HD
ATOM     47  H   UNL     1     148.842 164.538 190.646  0.00  0.00    +0.036 HD
ATOM     48  H   UNL     1     150.374 165.067 188.740  0.00  0.00    +0.060 HD
ATOM     49  H   UNL     1     149.313 162.210 188.438  0.00  0.00    +0.033 HD
ATOM     50  H   UNL     1     149.590 163.379 187.177  0.00  0.00    +0.033 HD
ATOM     51  H   UNL     1     147.798 164.915 188.254  0.00  0.00    +0.057 HD
ATOM     52  H   UNL     1     146.830 162.026 188.721  0.00  0.00    +0.067 HD
ATOM     53  H   UNL     1     142.372 163.727 189.128  0.00  0.00    +0.105 HD
ATOM     54  H   UNL     1     140.887 168.482 190.157  0.00  0.00    +0.105 HD
ATOM     55  H   UNL     1     142.558 173.077 191.282  0.00  0.00    +0.105 HD
ENDROOT
BRANCH   1  56
ATOM     56  C   UNL     1     145.344 173.922 192.410  0.00  0.00    -0.056 C 
ATOM     57  H   UNL     1     145.929 173.816 193.330  0.00  0.00    +0.024 HD
ATOM     58  H   UNL     1     144.290 173.897 192.697  0.00  0.00    +0.024 HD
ATOM     59  H   UNL     1     145.559 174.912 191.990  0.00  0.00    +0.024 HD
ENDBRANCH   1  56
BRANCH  14  60
ATOM     60  C   UNL     1     149.810 162.731 191.278  0.00  0.00    -0.057 C 
ATOM     61  H   UNL     1     149.172 162.728 192.166  0.00  0.00    +0.023 HD
ATOM     62  H   UNL     1     150.806 162.385 191.568  0.00  0.00    +0.023 HD
ATOM     63  H   UNL     1     149.417 161.985 190.582  0.00  0.00    +0.023 HD
ENDBRANCH  14  60
BRANCH  13  64
ATOM     64  C   UNL     1     150.360 165.263 192.903  0.00  0.00    +0.011 C 
ATOM     65  H   UNL     1     151.282 165.448 193.463  0.00  0.00    +0.033 HD
ATOM     66  H   UNL     1     149.957 164.318 193.284  0.00  0.00    +0.033 HD
BRANCH  64  67
ATOM     67  C   UNL     1     149.369 166.413 193.211  0.00  0.00    +0.064 C 
ATOM     68  H   UNL     1     149.652 167.288 192.612  0.00  0.00    +0.060 HD
BRANCH  67  69
ATOM     69  C   UNL     1     147.909 166.015 192.821  0.00  0.00    -0.017 C 
ATOM     70  H   UNL     1     147.971 165.094 192.225  0.00  0.00    +0.032 HD
BRANCH  69  71
ATOM     71  C   UNL     1     147.034 165.720 194.046  0.00  0.00    -0.060 C 
ATOM     72  H   UNL     1     147.215 166.439 194.852  0.00  0.00    +0.023 HD
ATOM     73  H   UNL     1     147.205 164.716 194.441  0.00  0.00    +0.023 HD
ATOM     74  H   UNL     1     145.973 165.754 193.789  0.00  0.00    +0.023 HD
ENDBRANCH  69  71
BRANCH  69  75
ATOM     75  C   UNL     1     147.270 167.110 191.929  0.00  0.00    -0.041 C 
ATOM     76  H   UNL     1     147.609 168.086 192.301  0.00  0.00    +0.027 HD
ATOM     77  H   UNL     1     146.178 167.100 192.029  0.00  0.00    +0.027 HD
BRANCH  75  78
ATOM     78  C   UNL     1     147.669 167.032 190.451  0.00  0.00    +0.007 C 
ATOM     79  H   UNL     1     148.649 166.550 190.373  0.00  0.00    +0.034 HD
ATOM     80  H   UNL     1     146.951 166.412 189.903  0.00  0.00    +0.034 HD
BRANCH  78  81
ATOM     81  C   UNL     1     147.807 168.380 189.750  0.00  0.00    +0.140 C 
ATOM     82  O   UNL     1     147.773 169.448 190.365  0.00  0.00    -0.297 OA
BRANCH  81  83
ATOM     83  C   UNL     1     147.990 168.333 188.239  0.00  0.00    +0.052 C 
ATOM     84  H   UNL     1     148.579 169.206 187.938  0.00  0.00    +0.041 HD
BRANCH  83  85
ATOM     85  C   UNL     1     148.804 167.084 187.888  0.00  0.00    -0.052 C 
ATOM     86  H   UNL     1     148.476 166.220 188.472  0.00  0.00    +0.024 HD
ATOM     87  H   UNL     1     148.702 166.823 186.831  0.00  0.00    +0.024 HD
ATOM     88  H   UNL     1     149.869 167.246 188.081  0.00  0.00    +0.024 HD
ENDBRANCH  83  85
BRANCH  83  89
ATOM     89  C   UNL     1     146.640 168.350 187.482  0.00  0.00    +0.118 C 
ATOM     90  H   UNL     1     145.830 168.188 188.202  0.00  0.00    +0.075 HD
BRANCH  89  91
ATOM     91  C   UNL     1     146.344 169.684 186.737  0.00  0.00    +0.014 C 
ATOM     92  H   UNL     1     145.473 169.498 186.110  0.00  0.00    +0.038 HD
BRANCH  91  93
ATOM     93  C   UNL     1     147.495 170.067 185.800  0.00  0.00    -0.056 C 
ATOM     94  H   UNL     1     148.411 170.318 186.349  0.00  0.00    +0.024 HD
ATOM     95  H   UNL     1     147.225 170.936 185.190  0.00  0.00    +0.024 HD
ATOM     96  H   UNL     1     147.725 169.242 185.117  0.00  0.00    +0.024 HD
ENDBRANCH  91  93
BRANCH  91  97
ATOM     97  C   UNL     1     146.068 170.830 187.685  0.00  0.00    -0.064 C 
ATOM     98  C   UNL     1     145.591 172.057 187.425  0.00  0.00    -0.010 C 
ATOM     99  H   UNL     1     146.224 170.586 188.738  0.00  0.00    +0.059 HD
ATOM    100  H   UNL     1     145.356 172.673 188.293  0.00  0.00    +0.078 HD
BRANCH  98 101
ATOM    101  N   UNL     1     145.271 172.718 186.250  0.00  0.00    -0.317 N 
BRANCH 101 102
ATOM    102  C   UNL     1     143.979 172.480 185.598  0.00  0.00    +0.002 C 
ATOM    103  H   UNL     1     143.165 172.453 186.335  0.00  0.00    +0.043 HD
ATOM    104  H   UNL     1     143.977 171.516 185.074  0.00  0.00    +0.043 HD
ATOM    105  H   UNL     1     143.762 173.276 184.878  0.00  0.00    +0.043 HD
ENDBRANCH 101 102
BRANCH 101 106
ATOM    106  C   UNL     1     145.971 173.890 185.741  0.00  0.00    +0.110 C 
ATOM    107  H   UNL     1     145.318 174.717 185.473  0.00  0.00    +0.077 HD
ATOM    108  H   UNL     1     146.707 174.263 186.460  0.00  0.00    +0.077 HD
BRANCH 106 109
ATOM    109  O   UNL     1     146.639 173.490 184.560  0.00  0.00    -0.377 OA
ATOM    110  H   UNL     1     146.188 174.028 183.886  0.00  0.00    +0.211 HD
ENDBRANCH 106 109
ENDBRANCH 101 106
ENDBRANCH  98 101
ENDBRANCH  91  97
ENDBRANCH  89  91
BRANCH  89 111
ATOM    111  O   UNL     1     146.683 167.273 186.507  0.00  0.00    -0.460 OA
BRANCH 111 112
ATOM    112  C   UNL     1     145.511 166.660 186.194  0.00  0.00    +0.304 C 
ATOM    113  O   UNL     1     144.390 167.094 186.413  0.00  0.00    -0.251 OA
BRANCH 112 114
ATOM    114  C   UNL     1     145.790 165.346 185.532  0.00  0.00    +0.033 C 
ATOM    115  H   UNL     1     145.460 164.528 186.178  0.00  0.00    +0.034 HD
ATOM    116  H   UNL     1     146.857 165.261 185.312  0.00  0.00    +0.034 HD
ATOM    117  H   UNL     1     145.235 165.290 184.589  0.00  0.00    +0.034 HD
ENDBRANCH 112 114
ENDBRANCH 111 112
ENDBRANCH  89 111
ENDBRANCH  83  89
ENDBRANCH  81  83
ENDBRANCH  78  81
ENDBRANCH  75  78
ENDBRANCH  69  75
ENDBRANCH  67  69
BRANCH  67 118
ATOM    118  O   UNL     1     149.404 166.723 194.606  0.00  0.00    -0.379 OA
BRANCH 118 119
ATOM    119  C   UNL     1     150.535 166.182 195.284  0.00  0.00    +0.037 C 
ATOM    120  H   UNL     1     150.231 165.370 195.949  0.00  0.00    +0.052 HD
ATOM    121  H   UNL     1     151.288 165.823 194.576  0.00  0.00    +0.052 HD
ATOM    122  H   UNL     1     150.980 166.977 195.890  0.00  0.00    +0.052 HD
ENDBRANCH 118 119
ENDBRANCH  67 118
ENDBRANCH  64  67
ENDBRANCH  13  64
BRANCH   8 123
ATOM    123  O   UNL     1     152.453 169.854 192.522  0.00  0.00    -0.391 OA
ATOM    124  H   UNL     1     152.284 170.645 193.073  0.00  0.00    +0.210 HD
ENDBRANCH   8 123
BRANCH  15 125
ATOM    125  O   UNL     1     151.565 163.392 189.064  0.00  0.00    -0.379 OA
BRANCH 125 126
ATOM    126  C   UNL     1     151.660 162.463 187.989  0.00  0.00    +0.037 C 
ATOM    127  H   UNL     1     152.664 162.026 187.952  0.00  0.00    +0.052 HD
ATOM    128  H   UNL     1     150.939 161.661 188.166  0.00  0.00    +0.052 HD
ATOM    129  H   UNL     1     151.420 162.941 187.034  0.00  0.00    +0.052 HD
ENDBRANCH 125 126
ENDBRANCH  15 125
TORSDOF 27
ENDMDL
MODEL 2
REMARK VINA RESULT:      -5.2      2.825      8.262
REMARK  Name = Ulapualide A_conf1
REMARK  27 active torsions:
REMARK  status: ('A' for Active; 'I' for Inactive)
REMARK    1  A    between atoms: C_1  and  C_2
REMARK    2  A    between atoms: C_9  and  O_63
REMARK    3  A    between atoms: C_14  and  C_38
REMARK    4  A    between atoms: C_15  and  C_37
REMARK    5  A    between atoms: C_16  and  O_35
REMARK    6  A    between atoms: O_35  and  C_36
REMARK    7  A    between atoms: C_38  and  C_39
REMARK    8  A    between atoms: C_39  and  C_40
REMARK    9  A    between atoms: C_39  and  O_61
REMARK   10  A    between atoms: C_40  and  C_41
REMARK   11  A    between atoms: C_40  and  C_42
REMARK   12  A    between atoms: C_42  and  C_43
REMARK   13  A    between atoms: C_43  and  C_44
REMARK   14  A    between atoms: C_44  and  C_46
REMARK   15  A    between atoms: C_46  and  C_47
REMARK   16  A    between atoms: C_46  and  C_48
REMARK   17  A    between atoms: C_48  and  C_49
REMARK   18  A    between atoms: C_48  and  O_57
REMARK   19  A    between atoms: C_49  and  C_50
REMARK   20  A    between atoms: C_49  and  C_51
REMARK   21  A    between atoms: C_52  and  N_53
REMARK   22  A    between atoms: N_53  and  C_54
REMARK   23  A    between atoms: N_53  and  C_55
REMARK   24  A    between atoms: C_55  and  O_56
REMARK   25  A    between atoms: O_57  and  C_58
REMARK   26  A    between atoms: C_58  and  C_60
REMARK   27  A    between atoms: O_61  and  C_62
REMARK                            x       y       z     vdW  Elec       q    Type
REMARK                         _______ _______ _______ _____ _____    ______ ____
ROOT
ATOM      1  C   UNL     1     143.504 171.713 190.811  0.00  0.00    +0.008 C 
ATOM      2  C   UNL     1     143.490 170.462 189.909  0.00  0.00    +0.014 C 
ATOM      3  C   UNL     1     142.101 169.869 189.792  0.00  0.00    +0.134 C 
ATOM      4  O   UNL     1     141.318 169.866 190.746  0.00  0.00    -0.297 OA
ATOM      5  C   UNL     1     141.686 169.278 188.460  0.00  0.00    +0.006 C 
ATOM      6  C   UNL     1     142.571 168.138 187.970  0.00  0.00    -0.044 C 
ATOM      7  C   UNL     1     142.677 166.971 188.962  0.00  0.00    -0.026 C 
ATOM      8  C   UNL     1     143.312 165.745 188.288  0.00  0.00    +0.065 C 
ATOM      9  C   UNL     1     143.839 164.737 189.307  0.00  0.00    +0.071 C 
ATOM     10  C   UNL     1     144.847 163.858 188.616  0.00  0.00    +0.310 C 
ATOM     11  O   UNL     1     144.566 163.081 187.710  0.00  0.00    -0.251 OA
ATOM     12  O   UNL     1     146.105 164.111 189.076  0.00  0.00    -0.461 OA
ATOM     13  C   UNL     1     147.193 163.621 188.254  0.00  0.00    +0.110 C 
ATOM     14  C   UNL     1     148.490 163.603 189.108  0.00  0.00    +0.020 C 
ATOM     15  C   UNL     1     148.293 162.758 190.404  0.00  0.00    +0.068 C 
ATOM     16  C   UNL     1     149.462 162.885 191.414  0.00  0.00    -0.008 C 
ATOM     17  C   UNL     1     149.765 164.316 191.746  0.00  0.00    -0.077 C 
ATOM     18  C   UNL     1     150.974 164.895 191.639  0.00  0.00    -0.003 C 
ATOM     19  C   UNL     1     151.108 166.298 191.836  0.00  0.00    +0.220 A 
ATOM     20  N   UNL     1     150.127 167.185 191.756  0.00  0.00    -0.205 NA
ATOM     21  C   UNL     1     150.708 168.399 192.020  0.00  0.00    +0.164 A 
ATOM     22  C   UNL     1     152.045 168.230 192.248  0.00  0.00    +0.125 A 
ATOM     23  O   UNL     1     152.326 166.903 192.105  0.00  0.00    -0.443 OA
ATOM     24  C   UNL     1     149.937 169.753 192.048  0.00  0.00    +0.250 A 
ATOM     25  N   UNL     1     148.663 169.859 191.712  0.00  0.00    -0.203 NA
ATOM     26  C   UNL     1     148.373 171.185 191.904  0.00  0.00    +0.164 A 
ATOM     27  C   UNL     1     149.493 171.849 192.342  0.00  0.00    +0.125 A 
ATOM     28  O   UNL     1     150.513 170.950 192.415  0.00  0.00    -0.442 OA
ATOM     29  C   UNL     1     146.977 171.838 191.676  0.00  0.00    +0.249 A 
ATOM     30  N   UNL     1     145.923 171.175 191.233  0.00  0.00    -0.212 NA
ATOM     31  C   UNL     1     144.905 172.102 191.203  0.00  0.00    +0.083 A 
ATOM     32  C   UNL     1     145.398 173.311 191.641  0.00  0.00    +0.116 A 
ATOM     33  O   UNL     1     146.717 173.161 191.935  0.00  0.00    -0.442 OA
ATOM     34  H   UNL     1     142.973 171.489 191.745  0.00  0.00    +0.037 HD
ATOM     35  H   UNL     1     143.866 170.715 188.912  0.00  0.00    +0.035 HD
ATOM     36  H   UNL     1     144.129 169.667 190.310  0.00  0.00    +0.035 HD
ATOM     37  H   UNL     1     140.651 168.929 188.549  0.00  0.00    +0.034 HD
ATOM     38  H   UNL     1     141.683 170.091 187.726  0.00  0.00    +0.034 HD
ATOM     39  H   UNL     1     142.162 167.780 187.016  0.00  0.00    +0.027 HD
ATOM     40  H   UNL     1     143.579 168.514 187.755  0.00  0.00    +0.027 HD
ATOM     41  H   UNL     1     141.678 166.715 189.334  0.00  0.00    +0.029 HD
ATOM     42  H   UNL     1     143.284 167.290 189.815  0.00  0.00    +0.029 HD
ATOM     43  H   UNL     1     144.106 166.074 187.612  0.00  0.00    +0.060 HD
ATOM     44  H   UNL     1     143.046 164.097 189.710  0.00  0.00    +0.040 HD
ATOM     45  H   UNL     1     144.328 165.238 190.148  0.00  0.00    +0.040 HD
ATOM     46  H   UNL     1     146.968 162.590 187.953  0.00  0.00    +0.074 HD
ATOM     47  H   UNL     1     148.692 164.633 189.420  0.00  0.00    +0.036 HD
ATOM     48  H   UNL     1     147.380 163.107 190.907  0.00  0.00    +0.060 HD
ATOM     49  H   UNL     1     150.347 162.360 191.038  0.00  0.00    +0.033 HD
ATOM     50  H   UNL     1     149.195 162.366 192.343  0.00  0.00    +0.033 HD
ATOM     51  H   UNL     1     148.905 164.925 192.033  0.00  0.00    +0.057 HD
ATOM     52  H   UNL     1     151.861 164.324 191.401  0.00  0.00    +0.067 HD
ATOM     53  H   UNL     1     152.876 168.883 192.463  0.00  0.00    +0.105 HD
ATOM     54  H   UNL     1     149.720 172.869 192.611  0.00  0.00    +0.105 HD
ATOM     55  H   UNL     1     144.978 174.293 191.802  0.00  0.00    +0.105 HD
ENDROOT
BRANCH   1  56
ATOM     56  C   UNL     1     142.769 172.868 190.117  0.00  0.00    -0.056 C 
ATOM     57  H   UNL     1     142.511 173.661 190.829  0.00  0.00    +0.024 HD
ATOM     58  H   UNL     1     141.833 172.528 189.666  0.00  0.00    +0.024 HD
ATOM     59  H   UNL     1     143.384 173.316 189.328  0.00  0.00    +0.024 HD
ENDBRANCH   1  56
BRANCH  14  60
ATOM     60  C   UNL     1     149.689 163.111 188.283  0.00  0.00    -0.057 C 
ATOM     61  H   UNL     1     149.911 163.792 187.457  0.00  0.00    +0.023 HD
ATOM     62  H   UNL     1     149.518 162.113 187.870  0.00  0.00    +0.023 HD
ATOM     63  H   UNL     1     150.585 163.036 188.905  0.00  0.00    +0.023 HD
ENDBRANCH  14  60
BRANCH  13  64
ATOM     64  C   UNL     1     147.295 164.499 186.980  0.00  0.00    +0.011 C 
ATOM     65  H   UNL     1     146.285 164.561 186.563  0.00  0.00    +0.033 HD
ATOM     66  H   UNL     1     147.903 163.981 186.229  0.00  0.00    +0.033 HD
BRANCH  64  67
ATOM     67  C   UNL     1     147.826 165.941 187.175  0.00  0.00    +0.064 C 
ATOM     68  H   UNL     1     148.263 166.020 188.178  0.00  0.00    +0.060 HD
BRANCH  67  69
ATOM     69  C   UNL     1     148.946 166.272 186.136  0.00  0.00    -0.017 C 
ATOM     70  H   UNL     1     149.434 165.324 185.871  0.00  0.00    +0.032 HD
BRANCH  69  71
ATOM     71  C   UNL     1     148.386 166.885 184.845  0.00  0.00    -0.060 C 
ATOM     72  H   UNL     1     147.845 167.816 185.044  0.00  0.00    +0.023 HD
ATOM     73  H   UNL     1     147.709 166.202 184.327  0.00  0.00    +0.023 HD
ATOM     74  H   UNL     1     149.185 167.099 184.133  0.00  0.00    +0.023 HD
ENDBRANCH  69  71
BRANCH  69  75
ATOM     75  C   UNL     1     150.019 167.193 186.772  0.00  0.00    -0.041 C 
ATOM     76  H   UNL     1     149.519 168.112 187.103  0.00  0.00    +0.027 HD
ATOM     77  H   UNL     1     150.761 167.493 186.023  0.00  0.00    +0.027 HD
BRANCH  75  78
ATOM     78  C   UNL     1     150.714 166.595 188.000  0.00  0.00    +0.007 C 
ATOM     79  H   UNL     1     150.233 166.983 188.904  0.00  0.00    +0.034 HD
ATOM     80  H   UNL     1     150.594 165.506 188.003  0.00  0.00    +0.034 HD
BRANCH  78  81
ATOM     81  C   UNL     1     152.195 166.939 188.131  0.00  0.00    +0.140 C 
ATOM     82  O   UNL     1     152.600 167.828 188.882  0.00  0.00    -0.297 OA
BRANCH  81  83
ATOM     83  C   UNL     1     153.150 166.116 187.277  0.00  0.00    +0.052 C 
ATOM     84  H   UNL     1     152.555 165.455 186.638  0.00  0.00    +0.041 HD
BRANCH  83  85
ATOM     85  C   UNL     1     153.923 167.069 186.360  0.00  0.00    -0.052 C 
ATOM     86  H   UNL     1     153.947 168.082 186.770  0.00  0.00    +0.024 HD
ATOM     87  H   UNL     1     154.959 166.745 186.226  0.00  0.00    +0.024 HD
ATOM     88  H   UNL     1     153.466 167.111 185.367  0.00  0.00    +0.024 HD
ENDBRANCH  83  85
BRANCH  83  89
ATOM     89  C   UNL     1     154.115 165.260 188.132  0.00  0.00    +0.118 C 
ATOM     90  H   UNL     1     154.059 165.598 189.172  0.00  0.00    +0.075 HD
BRANCH  89  91
ATOM     91  C   UNL     1     153.797 163.736 188.118  0.00  0.00    +0.014 C 
ATOM     92  H   UNL     1     154.737 163.229 187.908  0.00  0.00    +0.038 HD
BRANCH  91  93
ATOM     93  C   UNL     1     152.833 163.378 186.981  0.00  0.00    -0.056 C 
ATOM     94  H   UNL     1     153.118 163.847 186.031  0.00  0.00    +0.024 HD
ATOM     95  H   UNL     1     151.814 163.704 187.220  0.00  0.00    +0.024 HD
ATOM     96  H   UNL     1     152.806 162.293 186.828  0.00  0.00    +0.024 HD
ENDBRANCH  91  93
BRANCH  91  97
ATOM     97  C   UNL     1     153.224 163.250 189.432  0.00  0.00    -0.064 C 
ATOM     98  C   UNL     1     153.124 162.001 189.908  0.00  0.00    -0.010 C 
ATOM     99  H   UNL     1     152.910 164.050 190.105  0.00  0.00    +0.059 HD
ATOM    100  H   UNL     1     152.787 161.907 190.941  0.00  0.00    +0.078 HD
BRANCH  98 101
ATOM    101  N   UNL     1     153.415 160.757 189.371  0.00  0.00    -0.317 N 
BRANCH 101 102
ATOM    102  C   UNL     1     154.766 160.462 188.882  0.00  0.00    +0.002 C 
ATOM    103  H   UNL     1     155.516 161.067 189.409  0.00  0.00    +0.043 HD
ATOM    104  H   UNL     1     154.854 160.693 187.813  0.00  0.00    +0.043 HD
ATOM    105  H   UNL     1     155.008 159.406 189.039  0.00  0.00    +0.043 HD
ENDBRANCH 101 102
BRANCH 101 106
ATOM    106  C   UNL     1     152.582 159.571 189.525  0.00  0.00    +0.110 C 
ATOM    107  H   UNL     1     151.562 159.695 189.171  0.00  0.00    +0.077 HD
ATOM    108  H   UNL     1     153.013 158.707 189.012  0.00  0.00    +0.077 HD
BRANCH 106 109
ATOM    109  O   UNL     1     152.509 159.297 190.911  0.00  0.00    -0.377 OA
ATOM    110  H   UNL     1     153.451 159.262 191.155  0.00  0.00    +0.211 HD
ENDBRANCH 106 109
ENDBRANCH 101 106
ENDBRANCH  98 101
ENDBRANCH  91  97
ENDBRANCH  89  91
BRANCH  89 111
ATOM    111  O   UNL     1     155.452 165.460 187.597  0.00  0.00    -0.460 OA
BRANCH 111 112
ATOM    112  C   UNL     1     156.500 165.299 188.448  0.00  0.00    +0.304 C 
ATOM    113  O   UNL     1     157.454 164.554 188.283  0.00  0.00    -0.251 OA
BRANCH 112 114
ATOM    114  C   UNL     1     156.317 166.179 189.646  0.00  0.00    +0.033 C 
ATOM    115  H   UNL     1     155.840 167.116 189.348  0.00  0.00    +0.034 HD
ATOM    116  H   UNL     1     157.284 166.368 190.118  0.00  0.00    +0.034 HD
ATOM    117  H   UNL     1     155.669 165.673 190.370  0.00  0.00    +0.034 HD
ENDBRANCH 112 114
ENDBRANCH 111 112
ENDBRANCH  89 111
ENDBRANCH  83  89
ENDBRANCH  81  83
ENDBRANCH  78  81
ENDBRANCH  75  78
ENDBRANCH  69  75
ENDBRANCH  67  69
BRANCH  67 118
ATOM    118  O   UNL     1     146.757 166.877 187.013  0.00  0.00    -0.379 OA
BRANCH 118 119
ATOM    119  C   UNL     1     146.467 167.623 188.193  0.00  0.00    +0.037 C 
ATOM    120  H   UNL     1     146.079 166.966 188.975  0.00  0.00    +0.052 HD
ATOM    121  H   UNL     1     147.352 168.153 188.555  0.00  0.00    +0.052 HD
ATOM    122  H   UNL     1     145.697 168.361 187.947  0.00  0.00    +0.052 HD
ENDBRANCH 118 119
ENDBRANCH  67 118
ENDBRANCH  64  67
ENDBRANCH  13  64
BRANCH   8 123
ATOM    123  O   UNL     1     142.300 165.124 187.491  0.00  0.00    -0.391 OA
ATOM    124  H   UNL     1     142.477 164.161 187.508  0.00  0.00    +0.210 HD
ENDBRANCH   8 123
BRANCH  15 125
ATOM    125  O   UNL     1     148.139 161.383 190.024  0.00  0.00    -0.379 OA
BRANCH 125 126
ATOM    126  C   UNL     1     148.988 160.507 190.760  0.00  0.00    +0.037 C 
ATOM    127  H   UNL     1     148.893 159.482 190.385  0.00  0.00    +0.052 HD
ATOM    128  H   UNL     1     150.021 160.835 190.619  0.00  0.00    +0.052 HD
ATOM    129  H   UNL     1     148.755 160.542 191.829  0.00  0.00    +0.052 HD
ENDBRANCH 125 126
ENDBRANCH  15 125
TORSDOF 27
ENDMDL
MODEL 3
REMARK VINA RESULT:      -5.2      2.022      6.645
REMARK  Name = Ulapualide A_conf1
REMARK  27 active torsions:
REMARK  status: ('A' for Active; 'I' for Inactive)
REMARK    1  A    between atoms: C_1  and  C_2
REMARK    2  A    between atoms: C_9  and  O_63
REMARK    3  A    between atoms: C_14  and  C_38
REMARK    4  A    between atoms: C_15  and  C_37
REMARK    5  A    between atoms: C_16  and  O_35
REMARK    6  A    between atoms: O_35  and  C_36
REMARK    7  A    between atoms: C_38  and  C_39
REMARK    8  A    between atoms: C_39  and  C_40
REMARK    9  A    between atoms: C_39  and  O_61
REMARK   10  A    between atoms: C_40  and  C_41
REMARK   11  A    between atoms: C_40  and  C_42
REMARK   12  A    between atoms: C_42  and  C_43
REMARK   13  A    between atoms: C_43  and  C_44
REMARK   14  A    between atoms: C_44  and  C_46
REMARK   15  A    between atoms: C_46  and  C_47
REMARK   16  A    between atoms: C_46  and  C_48
REMARK   17  A    between atoms: C_48  and  C_49
REMARK   18  A    between atoms: C_48  and  O_57
REMARK   19  A    between atoms: C_49  and  C_50
REMARK   20  A    between atoms: C_49  and  C_51
REMARK   21  A    between atoms: C_52  and  N_53
REMARK   22  A    between atoms: N_53  and  C_54
REMARK   23  A    between atoms: N_53  and  C_55
REMARK   24  A    between atoms: C_55  and  O_56
REMARK   25  A    between atoms: O_57  and  C_58
REMARK   26  A    between atoms: C_58  and  C_60
REMARK   27  A    between atoms: O_61  and  C_62
REMARK                            x       y       z     vdW  Elec       q    Type
REMARK                         _______ _______ _______ _____ _____    ______ ____
ROOT
ATOM      1  C   UNL     1     142.483 171.454 190.759  0.00  0.00    +0.008 C 
ATOM      2  C   UNL     1     142.791 170.196 189.920  0.00  0.00    +0.014 C 
ATOM      3  C   UNL     1     141.597 169.267 189.842  0.00  0.00    +0.134 C 
ATOM      4  O   UNL     1     140.834 169.114 190.799  0.00  0.00    -0.297 OA
ATOM      5  C   UNL     1     141.354 168.524 188.544  0.00  0.00    +0.006 C 
ATOM      6  C   UNL     1     142.501 167.621 188.107  0.00  0.00    -0.044 C 
ATOM      7  C   UNL     1     142.892 166.569 189.155  0.00  0.00    -0.026 C 
ATOM      8  C   UNL     1     143.820 165.512 188.540  0.00  0.00    +0.065 C 
ATOM      9  C   UNL     1     144.578 164.721 189.605  0.00  0.00    +0.071 C 
ATOM     10  C   UNL     1     145.779 164.092 188.953  0.00  0.00    +0.310 C 
ATOM     11  O   UNL     1     145.710 163.225 188.089  0.00  0.00    -0.251 OA
ATOM     12  O   UNL     1     146.929 164.677 189.392  0.00  0.00    -0.461 OA
ATOM     13  C   UNL     1     148.111 164.436 188.589  0.00  0.00    +0.110 C 
ATOM     14  C   UNL     1     149.365 164.789 189.435  0.00  0.00    +0.020 C 
ATOM     15  C   UNL     1     149.378 163.988 190.774  0.00  0.00    +0.068 C 
ATOM     16  C   UNL     1     150.470 164.456 191.769  0.00  0.00    -0.008 C 
ATOM     17  C   UNL     1     150.401 165.931 192.027  0.00  0.00    -0.077 C 
ATOM     18  C   UNL     1     151.426 166.791 191.884  0.00  0.00    -0.003 C 
ATOM     19  C   UNL     1     151.200 168.191 192.010  0.00  0.00    +0.220 A 
ATOM     20  N   UNL     1     150.027 168.796 191.890  0.00  0.00    -0.205 NA
ATOM     21  C   UNL     1     150.281 170.129 192.090  0.00  0.00    +0.164 A 
ATOM     22  C   UNL     1     151.617 170.315 192.318  0.00  0.00    +0.125 A 
ATOM     23  O   UNL     1     152.223 169.096 192.240  0.00  0.00    -0.443 OA
ATOM     24  C   UNL     1     149.194 171.244 192.054  0.00  0.00    +0.250 A 
ATOM     25  N   UNL     1     147.936 171.009 191.721  0.00  0.00    -0.203 NA
ATOM     26  C   UNL     1     147.320 172.226 191.848  0.00  0.00    +0.164 A 
ATOM     27  C   UNL     1     148.233 173.172 192.245  0.00  0.00    +0.125 A 
ATOM     28  O   UNL     1     149.447 172.564 192.357  0.00  0.00    -0.442 OA
ATOM     29  C   UNL     1     145.806 172.494 191.596  0.00  0.00    +0.249 A 
ATOM     30  N   UNL     1     144.956 171.565 191.193  0.00  0.00    -0.212 NA
ATOM     31  C   UNL     1     143.738 172.203 191.123  0.00  0.00    +0.083 A 
ATOM     32  C   UNL     1     143.907 173.517 191.496  0.00  0.00    +0.116 A 
ATOM     33  O   UNL     1     145.219 173.720 191.789  0.00  0.00    -0.442 OA
ATOM     34  H   UNL     1     142.019 171.150 191.706  0.00  0.00    +0.037 HD
ATOM     35  H   UNL     1     143.099 170.485 188.910  0.00  0.00    +0.035 HD
ATOM     36  H   UNL     1     143.608 169.609 190.358  0.00  0.00    +0.035 HD
ATOM     37  H   UNL     1     140.440 167.930 188.657  0.00  0.00    +0.034 HD
ATOM     38  H   UNL     1     141.151 169.272 187.770  0.00  0.00    +0.034 HD
ATOM     39  H   UNL     1     142.203 167.124 187.174  0.00  0.00    +0.027 HD
ATOM     40  H   UNL     1     143.383 168.227 187.867  0.00  0.00    +0.027 HD
ATOM     41  H   UNL     1     141.987 166.089 189.546  0.00  0.00    +0.029 HD
ATOM     42  H   UNL     1     143.393 167.074 189.988  0.00  0.00    +0.029 HD
ATOM     43  H   UNL     1     144.510 165.996 187.844  0.00  0.00    +0.060 HD
ATOM     44  H   UNL     1     143.968 163.923 190.044  0.00  0.00    +0.040 HD
ATOM     45  H   UNL     1     144.918 165.371 190.417  0.00  0.00    +0.040 HD
ATOM     46  H   UNL     1     148.156 163.368 188.343  0.00  0.00    +0.074 HD
ATOM     47  H   UNL     1     149.298 165.851 189.695  0.00  0.00    +0.036 HD
ATOM     48  H   UNL     1     148.404 164.119 191.264  0.00  0.00    +0.060 HD
ATOM     49  H   UNL     1     151.462 164.153 191.414  0.00  0.00    +0.033 HD
ATOM     50  H   UNL     1     150.337 163.933 192.725  0.00  0.00    +0.033 HD
ATOM     51  H   UNL     1     149.413 166.317 192.288  0.00  0.00    +0.057 HD
ATOM     52  H   UNL     1     152.430 166.451 191.670  0.00  0.00    +0.067 HD
ATOM     53  H   UNL     1     152.254 171.165 192.494  0.00  0.00    +0.105 HD
ATOM     54  H   UNL     1     148.193 174.229 192.461  0.00  0.00    +0.105 HD
ATOM     55  H   UNL     1     143.251 174.368 191.610  0.00  0.00    +0.105 HD
ENDROOT
BRANCH   1  56
ATOM     56  C   UNL     1     141.485 172.349 190.012  0.00  0.00    -0.056 C 
ATOM     57  H   UNL     1     140.453 172.023 190.182  0.00  0.00    +0.024 HD
ATOM     58  H   UNL     1     141.655 172.319 188.933  0.00  0.00    +0.024 HD
ATOM     59  H   UNL     1     141.562 173.393 190.340  0.00  0.00    +0.024 HD
ENDBRANCH   1  56
BRANCH  14  60
ATOM     60  C   UNL     1     150.655 164.574 188.629  0.00  0.00    -0.057 C 
ATOM     61  H   UNL     1     150.463 164.008 187.713  0.00  0.00    +0.023 HD
ATOM     62  H   UNL     1     151.416 164.045 189.208  0.00  0.00    +0.023 HD
ATOM     63  H   UNL     1     151.099 165.532 188.342  0.00  0.00    +0.023 HD
ENDBRANCH  14  60
BRANCH  13  64
ATOM     64  C   UNL     1     147.998 165.246 187.272  0.00  0.00    +0.011 C 
ATOM     65  H   UNL     1     148.644 166.121 187.390  0.00  0.00    +0.033 HD
ATOM     66  H   UNL     1     146.978 165.632 187.169  0.00  0.00    +0.033 HD
BRANCH  64  67
ATOM     67  C   UNL     1     148.412 164.512 185.972  0.00  0.00    +0.064 C 
ATOM     68  H   UNL     1     148.691 163.482 186.226  0.00  0.00    +0.060 HD
BRANCH  67  69
ATOM     69  C   UNL     1     147.222 164.452 184.960  0.00  0.00    -0.017 C 
ATOM     70  H   UNL     1     147.596 164.823 183.995  0.00  0.00    +0.032 HD
BRANCH  69  71
ATOM     71  C   UNL     1     146.709 163.022 184.742  0.00  0.00    -0.060 C 
ATOM     72  H   UNL     1     146.305 162.888 183.733  0.00  0.00    +0.023 HD
ATOM     73  H   UNL     1     145.930 162.752 185.460  0.00  0.00    +0.023 HD
ATOM     74  H   UNL     1     147.507 162.292 184.891  0.00  0.00    +0.023 HD
ENDBRANCH  69  71
BRANCH  69  75
ATOM     75  C   UNL     1     146.077 165.392 185.415  0.00  0.00    -0.041 C 
ATOM     76  H   UNL     1     146.462 166.023 186.226  0.00  0.00    +0.027 HD
ATOM     77  H   UNL     1     145.248 164.812 185.837  0.00  0.00    +0.027 HD
BRANCH  75  78
ATOM     78  C   UNL     1     145.564 166.336 184.321  0.00  0.00    +0.007 C 
ATOM     79  H   UNL     1     145.572 165.807 183.363  0.00  0.00    +0.034 HD
ATOM     80  H   UNL     1     144.527 166.622 184.532  0.00  0.00    +0.034 HD
BRANCH  78  81
ATOM     81  C   UNL     1     146.400 167.594 184.114  0.00  0.00    +0.140 C 
ATOM     82  O   UNL     1     146.832 167.923 183.007  0.00  0.00    -0.297 OA
BRANCH  81  83
ATOM     83  C   UNL     1     146.675 168.428 185.359  0.00  0.00    +0.052 C 
ATOM     84  H   UNL     1     146.385 167.839 186.236  0.00  0.00    +0.041 HD
BRANCH  83  85
ATOM     85  C   UNL     1     148.183 168.680 185.451  0.00  0.00    -0.052 C 
ATOM     86  H   UNL     1     148.395 169.698 185.788  0.00  0.00    +0.024 HD
ATOM     87  H   UNL     1     148.662 167.995 186.155  0.00  0.00    +0.024 HD
ATOM     88  H   UNL     1     148.662 168.533 184.478  0.00  0.00    +0.024 HD
ENDBRANCH  83  85
BRANCH  83  89
ATOM     89  C   UNL     1     145.886 169.759 185.361  0.00  0.00    +0.118 C 
ATOM     90  H   UNL     1     145.167 169.745 184.534  0.00  0.00    +0.075 HD
BRANCH  89  91
ATOM     91  C   UNL     1     145.087 170.024 186.670  0.00  0.00    +0.014 C 
ATOM     92  H   UNL     1     144.758 169.051 187.031  0.00  0.00    +0.038 HD
BRANCH  91  93
ATOM     93  C   UNL     1     143.825 170.849 186.397  0.00  0.00    -0.056 C 
ATOM     94  H   UNL     1     143.155 170.359 185.679  0.00  0.00    +0.024 HD
ATOM     95  H   UNL     1     144.086 171.833 185.989  0.00  0.00    +0.024 HD
ATOM     96  H   UNL     1     143.265 171.014 187.324  0.00  0.00    +0.024 HD
ENDBRANCH  91  93
BRANCH  91  97
ATOM     97  C   UNL     1     145.918 170.717 187.728  0.00  0.00    -0.064 C 
ATOM     98  C   UNL     1     146.670 170.188 188.705  0.00  0.00    -0.010 C 
ATOM     99  H   UNL     1     145.952 171.804 187.628  0.00  0.00    +0.059 HD
ATOM    100  H   UNL     1     147.282 170.889 189.272  0.00  0.00    +0.078 HD
BRANCH  98 101
ATOM    101  N   UNL     1     146.885 168.888 189.134  0.00  0.00    -0.317 N 
BRANCH 101 102
ATOM    102  C   UNL     1     148.222 168.291 189.038  0.00  0.00    +0.002 C 
ATOM    103  H   UNL     1     148.186 167.327 188.512  0.00  0.00    +0.043 HD
ATOM    104  H   UNL     1     148.638 168.104 190.036  0.00  0.00    +0.043 HD
ATOM    105  H   UNL     1     148.898 168.955 188.489  0.00  0.00    +0.043 HD
ENDBRANCH 101 102
BRANCH 101 106
ATOM    106  C   UNL     1     145.970 168.132 189.980  0.00  0.00    +0.110 C 
ATOM    107  H   UNL     1     144.970 168.024 189.568  0.00  0.00    +0.077 HD
ATOM    108  H   UNL     1     146.355 167.130 190.194  0.00  0.00    +0.077 HD
BRANCH 106 109
ATOM    109  O   UNL     1     145.844 168.848 191.193  0.00  0.00    -0.377 OA
ATOM    110  H   UNL     1     145.656 168.132 191.826  0.00  0.00    +0.211 HD
ENDBRANCH 106 109
ENDBRANCH 101 106
ENDBRANCH  98 101
ENDBRANCH  91  97
ENDBRANCH  89  91
BRANCH  89 111
ATOM    111  O   UNL     1     146.853 170.830 185.183  0.00  0.00    -0.460 OA
BRANCH 111 112
ATOM    112  C   UNL     1     146.539 171.823 184.309  0.00  0.00    +0.304 C 
ATOM    113  O   UNL     1     146.082 172.919 184.597  0.00  0.00    -0.251 OA
BRANCH 112 114
ATOM    114  C   UNL     1     146.832 171.374 182.910  0.00  0.00    +0.033 C 
ATOM    115  H   UNL     1     147.172 172.224 182.312  0.00  0.00    +0.034 HD
ATOM    116  H   UNL     1     145.939 170.923 182.471  0.00  0.00    +0.034 HD
ATOM    117  H   UNL     1     147.628 170.622 182.930  0.00  0.00    +0.034 HD
ENDBRANCH 112 114
ENDBRANCH 111 112
ENDBRANCH  89 111
ENDBRANCH  83  89
ENDBRANCH  81  83
ENDBRANCH  78  81
ENDBRANCH  75  78
ENDBRANCH  69  75
ENDBRANCH  67  69
BRANCH  67 118
ATOM    118  O   UNL     1     149.505 165.196 185.356  0.00  0.00    -0.379 OA
BRANCH 118 119
ATOM    119  C   UNL     1     149.353 165.368 183.949  0.00  0.00    +0.037 C 
ATOM    120  H   UNL     1     150.320 165.565 183.480  0.00  0.00    +0.052 HD
ATOM    121  H   UNL     1     148.886 164.492 183.490  0.00  0.00    +0.052 HD
ATOM    122  H   UNL     1     148.705 166.234 183.781  0.00  0.00    +0.052 HD
ENDBRANCH 118 119
ENDBRANCH  67 118
ENDBRANCH  64  67
ENDBRANCH  13  64
BRANCH   8 123
ATOM    123  O   UNL     1     143.003 164.616 187.782  0.00  0.00    -0.391 OA
ATOM    124  H   UNL     1     143.407 163.727 187.860  0.00  0.00    +0.210 HD
ENDBRANCH   8 123
BRANCH  15 125
ATOM    125  O   UNL     1     149.579 162.600 190.464  0.00  0.00    -0.379 OA
BRANCH 125 126
ATOM    126  C   UNL     1     148.708 161.739 191.191  0.00  0.00    +0.037 C 
ATOM    127  H   UNL     1     149.231 160.819 191.473  0.00  0.00    +0.052 HD
ATOM    128  H   UNL     1     148.399 162.257 192.103  0.00  0.00    +0.052 HD
ATOM    129  H   UNL     1     147.814 161.502 190.606  0.00  0.00    +0.052 HD
ENDBRANCH 125 126
ENDBRANCH  15 125
TORSDOF 27
ENDMDL
MODEL 4
REMARK VINA RESULT:      -5.1      2.758      7.506
REMARK  Name = Ulapualide A_conf1
REMARK  27 active torsions:
REMARK  status: ('A' for Active; 'I' for Inactive)
REMARK    1  A    between atoms: C_1  and  C_2
REMARK    2  A    between atoms: C_9  and  O_63
REMARK    3  A    between atoms: C_14  and  C_38
REMARK    4  A    between atoms: C_15  and  C_37
REMARK    5  A    between atoms: C_16  and  O_35
REMARK    6  A    between atoms: O_35  and  C_36
REMARK    7  A    between atoms: C_38  and  C_39
REMARK    8  A    between atoms: C_39  and  C_40
REMARK    9  A    between atoms: C_39  and  O_61
REMARK   10  A    between atoms: C_40  and  C_41
REMARK   11  A    between atoms: C_40  and  C_42
REMARK   12  A    between atoms: C_42  and  C_43
REMARK   13  A    between atoms: C_43  and  C_44
REMARK   14  A    between atoms: C_44  and  C_46
REMARK   15  A    between atoms: C_46  and  C_47
REMARK   16  A    between atoms: C_46  and  C_48
REMARK   17  A    between atoms: C_48  and  C_49
REMARK   18  A    between atoms: C_48  and  O_57
REMARK   19  A    between atoms: C_49  and  C_50
REMARK   20  A    between atoms: C_49  and  C_51
REMARK   21  A    between atoms: C_52  and  N_53
REMARK   22  A    between atoms: N_53  and  C_54
REMARK   23  A    between atoms: N_53  and  C_55
REMARK   24  A    between atoms: C_55  and  O_56
REMARK   25  A    between atoms: O_57  and  C_58
REMARK   26  A    between atoms: C_58  and  C_60
REMARK   27  A    between atoms: O_61  and  C_62
REMARK                            x       y       z     vdW  Elec       q    Type
REMARK                         _______ _______ _______ _____ _____    ______ ____
ROOT
ATOM      1  C   UNL     1     142.886 171.502 190.658  0.00  0.00    +0.008 C 
ATOM      2  C   UNL     1     142.977 170.234 189.784  0.00  0.00    +0.014 C 
ATOM      3  C   UNL     1     141.642 169.525 189.683  0.00  0.00    +0.134 C 
ATOM      4  O   UNL     1     140.861 169.479 190.636  0.00  0.00    -0.297 OA
ATOM      5  C   UNL     1     141.279 168.871 188.365  0.00  0.00    +0.006 C 
ATOM      6  C   UNL     1     142.257 167.798 187.900  0.00  0.00    -0.044 C 
ATOM      7  C   UNL     1     142.458 166.666 188.918  0.00  0.00    -0.026 C 
ATOM      8  C   UNL     1     143.194 165.483 188.273  0.00  0.00    +0.065 C 
ATOM      9  C   UNL     1     143.801 164.545 189.314  0.00  0.00    +0.071 C 
ATOM     10  C   UNL     1     144.880 163.738 188.642  0.00  0.00    +0.310 C 
ATOM     11  O   UNL     1     144.665 162.920 187.755  0.00  0.00    -0.251 OA
ATOM     12  O   UNL     1     146.111 164.105 189.096  0.00  0.00    -0.461 OA
ATOM     13  C   UNL     1     147.237 163.688 188.284  0.00  0.00    +0.110 C 
ATOM     14  C   UNL     1     148.530 163.797 189.137  0.00  0.00    +0.020 C 
ATOM     15  C   UNL     1     148.402 162.969 190.453  0.00  0.00    +0.068 C 
ATOM     16  C   UNL     1     149.555 163.216 191.460  0.00  0.00    -0.008 C 
ATOM     17  C   UNL     1     149.739 164.673 191.758  0.00  0.00    -0.077 C 
ATOM     18  C   UNL     1     150.895 165.348 191.637  0.00  0.00    -0.003 C 
ATOM     19  C   UNL     1     150.912 166.762 191.802  0.00  0.00    +0.220 A 
ATOM     20  N   UNL     1     149.860 167.563 191.702  0.00  0.00    -0.205 NA
ATOM     21  C   UNL     1     150.338 168.826 191.938  0.00  0.00    +0.164 A 
ATOM     22  C   UNL     1     151.685 168.774 192.169  0.00  0.00    +0.125 A 
ATOM     23  O   UNL     1     152.075 167.472 192.056  0.00  0.00    -0.443 OA
ATOM     24  C   UNL     1     149.458 170.112 191.935  0.00  0.00    +0.250 A 
ATOM     25  N   UNL     1     148.180 170.104 191.598  0.00  0.00    -0.203 NA
ATOM     26  C   UNL     1     147.780 171.405 191.760  0.00  0.00    +0.164 A 
ATOM     27  C   UNL     1     148.841 172.170 192.181  0.00  0.00    +0.125 A 
ATOM     28  O   UNL     1     149.932 171.360 192.274  0.00  0.00    -0.442 OA
ATOM     29  C   UNL     1     146.335 171.934 191.518  0.00  0.00    +0.249 A 
ATOM     30  N   UNL     1     145.340 171.176 191.091  0.00  0.00    -0.212 NA
ATOM     31  C   UNL     1     144.249 172.015 191.040  0.00  0.00    +0.083 A 
ATOM     32  C   UNL     1     144.639 173.270 191.450  0.00  0.00    +0.116 A 
ATOM     33  O   UNL     1     145.966 173.237 191.746  0.00  0.00    -0.442 OA
ATOM     34  H   UNL     1     142.374 171.256 191.597  0.00  0.00    +0.037 HD
ATOM     35  H   UNL     1     143.333 170.494 188.782  0.00  0.00    +0.035 HD
ATOM     36  H   UNL     1     143.680 169.504 190.204  0.00  0.00    +0.035 HD
ATOM     37  H   UNL     1     140.277 168.440 188.462  0.00  0.00    +0.034 HD
ATOM     38  H   UNL     1     141.210 169.664 187.612  0.00  0.00    +0.034 HD
ATOM     39  H   UNL     1     141.880 167.385 186.955  0.00  0.00    +0.027 HD
ATOM     40  H   UNL     1     143.230 168.251 187.676  0.00  0.00    +0.027 HD
ATOM     41  H   UNL     1     141.483 166.337 189.297  0.00  0.00    +0.029 HD
ATOM     42  H   UNL     1     143.036 167.055 189.764  0.00  0.00    +0.029 HD
ATOM     43  H   UNL     1     143.958 165.861 187.589  0.00  0.00    +0.060 HD
ATOM     44  H   UNL     1     143.063 163.851 189.731  0.00  0.00    +0.040 HD
ATOM     45  H   UNL     1     144.246 165.104 190.143  0.00  0.00    +0.040 HD
ATOM     46  H   UNL     1     147.099 162.635 188.008  0.00  0.00    +0.074 HD
ATOM     47  H   UNL     1     148.646 164.847 189.426  0.00  0.00    +0.036 HD
ATOM     48  H   UNL     1     147.463 163.252 190.948  0.00  0.00    +0.060 HD
ATOM     49  H   UNL     1     150.482 162.757 191.094  0.00  0.00    +0.033 HD
ATOM     50  H   UNL     1     149.332 162.697 192.400  0.00  0.00    +0.033 HD
ATOM     51  H   UNL     1     148.831 165.215 192.031  0.00  0.00    +0.057 HD
ATOM     52  H   UNL     1     151.827 164.848 191.412  0.00  0.00    +0.067 HD
ATOM     53  H   UNL     1     152.459 169.498 192.368  0.00  0.00    +0.105 HD
ATOM     54  H   UNL     1     148.982 173.211 192.427  0.00  0.00    +0.105 HD
ATOM     55  H   UNL     1     144.139 174.217 191.588  0.00  0.00    +0.105 HD
ENDROOT
BRANCH   1  56
ATOM     56  C   UNL     1     142.058 172.576 189.938  0.00  0.00    -0.056 C 
ATOM     57  H   UNL     1     141.151 172.149 189.496  0.00  0.00    +0.024 HD
ATOM     58  H   UNL     1     142.625 173.034 189.123  0.00  0.00    +0.024 HD
ATOM     59  H   UNL     1     141.751 173.371 190.628  0.00  0.00    +0.024 HD
ENDBRANCH   1  56
BRANCH  14  60
ATOM     60  C   UNL     1     149.767 163.387 188.323  0.00  0.00    -0.057 C 
ATOM     61  H   UNL     1     150.482 162.832 188.936  0.00  0.00    +0.023 HD
ATOM     62  H   UNL     1     150.279 164.252 187.895  0.00  0.00    +0.023 HD
ATOM     63  H   UNL     1     149.484 162.750 187.480  0.00  0.00    +0.023 HD
ENDBRANCH  14  60
BRANCH  13  64
ATOM     64  C   UNL     1     147.268 164.541 186.990  0.00  0.00    +0.011 C 
ATOM     65  H   UNL     1     146.245 164.556 186.603  0.00  0.00    +0.033 HD
ATOM     66  H   UNL     1     147.874 164.032 186.232  0.00  0.00    +0.033 HD
BRANCH  64  67
ATOM     67  C   UNL     1     147.747 166.007 187.141  0.00  0.00    +0.064 C 
ATOM     68  H   UNL     1     148.179 166.133 188.141  0.00  0.00    +0.060 HD
BRANCH  67  69
ATOM     69  C   UNL     1     148.857 166.344 186.093  0.00  0.00    -0.017 C 
ATOM     70  H   UNL     1     149.430 165.423 185.917  0.00  0.00    +0.032 HD
BRANCH  69  71
ATOM     71  C   UNL     1     148.275 166.796 184.747  0.00  0.00    -0.060 C 
ATOM     72  H   UNL     1     147.859 167.807 184.806  0.00  0.00    +0.023 HD
ATOM     73  H   UNL     1     147.488 166.124 184.394  0.00  0.00    +0.023 HD
ATOM     74  H   UNL     1     149.037 166.785 183.965  0.00  0.00    +0.023 HD
ENDBRANCH  69  71
BRANCH  69  75
ATOM     75  C   UNL     1     149.834 167.405 186.662  0.00  0.00    -0.041 C 
ATOM     76  H   UNL     1     149.257 168.314 186.874  0.00  0.00    +0.027 HD
ATOM     77  H   UNL     1     150.584 167.679 185.911  0.00  0.00    +0.027 HD
BRANCH  75  78
ATOM     78  C   UNL     1     150.517 166.994 187.971  0.00  0.00    +0.007 C 
ATOM     79  H   UNL     1     150.120 167.607 188.787  0.00  0.00    +0.034 HD
ATOM     80  H   UNL     1     150.285 165.948 188.201  0.00  0.00    +0.034 HD
BRANCH  78  81
ATOM     81  C   UNL     1     152.030 167.190 187.997  0.00  0.00    +0.140 C 
ATOM     82  O   UNL     1     152.594 167.842 188.878  0.00  0.00    -0.297 OA
BRANCH  81  83
ATOM     83  C   UNL     1     152.809 166.532 186.866  0.00  0.00    +0.052 C 
ATOM     84  H   UNL     1     152.297 166.755 185.923  0.00  0.00    +0.041 HD
BRANCH  83  85
ATOM     85  C   UNL     1     154.199 167.172 186.798  0.00  0.00    -0.052 C 
ATOM     86  H   UNL     1     154.201 168.045 186.141  0.00  0.00    +0.024 HD
ATOM     87  H   UNL     1     154.537 167.502 187.784  0.00  0.00    +0.024 HD
ATOM     88  H   UNL     1     154.938 166.458 186.423  0.00  0.00    +0.024 HD
ENDBRANCH  83  85
BRANCH  83  89
ATOM     89  C   UNL     1     152.910 164.997 187.036  0.00  0.00    +0.118 C 
ATOM     90  H   UNL     1     152.219 164.684 187.826  0.00  0.00    +0.075 HD
BRANCH  89  91
ATOM     91  C   UNL     1     152.552 164.189 185.754  0.00  0.00    +0.014 C 
ATOM     92  H   UNL     1     151.765 163.493 186.041  0.00  0.00    +0.038 HD
BRANCH  91  93
ATOM     93  C   UNL     1     153.740 163.348 185.275  0.00  0.00    -0.056 C 
ATOM     94  H   UNL     1     153.571 162.919 184.280  0.00  0.00    +0.024 HD
ATOM     95  H   UNL     1     153.931 162.519 185.966  0.00  0.00    +0.024 HD
ATOM     96  H   UNL     1     154.649 163.958 185.232  0.00  0.00    +0.024 HD
ENDBRANCH  91  93
BRANCH  91  97
ATOM     97  C   UNL     1     152.077 165.075 184.623  0.00  0.00    -0.064 C 
ATOM     98  C   UNL     1     151.210 164.806 183.635  0.00  0.00    -0.010 C 
ATOM     99  H   UNL     1     152.455 166.098 184.668  0.00  0.00    +0.059 HD
ATOM    100  H   UNL     1     150.927 165.648 183.004  0.00  0.00    +0.078 HD
BRANCH  98 101
ATOM    101  N   UNL     1     150.531 163.658 183.259  0.00  0.00    -0.317 N 
BRANCH 101 102
ATOM    102  C   UNL     1     151.247 162.558 182.604  0.00  0.00    +0.002 C 
ATOM    103  H   UNL     1     150.811 162.336 181.620  0.00  0.00    +0.043 HD
ATOM    104  H   UNL     1     151.186 161.641 183.203  0.00  0.00    +0.043 HD
ATOM    105  H   UNL     1     152.300 162.820 182.460  0.00  0.00    +0.043 HD
ENDBRANCH 101 102
BRANCH 101 106
ATOM    106  C   UNL     1     149.204 163.286 183.735  0.00  0.00    +0.110 C 
ATOM    107  H   UNL     1     148.572 164.132 183.993  0.00  0.00    +0.077 HD
ATOM    108  H   UNL     1     148.669 162.679 182.999  0.00  0.00    +0.077 HD
BRANCH 106 109
ATOM    109  O   UNL     1     149.387 162.529 184.915  0.00  0.00    -0.377 OA
ATOM    110  H   UNL     1     148.479 162.230 185.101  0.00  0.00    +0.211 HD
ENDBRANCH 106 109
ENDBRANCH 101 106
ENDBRANCH  98 101
ENDBRANCH  91  97
ENDBRANCH  89  91
BRANCH  89 111
ATOM    111  O   UNL     1     154.283 164.698 187.406  0.00  0.00    -0.460 OA
BRANCH 111 112
ATOM    112  C   UNL     1     154.540 164.438 188.715  0.00  0.00    +0.304 C 
ATOM    113  O   UNL     1     155.588 164.663 189.302  0.00  0.00    -0.251 OA
BRANCH 112 114
ATOM    114  C   UNL     1     153.335 163.819 189.353  0.00  0.00    +0.033 C 
ATOM    115  H   UNL     1     152.987 162.977 188.749  0.00  0.00    +0.034 HD
ATOM    116  H   UNL     1     152.548 164.569 189.464  0.00  0.00    +0.034 HD
ATOM    117  H   UNL     1     153.603 163.446 190.347  0.00  0.00    +0.034 HD
ENDBRANCH 112 114
ENDBRANCH 111 112
ENDBRANCH  89 111
ENDBRANCH  83  89
ENDBRANCH  81  83
ENDBRANCH  78  81
ENDBRANCH  75  78
ENDBRANCH  69  75
ENDBRANCH  67  69
BRANCH  67 118
ATOM    118  O   UNL     1     146.647 166.900 186.949  0.00  0.00    -0.379 OA
BRANCH 118 119
ATOM    119  C   UNL     1     146.221 167.548 188.144  0.00  0.00    +0.037 C 
ATOM    120  H   UNL     1     146.348 166.887 189.005  0.00  0.00    +0.052 HD
ATOM    121  H   UNL     1     146.769 168.482 188.306  0.00  0.00    +0.052 HD
ATOM    122  H   UNL     1     145.158 167.784 188.042  0.00  0.00    +0.052 HD
ENDBRANCH 118 119
ENDBRANCH  67 118
ENDBRANCH  64  67
ENDBRANCH  13  64
BRANCH   8 123
ATOM    123  O   UNL     1     142.238 164.761 187.491  0.00  0.00    -0.391 OA
ATOM    124  H   UNL     1     142.745 164.180 186.888  0.00  0.00    +0.210 HD
ENDBRANCH   8 123
BRANCH  15 125
ATOM    125  O   UNL     1     148.364 161.577 190.105  0.00  0.00    -0.379 OA
BRANCH 125 126
ATOM    126  C   UNL     1     149.243 160.784 190.896  0.00  0.00    +0.037 C 
ATOM    127  H   UNL     1     149.290 159.762 190.505  0.00  0.00    +0.052 HD
ATOM    128  H   UNL     1     150.242 161.223 190.841  0.00  0.00    +0.052 HD
ATOM    129  H   UNL     1     148.926 160.773 191.944  0.00  0.00    +0.052 HD
ENDBRANCH 125 126
ENDBRANCH  15 125
TORSDOF 27
ENDMDL
MODEL 5
REMARK VINA RESULT:      -5.1      2.914      8.197
REMARK  Name = Ulapualide A_conf1
REMARK  27 active torsions:
REMARK  status: ('A' for Active; 'I' for Inactive)
REMARK    1  A    between atoms: C_1  and  C_2
REMARK    2  A    between atoms: C_9  and  O_63
REMARK    3  A    between atoms: C_14  and  C_38
REMARK    4  A    between atoms: C_15  and  C_37
REMARK    5  A    between atoms: C_16  and  O_35
REMARK    6  A    between atoms: O_35  and  C_36
REMARK    7  A    between atoms: C_38  and  C_39
REMARK    8  A    between atoms: C_39  and  C_40
REMARK    9  A    between atoms: C_39  and  O_61
REMARK   10  A    between atoms: C_40  and  C_41
REMARK   11  A    between atoms: C_40  and  C_42
REMARK   12  A    between atoms: C_42  and  C_43
REMARK   13  A    between atoms: C_43  and  C_44
REMARK   14  A    between atoms: C_44  and  C_46
REMARK   15  A    between atoms: C_46  and  C_47
REMARK   16  A    between atoms: C_46  and  C_48
REMARK   17  A    between atoms: C_48  and  C_49
REMARK   18  A    between atoms: C_48  and  O_57
REMARK   19  A    between atoms: C_49  and  C_50
REMARK   20  A    between atoms: C_49  and  C_51
REMARK   21  A    between atoms: C_52  and  N_53
REMARK   22  A    between atoms: N_53  and  C_54
REMARK   23  A    between atoms: N_53  and  C_55
REMARK   24  A    between atoms: C_55  and  O_56
REMARK   25  A    between atoms: O_57  and  C_58
REMARK   26  A    between atoms: C_58  and  C_60
REMARK   27  A    between atoms: O_61  and  C_62
REMARK                            x       y       z     vdW  Elec       q    Type
REMARK                         _______ _______ _______ _____ _____    ______ ____
ROOT
ATOM      1  C   UNL     1     151.576 167.470 191.975  0.00  0.00    +0.008 C 
ATOM      2  C   UNL     1     150.414 166.482 191.748  0.00  0.00    +0.014 C 
ATOM      3  C   UNL     1     150.913 165.112 191.335  0.00  0.00    +0.134 C 
ATOM      4  O   UNL     1     151.898 164.978 190.604  0.00  0.00    -0.297 OA
ATOM      5  C   UNL     1     150.171 163.896 191.851  0.00  0.00    +0.006 C 
ATOM      6  C   UNL     1     148.699 163.840 191.460  0.00  0.00    -0.044 C 
ATOM      7  C   UNL     1     148.461 163.897 189.944  0.00  0.00    -0.026 C 
ATOM      8  C   UNL     1     147.009 163.525 189.610  0.00  0.00    +0.065 C 
ATOM      9  C   UNL     1     146.603 163.984 188.211  0.00  0.00    +0.071 C 
ATOM     10  C   UNL     1     145.100 164.037 188.154  0.00  0.00    +0.310 C 
ATOM     11  O   UNL     1     144.380 163.049 188.244  0.00  0.00    -0.251 OA
ATOM     12  O   UNL     1     144.665 165.326 188.077  0.00  0.00    -0.461 OA
ATOM     13  C   UNL     1     143.266 165.544 188.389  0.00  0.00    +0.110 C 
ATOM     14  C   UNL     1     142.848 166.937 187.844  0.00  0.00    +0.020 C 
ATOM     15  C   UNL     1     143.145 167.050 186.317  0.00  0.00    +0.068 C 
ATOM     16  C   UNL     1     142.971 168.484 185.754  0.00  0.00    -0.008 C 
ATOM     17  C   UNL     1     143.762 169.493 186.531  0.00  0.00    -0.077 C 
ATOM     18  C   UNL     1     143.259 170.611 187.084  0.00  0.00    -0.003 C 
ATOM     19  C   UNL     1     144.076 171.414 187.928  0.00  0.00    +0.220 A 
ATOM     20  N   UNL     1     145.178 171.011 188.545  0.00  0.00    -0.205 NA
ATOM     21  C   UNL     1     145.631 172.106 189.236  0.00  0.00    +0.164 A 
ATOM     22  C   UNL     1     144.785 173.161 189.036  0.00  0.00    +0.125 A 
ATOM     23  O   UNL     1     143.771 172.732 188.231  0.00  0.00    -0.443 OA
ATOM     24  C   UNL     1     146.919 172.117 190.113  0.00  0.00    +0.250 A 
ATOM     25  N   UNL     1     147.634 171.031 190.350  0.00  0.00    -0.203 NA
ATOM     26  C   UNL     1     148.678 171.475 191.119  0.00  0.00    +0.164 A 
ATOM     27  C   UNL     1     148.555 172.826 191.336  0.00  0.00    +0.125 A 
ATOM     28  O   UNL     1     147.418 173.250 190.719  0.00  0.00    -0.442 OA
ATOM     29  C   UNL     1     149.840 170.585 191.653  0.00  0.00    +0.249 A 
ATOM     30  N   UNL     1     149.918 169.282 191.444  0.00  0.00    -0.212 NA
ATOM     31  C   UNL     1     151.092 168.894 192.050  0.00  0.00    +0.083 A 
ATOM     32  C   UNL     1     151.687 170.002 192.609  0.00  0.00    +0.116 A 
ATOM     33  O   UNL     1     150.896 171.084 192.374  0.00  0.00    -0.442 OA
ATOM     34  H   UNL     1     152.262 167.422 191.120  0.00  0.00    +0.037 HD
ATOM     35  H   UNL     1     149.813 166.394 192.660  0.00  0.00    +0.035 HD
ATOM     36  H   UNL     1     149.747 166.819 190.946  0.00  0.00    +0.035 HD
ATOM     37  H   UNL     1     150.685 163.001 191.481  0.00  0.00    +0.034 HD
ATOM     38  H   UNL     1     150.269 163.889 192.941  0.00  0.00    +0.034 HD
ATOM     39  H   UNL     1     148.277 162.912 191.868  0.00  0.00    +0.027 HD
ATOM     40  H   UNL     1     148.154 164.664 191.936  0.00  0.00    +0.027 HD
ATOM     41  H   UNL     1     149.147 163.207 189.439  0.00  0.00    +0.029 HD
ATOM     42  H   UNL     1     148.682 164.911 189.593  0.00  0.00    +0.029 HD
ATOM     43  H   UNL     1     146.344 163.943 190.370  0.00  0.00    +0.060 HD
ATOM     44  H   UNL     1     146.952 163.300 187.430  0.00  0.00    +0.040 HD
ATOM     45  H   UNL     1     146.999 164.980 187.988  0.00  0.00    +0.040 HD
ATOM     46  H   UNL     1     142.670 164.782 187.872  0.00  0.00    +0.074 HD
ATOM     47  H   UNL     1     143.465 167.686 188.350  0.00  0.00    +0.036 HD
ATOM     48  H   UNL     1     144.187 166.750 186.145  0.00  0.00    +0.060 HD
ATOM     49  H   UNL     1     141.908 168.749 185.710  0.00  0.00    +0.033 HD
ATOM     50  H   UNL     1     143.313 168.507 184.711  0.00  0.00    +0.033 HD
ATOM     51  H   UNL     1     144.811 169.241 186.699  0.00  0.00    +0.057 HD
ATOM     52  H   UNL     1     142.238 170.924 186.910  0.00  0.00    +0.067 HD
ATOM     53  H   UNL     1     144.730 174.178 189.387  0.00  0.00    +0.105 HD
ATOM     54  H   UNL     1     149.129 173.570 191.868  0.00  0.00    +0.105 HD
ATOM     55  H   UNL     1     152.602 170.184 193.153  0.00  0.00    +0.105 HD
ENDROOT
BRANCH   1  56
ATOM     56  C   UNL     1     152.364 167.072 193.232  0.00  0.00    -0.056 C 
ATOM     57  H   UNL     1     151.697 166.922 194.089  0.00  0.00    +0.024 HD
ATOM     58  H   UNL     1     153.077 167.850 193.515  0.00  0.00    +0.024 HD
ATOM     59  H   UNL     1     152.920 166.141 193.075  0.00  0.00    +0.024 HD
ENDBRANCH   1  56
BRANCH  14  60
ATOM     60  C   UNL     1     141.375 167.236 188.163  0.00  0.00    -0.057 C 
ATOM     61  H   UNL     1     141.016 168.105 187.606  0.00  0.00    +0.023 HD
ATOM     62  H   UNL     1     141.217 167.420 189.229  0.00  0.00    +0.023 HD
ATOM     63  H   UNL     1     140.740 166.385 187.901  0.00  0.00    +0.023 HD
ENDBRANCH  14  60
BRANCH  13  64
ATOM     64  C   UNL     1     143.061 165.383 189.917  0.00  0.00    +0.011 C 
ATOM     65  H   UNL     1     143.486 164.411 190.187  0.00  0.00    +0.033 HD
ATOM     66  H   UNL     1     141.989 165.318 190.136  0.00  0.00    +0.033 HD
BRANCH  64  67
ATOM     67  C   UNL     1     143.712 166.461 190.820  0.00  0.00    +0.064 C 
ATOM     68  H   UNL     1     144.287 167.147 190.185  0.00  0.00    +0.060 HD
BRANCH  67  69
ATOM     69  C   UNL     1     142.624 167.298 191.568  0.00  0.00    -0.017 C 
ATOM     70  H   UNL     1     141.675 167.149 191.034  0.00  0.00    +0.032 HD
BRANCH  69  71
ATOM     71  C   UNL     1     142.422 166.835 193.017  0.00  0.00    -0.060 C 
ATOM     72  H   UNL     1     143.338 166.405 193.433  0.00  0.00    +0.023 HD
ATOM     73  H   UNL     1     141.626 166.091 193.103  0.00  0.00    +0.023 HD
ATOM     74  H   UNL     1     142.113 167.665 193.655  0.00  0.00    +0.023 HD
ENDBRANCH  69  71
BRANCH  69  75
ATOM     75  C   UNL     1     142.966 168.809 191.506  0.00  0.00    -0.041 C 
ATOM     76  H   UNL     1     143.906 168.918 190.950  0.00  0.00    +0.027 HD
ATOM     77  H   UNL     1     143.152 169.202 192.513  0.00  0.00    +0.027 HD
BRANCH  75  78
ATOM     78  C   UNL     1     141.919 169.664 190.785  0.00  0.00    +0.007 C 
ATOM     79  H   UNL     1     142.004 169.496 189.707  0.00  0.00    +0.034 HD
ATOM     80  H   UNL     1     140.912 169.354 191.088  0.00  0.00    +0.034 HD
BRANCH  78  81
ATOM     81  C   UNL     1     142.065 171.168 190.990  0.00  0.00    +0.140 C 
ATOM     82  O   UNL     1     143.045 171.664 191.551  0.00  0.00    -0.297 OA
BRANCH  81  83
ATOM     83  C   UNL     1     140.927 172.030 190.460  0.00  0.00    +0.052 C 
ATOM     84  H   UNL     1     141.326 173.026 190.238  0.00  0.00    +0.041 HD
BRANCH  83  85
ATOM     85  C   UNL     1     140.435 171.426 189.141  0.00  0.00    -0.052 C 
ATOM     86  H   UNL     1     141.143 171.616 188.330  0.00  0.00    +0.024 HD
ATOM     87  H   UNL     1     140.309 170.342 189.218  0.00  0.00    +0.024 HD
ATOM     88  H   UNL     1     139.466 171.847 188.857  0.00  0.00    +0.024 HD
ENDBRANCH  83  85
BRANCH  83  89
ATOM     89  C   UNL     1     139.768 172.165 191.477  0.00  0.00    +0.118 C 
ATOM     90  H   UNL     1     139.900 171.415 192.264  0.00  0.00    +0.075 HD
BRANCH  89  91
ATOM     91  C   UNL     1     139.686 173.558 192.167  0.00  0.00    +0.014 C 
ATOM     92  H   UNL     1     140.002 173.408 193.199  0.00  0.00    +0.038 HD
BRANCH  91  93
ATOM     93  C   UNL     1     138.243 174.073 192.213  0.00  0.00    -0.056 C 
ATOM     94  H   UNL     1     137.513 173.283 191.999  0.00  0.00    +0.024 HD
ATOM     95  H   UNL     1     138.093 174.871 191.476  0.00  0.00    +0.024 HD
ATOM     96  H   UNL     1     138.015 174.488 193.201  0.00  0.00    +0.024 HD
ENDBRANCH  91  93
BRANCH  91  97
ATOM     97  C   UNL     1     140.566 174.591 191.498  0.00  0.00    -0.064 C 
ATOM     98  C   UNL     1     141.313 175.560 192.047  0.00  0.00    -0.010 C 
ATOM     99  H   UNL     1     140.643 174.477 190.415  0.00  0.00    +0.059 HD
ATOM    100  H   UNL     1     141.965 176.107 191.366  0.00  0.00    +0.078 HD
BRANCH  98 101
ATOM    101  N   UNL     1     141.482 176.001 193.350  0.00  0.00    -0.317 N 
BRANCH 101 102
ATOM    102  C   UNL     1     140.411 176.747 194.021  0.00  0.00    +0.002 C 
ATOM    103  H   UNL     1     140.823 177.446 194.761  0.00  0.00    +0.043 HD
ATOM    104  H   UNL     1     139.736 176.066 194.554  0.00  0.00    +0.043 HD
ATOM    105  H   UNL     1     139.832 177.323 193.292  0.00  0.00    +0.043 HD
ENDBRANCH 101 102
BRANCH 101 106
ATOM    106  C   UNL     1     142.516 175.525 194.259  0.00  0.00    +0.110 C 
ATOM    107  H   UNL     1     142.505 176.003 195.235  0.00  0.00    +0.077 HD
ATOM    108  H   UNL     1     142.449 174.444 194.414  0.00  0.00    +0.077 HD
BRANCH 106 109
ATOM    109  O   UNL     1     143.761 175.830 193.662  0.00  0.00    -0.377 OA
ATOM    110  H   UNL     1     144.167 174.947 193.589  0.00  0.00    +0.211 HD
ENDBRANCH 106 109
ENDBRANCH 101 106
ENDBRANCH  98 101
ENDBRANCH  91  97
ENDBRANCH  89  91
BRANCH  89 111
ATOM    111  O   UNL     1     138.532 171.934 190.749  0.00  0.00    -0.460 OA
BRANCH 111 112
ATOM    112  C   UNL     1     137.837 170.799 191.033  0.00  0.00    +0.304 C 
ATOM    113  O   UNL     1     138.315 169.692 191.227  0.00  0.00    -0.251 OA
BRANCH 112 114
ATOM    114  C   UNL     1     136.371 171.101 191.068  0.00  0.00    +0.033 C 
ATOM    115  H   UNL     1     135.800 170.170 191.026  0.00  0.00    +0.034 HD
ATOM    116  H   UNL     1     136.107 171.756 190.233  0.00  0.00    +0.034 HD
ATOM    117  H   UNL     1     136.130 171.617 192.004  0.00  0.00    +0.034 HD
ENDBRANCH 112 114
ENDBRANCH 111 112
ENDBRANCH  89 111
ENDBRANCH  83  89
ENDBRANCH  81  83
ENDBRANCH  78  81
ENDBRANCH  75  78
ENDBRANCH  69  75
ENDBRANCH  67  69
BRANCH  67 118
ATOM    118  O   UNL     1     144.559 165.838 191.788  0.00  0.00    -0.379 OA
BRANCH 118 119
ATOM    119  C   UNL     1     145.886 166.357 191.807  0.00  0.00    +0.037 C 
ATOM    120  H   UNL     1     145.877 167.421 192.056  0.00  0.00    +0.052 HD
ATOM    121  H   UNL     1     146.515 165.812 192.516  0.00  0.00    +0.052 HD
ATOM    122  H   UNL     1     146.311 166.240 190.805  0.00  0.00    +0.052 HD
ENDBRANCH 118 119
ENDBRANCH  67 118
ENDBRANCH  64  67
ENDBRANCH  13  64
BRANCH   8 123
ATOM    123  O   UNL     1     146.905 162.101 189.686  0.00  0.00    -0.391 OA
ATOM    124  H   UNL     1     146.059 161.901 190.137  0.00  0.00    +0.210 HD
ENDBRANCH   8 123
BRANCH  15 125
ATOM    125  O   UNL     1     142.264 166.155 185.621  0.00  0.00    -0.379 OA
BRANCH 125 126
ATOM    126  C   UNL     1     142.945 165.323 184.687  0.00  0.00    +0.037 C 
ATOM    127  H   UNL     1     143.290 164.406 185.176  0.00  0.00    +0.052 HD
ATOM    128  H   UNL     1     142.242 165.051 183.896  0.00  0.00    +0.052 HD
ATOM    129  H   UNL     1     143.790 165.852 184.234  0.00  0.00    +0.052 HD
ENDBRANCH 125 126
ENDBRANCH  15 125
TORSDOF 27
ENDMDL
MODEL 6
REMARK VINA RESULT:      -5.0      2.881      7.977
REMARK  Name = Ulapualide A_conf1
REMARK  27 active torsions:
REMARK  status: ('A' for Active; 'I' for Inactive)
REMARK    1  A    between atoms: C_1  and  C_2
REMARK    2  A    between atoms: C_9  and  O_63
REMARK    3  A    between atoms: C_14  and  C_38
REMARK    4  A    between atoms: C_15  and  C_37
REMARK    5  A    between atoms: C_16  and  O_35
REMARK    6  A    between atoms: O_35  and  C_36
REMARK    7  A    between atoms: C_38  and  C_39
REMARK    8  A    between atoms: C_39  and  C_40
REMARK    9  A    between atoms: C_39  and  O_61
REMARK   10  A    between atoms: C_40  and  C_41
REMARK   11  A    between atoms: C_40  and  C_42
REMARK   12  A    between atoms: C_42  and  C_43
REMARK   13  A    between atoms: C_43  and  C_44
REMARK   14  A    between atoms: C_44  and  C_46
REMARK   15  A    between atoms: C_46  and  C_47
REMARK   16  A    between atoms: C_46  and  C_48
REMARK   17  A    between atoms: C_48  and  C_49
REMARK   18  A    between atoms: C_48  and  O_57
REMARK   19  A    between atoms: C_49  and  C_50
REMARK   20  A    between atoms: C_49  and  C_51
REMARK   21  A    between atoms: C_52  and  N_53
REMARK   22  A    between atoms: N_53  and  C_54
REMARK   23  A    between atoms: N_53  and  C_55
REMARK   24  A    between atoms: C_55  and  O_56
REMARK   25  A    between atoms: O_57  and  C_58
REMARK   26  A    between atoms: C_58  and  C_60
REMARK   27  A    between atoms: O_61  and  C_62
REMARK                            x       y       z     vdW  Elec       q    Type
REMARK                         _______ _______ _______ _____ _____    ______ ____
ROOT
ATOM      1  C   UNL     1     143.455 171.647 190.802  0.00  0.00    +0.008 C 
ATOM      2  C   UNL     1     143.458 170.396 189.900  0.00  0.00    +0.014 C 
ATOM      3  C   UNL     1     142.079 169.778 189.791  0.00  0.00    +0.134 C 
ATOM      4  O   UNL     1     141.302 169.761 190.748  0.00  0.00    -0.297 OA
ATOM      5  C   UNL     1     141.667 169.179 188.461  0.00  0.00    +0.006 C 
ATOM      6  C   UNL     1     142.570 168.055 187.966  0.00  0.00    -0.044 C 
ATOM      7  C   UNL     1     142.703 166.890 188.958  0.00  0.00    -0.026 C 
ATOM      8  C   UNL     1     143.356 165.676 188.281  0.00  0.00    +0.065 C 
ATOM      9  C   UNL     1     143.907 164.677 189.297  0.00  0.00    +0.071 C 
ATOM     10  C   UNL     1     144.927 163.817 188.601  0.00  0.00    +0.310 C 
ATOM     11  O   UNL     1     144.655 163.035 187.697  0.00  0.00    -0.251 OA
ATOM     12  O   UNL     1     146.182 164.093 189.054  0.00  0.00    -0.461 OA
ATOM     13  C   UNL     1     147.274 163.622 188.226  0.00  0.00    +0.110 C 
ATOM     14  C   UNL     1     148.576 163.628 189.073  0.00  0.00    +0.020 C 
ATOM     15  C   UNL     1     148.401 162.780 190.371  0.00  0.00    +0.068 C 
ATOM     16  C   UNL     1     149.573 162.928 191.375  0.00  0.00    -0.008 C 
ATOM     17  C   UNL     1     149.852 164.363 191.704  0.00  0.00    -0.077 C 
ATOM     18  C   UNL     1     151.050 164.964 191.591  0.00  0.00    -0.003 C 
ATOM     19  C   UNL     1     151.160 166.370 191.788  0.00  0.00    +0.220 A 
ATOM     20  N   UNL     1     150.162 167.239 191.712  0.00  0.00    -0.205 NA
ATOM     21  C   UNL     1     150.723 168.463 191.973  0.00  0.00    +0.164 A 
ATOM     22  C   UNL     1     152.064 168.319 192.194  0.00  0.00    +0.125 A 
ATOM     23  O   UNL     1     152.368 166.996 192.050  0.00  0.00    -0.443 OA
ATOM     24  C   UNL     1     149.928 169.803 192.005  0.00  0.00    +0.250 A 
ATOM     25  N   UNL     1     148.650 169.886 191.676  0.00  0.00    -0.203 NA
ATOM     26  C   UNL     1     148.337 171.207 191.869  0.00  0.00    +0.164 A 
ATOM     27  C   UNL     1     149.448 171.891 192.301  0.00  0.00    +0.125 A 
ATOM     28  O   UNL     1     150.484 171.010 192.369  0.00  0.00    -0.442 OA
ATOM     29  C   UNL     1     146.929 171.834 191.648  0.00  0.00    +0.249 A 
ATOM     30  N   UNL     1     145.884 171.153 191.211  0.00  0.00    -0.212 NA
ATOM     31  C   UNL     1     144.850 172.061 191.187  0.00  0.00    +0.083 A 
ATOM     32  C   UNL     1     145.323 173.279 191.622  0.00  0.00    +0.116 A 
ATOM     33  O   UNL     1     146.647 173.153 191.908  0.00  0.00    -0.442 OA
ATOM     34  H   UNL     1     142.932 171.414 191.739  0.00  0.00    +0.037 HD
ATOM     35  H   UNL     1     143.824 170.655 188.901  0.00  0.00    +0.035 HD
ATOM     36  H   UNL     1     144.114 169.612 190.298  0.00  0.00    +0.035 HD
ATOM     37  H   UNL     1     140.640 168.811 188.556  0.00  0.00    +0.034 HD
ATOM     38  H   UNL     1     141.646 169.991 187.727  0.00  0.00    +0.034 HD
ATOM     39  H   UNL     1     142.163 167.689 187.015  0.00  0.00    +0.027 HD
ATOM     40  H   UNL     1     143.570 168.449 187.746  0.00  0.00    +0.027 HD
ATOM     41  H   UNL     1     141.711 166.616 189.336  0.00  0.00    +0.029 HD
ATOM     42  H   UNL     1     143.309 167.221 189.808  0.00  0.00    +0.029 HD
ATOM     43  H   UNL     1     144.140 166.019 187.601  0.00  0.00    +0.060 HD
ATOM     44  H   UNL     1     143.127 164.023 189.704  0.00  0.00    +0.040 HD
ATOM     45  H   UNL     1     144.391 165.187 190.136  0.00  0.00    +0.040 HD
ATOM     46  H   UNL     1     147.066 162.587 187.927  0.00  0.00    +0.074 HD
ATOM     47  H   UNL     1     148.761 164.661 189.385  0.00  0.00    +0.036 HD
ATOM     48  H   UNL     1     147.485 163.112 190.878  0.00  0.00    +0.060 HD
ATOM     49  H   UNL     1     150.466 162.419 190.994  0.00  0.00    +0.033 HD
ATOM     50  H   UNL     1     149.321 162.404 192.305  0.00  0.00    +0.033 HD
ATOM     51  H   UNL     1     148.983 164.957 191.996  0.00  0.00    +0.057 HD
ATOM     52  H   UNL     1     151.946 164.410 191.349  0.00  0.00    +0.067 HD
ATOM     53  H   UNL     1     152.884 168.986 192.404  0.00  0.00    +0.105 HD
ATOM     54  H   UNL     1     149.657 172.915 192.569  0.00  0.00    +0.105 HD
ATOM     55  H   UNL     1     144.886 174.253 191.784  0.00  0.00    +0.105 HD
ENDROOT
BRANCH   1  56
ATOM     56  C   UNL     1     142.694 172.788 190.112  0.00  0.00    -0.056 C 
ATOM     57  H   UNL     1     142.572 173.647 190.781  0.00  0.00    +0.024 HD
ATOM     58  H   UNL     1     141.692 172.473 189.811  0.00  0.00    +0.024 HD
ATOM     59  H   UNL     1     143.224 173.136 189.217  0.00  0.00    +0.024 HD
ENDBRANCH   1  56
BRANCH  14  60
ATOM     60  C   UNL     1     149.779 163.156 188.242  0.00  0.00    -0.057 C 
ATOM     61  H   UNL     1     149.879 162.068 188.267  0.00  0.00    +0.023 HD
ATOM     62  H   UNL     1     150.716 163.597 188.592  0.00  0.00    +0.023 HD
ATOM     63  H   UNL     1     149.671 163.457 187.196  0.00  0.00    +0.023 HD
ENDBRANCH  14  60
BRANCH  13  64
ATOM     64  C   UNL     1     147.354 164.501 186.952  0.00  0.00    +0.011 C 
ATOM     65  H   UNL     1     146.346 164.524 186.527  0.00  0.00    +0.033 HD
ATOM     66  H   UNL     1     147.987 164.005 186.207  0.00  0.00    +0.033 HD
BRANCH  64  67
ATOM     67  C   UNL     1     147.829 165.963 187.148  0.00  0.00    +0.064 C 
ATOM     68  H   UNL     1     148.290 166.049 188.140  0.00  0.00    +0.060 HD
BRANCH  67  69
ATOM     69  C   UNL     1     148.904 166.351 186.082  0.00  0.00    -0.017 C 
ATOM     70  H   UNL     1     149.404 165.423 185.771  0.00  0.00    +0.032 HD
BRANCH  69  71
ATOM     71  C   UNL     1     148.286 166.990 184.832  0.00  0.00    -0.060 C 
ATOM     72  H   UNL     1     147.480 166.373 184.421  0.00  0.00    +0.023 HD
ATOM     73  H   UNL     1     149.027 167.151 184.044  0.00  0.00    +0.023 HD
ATOM     74  H   UNL     1     147.880 167.979 185.055  0.00  0.00    +0.023 HD
ENDBRANCH  69  71
BRANCH  69  75
ATOM     75  C   UNL     1     149.978 167.277 186.710  0.00  0.00    -0.041 C 
ATOM     76  H   UNL     1     149.463 168.152 187.129  0.00  0.00    +0.027 HD
ATOM     77  H   UNL     1     150.658 167.655 185.938  0.00  0.00    +0.027 HD
BRANCH  75  78
ATOM     78  C   UNL     1     150.773 166.636 187.853  0.00  0.00    +0.007 C 
ATOM     79  H   UNL     1     150.319 166.925 188.807  0.00  0.00    +0.034 HD
ATOM     80  H   UNL     1     150.718 165.544 187.779  0.00  0.00    +0.034 HD
BRANCH  78  81
ATOM     81  C   UNL     1     152.235 167.062 187.936  0.00  0.00    +0.140 C 
ATOM     82  O   UNL     1     152.641 167.858 188.785  0.00  0.00    -0.297 OA
BRANCH  81  83
ATOM     83  C   UNL     1     153.171 166.445 186.906  0.00  0.00    +0.052 C 
ATOM     84  H   UNL     1     152.607 166.290 185.980  0.00  0.00    +0.041 HD
BRANCH  83  85
ATOM     85  C   UNL     1     154.288 167.449 186.602  0.00  0.00    -0.052 C 
ATOM     86  H   UNL     1     154.493 167.500 185.530  0.00  0.00    +0.024 HD
ATOM     87  H   UNL     1     154.022 168.456 186.935  0.00  0.00    +0.024 HD
ATOM     88  H   UNL     1     155.212 167.170 187.117  0.00  0.00    +0.024 HD
ENDBRANCH  83  85
BRANCH  83  89
ATOM     89  C   UNL     1     153.752 165.090 187.375  0.00  0.00    +0.118 C 
ATOM     90  H   UNL     1     154.757 164.971 186.954  0.00  0.00    +0.075 HD
BRANCH  89  91
ATOM     91  C   UNL     1     153.874 164.950 188.921  0.00  0.00    +0.014 C 
ATOM     92  H   UNL     1     153.166 165.657 189.350  0.00  0.00    +0.038 HD
BRANCH  91  93
ATOM     93  C   UNL     1     155.267 165.361 189.410  0.00  0.00    -0.056 C 
ATOM     94  H   UNL     1     155.352 165.322 190.503  0.00  0.00    +0.024 HD
ATOM     95  H   UNL     1     155.502 166.385 189.096  0.00  0.00    +0.024 HD
ATOM     96  H   UNL     1     156.033 164.701 188.987  0.00  0.00    +0.024 HD
ENDBRANCH  91  93
BRANCH  91  97
ATOM     97  C   UNL     1     153.568 163.549 189.404  0.00  0.00    -0.064 C 
ATOM     98  C   UNL     1     154.386 162.494 189.536  0.00  0.00    -0.010 C 
ATOM     99  H   UNL     1     152.542 163.411 189.751  0.00  0.00    +0.059 HD
ATOM    100  H   UNL     1     153.961 161.617 190.026  0.00  0.00    +0.078 HD
BRANCH  98 101
ATOM    101  N   UNL     1     155.719 162.285 189.221  0.00  0.00    -0.317 N 
BRANCH 101 102
ATOM    102  C   UNL     1     156.745 162.360 190.266  0.00  0.00    +0.002 C 
ATOM    103  H   UNL     1     157.752 162.278 189.836  0.00  0.00    +0.043 HD
ATOM    104  H   UNL     1     156.629 161.541 190.987  0.00  0.00    +0.043 HD
ATOM    105  H   UNL     1     156.678 163.315 190.799  0.00  0.00    +0.043 HD
ENDBRANCH 101 102
BRANCH 101 106
ATOM    106  C   UNL     1     156.193 161.676 187.984  0.00  0.00    +0.110 C 
ATOM    107  H   UNL     1     157.184 162.003 187.679  0.00  0.00    +0.077 HD
ATOM    108  H   UNL     1     156.205 160.585 188.052  0.00  0.00    +0.077 HD
BRANCH 106 109
ATOM    109  O   UNL     1     155.295 162.066 186.963  0.00  0.00    -0.377 OA
ATOM    110  H   UNL     1     155.310 161.287 186.379  0.00  0.00    +0.211 HD
ENDBRANCH 106 109
ENDBRANCH 101 106
ENDBRANCH  98 101
ENDBRANCH  91  97
ENDBRANCH  89  91
BRANCH  89 111
ATOM    111  O   UNL     1     152.863 164.050 186.884  0.00  0.00    -0.460 OA
BRANCH 111 112
ATOM    112  C   UNL     1     152.845 163.819 185.544  0.00  0.00    +0.304 C 
ATOM    113  O   UNL     1     153.810 163.550 184.846  0.00  0.00    -0.251 OA
BRANCH 112 114
ATOM    114  C   UNL     1     151.444 163.948 185.030  0.00  0.00    +0.033 C 
ATOM    115  H   UNL     1     151.206 165.002 184.866  0.00  0.00    +0.034 HD
ATOM    116  H   UNL     1     150.746 163.498 185.740  0.00  0.00    +0.034 HD
ATOM    117  H   UNL     1     151.359 163.419 184.075  0.00  0.00    +0.034 HD
ENDBRANCH 112 114
ENDBRANCH 111 112
ENDBRANCH  89 111
ENDBRANCH  83  89
ENDBRANCH  81  83
ENDBRANCH  78  81
ENDBRANCH  75  78
ENDBRANCH  69  75
ENDBRANCH  67  69
BRANCH  67 118
ATOM    118  O   UNL     1     146.718 166.854 187.027  0.00  0.00    -0.379 OA
BRANCH 118 119
ATOM    119  C   UNL     1     146.449 167.597 188.214  0.00  0.00    +0.037 C 
ATOM    120  H   UNL     1     147.031 167.205 189.052  0.00  0.00    +0.052 HD
ATOM    121  H   UNL     1     146.664 168.660 188.074  0.00  0.00    +0.052 HD
ATOM    122  H   UNL     1     145.385 167.487 188.449  0.00  0.00    +0.052 HD
ENDBRANCH 118 119
ENDBRANCH  67 118
ENDBRANCH  64  67
ENDBRANCH  13  64
BRANCH   8 123
ATOM    123  O   UNL     1     142.352 165.036 187.490  0.00  0.00    -0.391 OA
ATOM    124  H   UNL     1     142.029 165.701 186.848  0.00  0.00    +0.210 HD
ENDBRANCH   8 123
BRANCH  15 125
ATOM    125  O   UNL     1     148.270 161.401 189.992  0.00  0.00    -0.379 OA
BRANCH 125 126
ATOM    126  C   UNL     1     149.105 160.536 190.755  0.00  0.00    +0.037 C 
ATOM    127  H   UNL     1     149.997 161.072 191.097  0.00  0.00    +0.052 HD
ATOM    128  H   UNL     1     148.542 160.204 191.631  0.00  0.00    +0.052 HD
ATOM    129  H   UNL     1     149.394 159.655 190.173  0.00  0.00    +0.052 HD
ENDBRANCH 125 126
ENDBRANCH  15 125
TORSDOF 27
ENDMDL
MODEL 7
REMARK VINA RESULT:      -5.0      2.039      6.160
REMARK  Name = Ulapualide A_conf1
REMARK  27 active torsions:
REMARK  status: ('A' for Active; 'I' for Inactive)
REMARK    1  A    between atoms: C_1  and  C_2
REMARK    2  A    between atoms: C_9  and  O_63
REMARK    3  A    between atoms: C_14  and  C_38
REMARK    4  A    between atoms: C_15  and  C_37
REMARK    5  A    between atoms: C_16  and  O_35
REMARK    6  A    between atoms: O_35  and  C_36
REMARK    7  A    between atoms: C_38  and  C_39
REMARK    8  A    between atoms: C_39  and  C_40
REMARK    9  A    between atoms: C_39  and  O_61
REMARK   10  A    between atoms: C_40  and  C_41
REMARK   11  A    between atoms: C_40  and  C_42
REMARK   12  A    between atoms: C_42  and  C_43
REMARK   13  A    between atoms: C_43  and  C_44
REMARK   14  A    between atoms: C_44  and  C_46
REMARK   15  A    between atoms: C_46  and  C_47
REMARK   16  A    between atoms: C_46  and  C_48
REMARK   17  A    between atoms: C_48  and  C_49
REMARK   18  A    between atoms: C_48  and  O_57
REMARK   19  A    between atoms: C_49  and  C_50
REMARK   20  A    between atoms: C_49  and  C_51
REMARK   21  A    between atoms: C_52  and  N_53
REMARK   22  A    between atoms: N_53  and  C_54
REMARK   23  A    between atoms: N_53  and  C_55
REMARK   24  A    between atoms: C_55  and  O_56
REMARK   25  A    between atoms: O_57  and  C_58
REMARK   26  A    between atoms: C_58  and  C_60
REMARK   27  A    between atoms: O_61  and  C_62
REMARK                            x       y       z     vdW  Elec       q    Type
REMARK                         _______ _______ _______ _____ _____    ______ ____
ROOT
ATOM      1  C   UNL     1     142.570 171.402 190.746  0.00  0.00    +0.008 C 
ATOM      2  C   UNL     1     142.882 170.134 189.924  0.00  0.00    +0.014 C 
ATOM      3  C   UNL     1     141.691 169.200 189.859  0.00  0.00    +0.134 C 
ATOM      4  O   UNL     1     140.929 169.057 190.818  0.00  0.00    -0.297 OA
ATOM      5  C   UNL     1     141.450 168.439 188.571  0.00  0.00    +0.006 C 
ATOM      6  C   UNL     1     142.601 167.534 188.145  0.00  0.00    -0.044 C 
ATOM      7  C   UNL     1     142.995 166.498 189.208  0.00  0.00    -0.026 C 
ATOM      8  C   UNL     1     143.927 165.435 188.607  0.00  0.00    +0.065 C 
ATOM      9  C   UNL     1     144.687 164.661 189.682  0.00  0.00    +0.071 C 
ATOM     10  C   UNL     1     145.891 164.028 189.039  0.00  0.00    +0.310 C 
ATOM     11  O   UNL     1     145.824 163.149 188.186  0.00  0.00    -0.251 OA
ATOM     12  O   UNL     1     147.039 164.623 189.470  0.00  0.00    -0.461 OA
ATOM     13  C   UNL     1     148.222 164.375 188.670  0.00  0.00    +0.110 C 
ATOM     14  C   UNL     1     149.474 164.744 189.510  0.00  0.00    +0.020 C 
ATOM     15  C   UNL     1     149.491 163.961 190.859  0.00  0.00    +0.068 C 
ATOM     16  C   UNL     1     150.581 164.446 191.849  0.00  0.00    -0.008 C 
ATOM     17  C   UNL     1     150.507 165.925 192.086  0.00  0.00    -0.077 C 
ATOM     18  C   UNL     1     151.528 166.785 191.931  0.00  0.00    -0.003 C 
ATOM     19  C   UNL     1     151.298 168.186 192.038  0.00  0.00    +0.220 A 
ATOM     20  N   UNL     1     150.123 168.786 191.911  0.00  0.00    -0.205 NA
ATOM     21  C   UNL     1     150.372 170.122 192.093  0.00  0.00    +0.164 A 
ATOM     22  C   UNL     1     151.707 170.316 192.318  0.00  0.00    +0.125 A 
ATOM     23  O   UNL     1     152.318 169.098 192.256  0.00  0.00    -0.443 OA
ATOM     24  C   UNL     1     149.281 171.233 192.042  0.00  0.00    +0.250 A 
ATOM     25  N   UNL     1     148.024 170.989 191.713  0.00  0.00    -0.203 NA
ATOM     26  C   UNL     1     147.403 172.206 191.823  0.00  0.00    +0.164 A 
ATOM     27  C   UNL     1     148.314 173.160 192.207  0.00  0.00    +0.125 A 
ATOM     28  O   UNL     1     149.529 172.558 192.327  0.00  0.00    -0.442 OA
ATOM     29  C   UNL     1     145.889 172.464 191.568  0.00  0.00    +0.249 A 
ATOM     30  N   UNL     1     145.042 171.527 191.178  0.00  0.00    -0.212 NA
ATOM     31  C   UNL     1     143.821 172.160 191.099  0.00  0.00    +0.083 A 
ATOM     32  C   UNL     1     143.986 173.480 191.455  0.00  0.00    +0.116 A 
ATOM     33  O   UNL     1     145.298 173.691 191.745  0.00  0.00    -0.442 OA
ATOM     34  H   UNL     1     142.107 171.109 191.697  0.00  0.00    +0.037 HD
ATOM     35  H   UNL     1     143.188 170.410 188.910  0.00  0.00    +0.035 HD
ATOM     36  H   UNL     1     143.700 169.556 190.369  0.00  0.00    +0.035 HD
ATOM     37  H   UNL     1     140.538 167.843 188.692  0.00  0.00    +0.034 HD
ATOM     38  H   UNL     1     141.245 169.175 187.787  0.00  0.00    +0.034 HD
ATOM     39  H   UNL     1     142.304 167.023 187.220  0.00  0.00    +0.027 HD
ATOM     40  H   UNL     1     143.480 168.140 187.897  0.00  0.00    +0.027 HD
ATOM     41  H   UNL     1     142.092 166.019 189.605  0.00  0.00    +0.029 HD
ATOM     42  H   UNL     1     143.494 167.016 190.033  0.00  0.00    +0.029 HD
ATOM     43  H   UNL     1     144.614 165.912 187.904  0.00  0.00    +0.060 HD
ATOM     44  H   UNL     1     144.081 163.867 190.132  0.00  0.00    +0.040 HD
ATOM     45  H   UNL     1     145.026 165.324 190.485  0.00  0.00    +0.040 HD
ATOM     46  H   UNL     1     148.270 163.304 188.437  0.00  0.00    +0.074 HD
ATOM     47  H   UNL     1     149.404 165.809 189.756  0.00  0.00    +0.036 HD
ATOM     48  H   UNL     1     148.516 164.096 191.348  0.00  0.00    +0.060 HD
ATOM     49  H   UNL     1     151.574 164.142 191.497  0.00  0.00    +0.033 HD
ATOM     50  H   UNL     1     150.450 163.936 192.811  0.00  0.00    +0.033 HD
ATOM     51  H   UNL     1     149.518 166.311 192.342  0.00  0.00    +0.057 HD
ATOM     52  H   UNL     1     152.534 166.447 191.721  0.00  0.00    +0.067 HD
ATOM     53  H   UNL     1     152.342 171.171 192.483  0.00  0.00    +0.105 HD
ATOM     54  H   UNL     1     148.270 174.220 192.410  0.00  0.00    +0.105 HD
ATOM     55  H   UNL     1     143.327 174.330 191.557  0.00  0.00    +0.105 HD
ENDROOT
BRANCH   1  56
ATOM     56  C   UNL     1     141.568 172.284 189.987  0.00  0.00    -0.056 C 
ATOM     57  H   UNL     1     140.618 172.362 190.528  0.00  0.00    +0.024 HD
ATOM     58  H   UNL     1     141.341 171.869 189.002  0.00  0.00    +0.024 HD
ATOM     59  H   UNL     1     141.957 173.299 189.848  0.00  0.00    +0.024 HD
ENDBRANCH   1  56
BRANCH  14  60
ATOM     60  C   UNL     1     150.765 164.523 188.707  0.00  0.00    -0.057 C 
ATOM     61  H   UNL     1     151.615 164.321 189.365  0.00  0.00    +0.023 HD
ATOM     62  H   UNL     1     151.010 165.385 188.081  0.00  0.00    +0.023 HD
ATOM     63  H   UNL     1     150.659 163.671 188.028  0.00  0.00    +0.023 HD
ENDBRANCH  14  60
BRANCH  13  64
ATOM     64  C   UNL     1     148.105 165.167 187.342  0.00  0.00    +0.011 C 
ATOM     65  H   UNL     1     147.132 164.912 186.913  0.00  0.00    +0.033 HD
ATOM     66  H   UNL     1     148.856 164.801 186.633  0.00  0.00    +0.033 HD
BRANCH  64  67
ATOM     67  C   UNL     1     148.197 166.711 187.447  0.00  0.00    +0.064 C 
ATOM     68  H   UNL     1     148.900 166.965 188.249  0.00  0.00    +0.060 HD
BRANCH  67  69
ATOM     69  C   UNL     1     148.738 167.332 186.118  0.00  0.00    -0.017 C 
ATOM     70  H   UNL     1     149.821 167.148 186.091  0.00  0.00    +0.032 HD
BRANCH  69  71
ATOM     71  C   UNL     1     148.122 166.680 184.873  0.00  0.00    -0.060 C 
ATOM     72  H   UNL     1     147.474 165.838 185.138  0.00  0.00    +0.023 HD
ATOM     73  H   UNL     1     148.885 166.318 184.180  0.00  0.00    +0.023 HD
ATOM     74  H   UNL     1     147.531 167.400 184.304  0.00  0.00    +0.023 HD
ENDBRANCH  69  71
BRANCH  69  75
ATOM     75  C   UNL     1     148.520 168.866 186.111  0.00  0.00    -0.041 C 
ATOM     76  H   UNL     1     149.473 169.339 185.839  0.00  0.00    +0.027 HD
ATOM     77  H   UNL     1     148.270 169.224 187.117  0.00  0.00    +0.027 HD
BRANCH  75  78
ATOM     78  C   UNL     1     147.476 169.350 185.098  0.00  0.00    +0.007 C 
ATOM     79  H   UNL     1     147.983 169.614 184.164  0.00  0.00    +0.034 HD
ATOM     80  H   UNL     1     146.772 168.542 184.874  0.00  0.00    +0.034 HD
BRANCH  78  81
ATOM     81  C   UNL     1     146.698 170.592 185.521  0.00  0.00    +0.140 C 
ATOM     82  O   UNL     1     146.865 171.688 184.982  0.00  0.00    -0.297 OA
BRANCH  81  83
ATOM     83  C   UNL     1     145.697 170.402 186.653  0.00  0.00    +0.052 C 
ATOM     84  H   UNL     1     145.969 169.493 187.201  0.00  0.00    +0.041 HD
BRANCH  83  85
ATOM     85  C   UNL     1     145.830 171.581 187.621  0.00  0.00    -0.052 C 
ATOM     86  H   UNL     1     145.112 172.370 187.386  0.00  0.00    +0.024 HD
ATOM     87  H   UNL     1     145.652 171.273 188.655  0.00  0.00    +0.024 HD
ATOM     88  H   UNL     1     146.837 172.008 187.579  0.00  0.00    +0.024 HD
ENDBRANCH  83  85
BRANCH  83  89
ATOM     89  C   UNL     1     144.245 170.265 186.137  0.00  0.00    +0.118 C 
ATOM     90  H   UNL     1     143.700 169.578 186.793  0.00  0.00    +0.075 HD
BRANCH  89  91
ATOM     91  C   UNL     1     143.452 171.605 186.103  0.00  0.00    +0.014 C 
ATOM     92  H   UNL     1     143.876 172.232 186.886  0.00  0.00    +0.038 HD
BRANCH  91  93
ATOM     93  C   UNL     1     141.976 171.388 186.453  0.00  0.00    -0.056 C 
ATOM     94  H   UNL     1     141.778 171.525 187.524  0.00  0.00    +0.024 HD
ATOM     95  H   UNL     1     141.658 170.374 186.184  0.00  0.00    +0.024 HD
ATOM     96  H   UNL     1     141.343 172.091 185.899  0.00  0.00    +0.024 HD
ENDBRANCH  91  93
BRANCH  91  97
ATOM     97  C   UNL     1     143.552 172.305 184.765  0.00  0.00    -0.064 C 
ATOM     98  C   UNL     1     143.990 173.540 184.479  0.00  0.00    -0.010 C 
ATOM     99  H   UNL     1     143.285 171.677 183.912  0.00  0.00    +0.059 HD
ATOM    100  H   UNL     1     144.087 173.780 183.420  0.00  0.00    +0.078 HD
BRANCH  98 101
ATOM    101  N   UNL     1     144.412 174.600 185.265  0.00  0.00    -0.317 N 
BRANCH 101 102
ATOM    102  C   UNL     1     143.457 175.302 186.130  0.00  0.00    +0.002 C 
ATOM    103  H   UNL     1     143.972 176.021 186.782  0.00  0.00    +0.043 HD
ATOM    104  H   UNL     1     142.925 174.596 186.779  0.00  0.00    +0.043 HD
ATOM    105  H   UNL     1     142.727 175.850 185.527  0.00  0.00    +0.043 HD
ENDBRANCH 101 102
BRANCH 101 106
ATOM    106  C   UNL     1     145.804 174.905 185.568  0.00  0.00    +0.110 C 
ATOM    107  H   UNL     1     146.013 175.967 185.676  0.00  0.00    +0.077 HD
ATOM    108  H   UNL     1     146.137 174.403 186.481  0.00  0.00    +0.077 HD
BRANCH 106 109
ATOM    109  O   UNL     1     146.574 174.440 184.477  0.00  0.00    -0.377 OA
ATOM    110  H   UNL     1     146.816 173.545 184.774  0.00  0.00    +0.211 HD
ENDBRANCH 106 109
ENDBRANCH 101 106
ENDBRANCH  98 101
ENDBRANCH  91  97
ENDBRANCH  89  91
BRANCH  89 111
ATOM    111  O   UNL     1     144.319 169.735 184.786  0.00  0.00    -0.460 OA
BRANCH 111 112
ATOM    112  C   UNL     1     143.599 168.616 184.508  0.00  0.00    +0.304 C 
ATOM    113  O   UNL     1     142.475 168.582 184.030  0.00  0.00    -0.251 OA
BRANCH 112 114
ATOM    114  C   UNL     1     144.390 167.401 184.884  0.00  0.00    +0.033 C 
ATOM    115  H   UNL     1     145.152 167.669 185.620  0.00  0.00    +0.034 HD
ATOM    116  H   UNL     1     144.848 166.966 183.992  0.00  0.00    +0.034 HD
ATOM    117  H   UNL     1     143.721 166.657 185.330  0.00  0.00    +0.034 HD
ENDBRANCH 112 114
ENDBRANCH 111 112
ENDBRANCH  89 111
ENDBRANCH  83  89
ENDBRANCH  81  83
ENDBRANCH  78  81
ENDBRANCH  75  78
ENDBRANCH  69  75
ENDBRANCH  67  69
BRANCH  67 118
ATOM    118  O   UNL     1     146.903 167.256 187.716  0.00  0.00    -0.379 OA
BRANCH 118 119
ATOM    119  C   UNL     1     146.795 167.863 189.002  0.00  0.00    +0.037 C 
ATOM    120  H   UNL     1     146.099 168.704 188.971  0.00  0.00    +0.052 HD
ATOM    121  H   UNL     1     146.474 167.139 189.756  0.00  0.00    +0.052 HD
ATOM    122  H   UNL     1     147.783 168.241 189.283  0.00  0.00    +0.052 HD
ENDBRANCH 118 119
ENDBRANCH  67 118
ENDBRANCH  64  67
ENDBRANCH  13  64
BRANCH   8 123
ATOM    123  O   UNL     1     143.113 164.526 187.861  0.00  0.00    -0.391 OA
ATOM    124  H   UNL     1     142.265 164.442 188.342  0.00  0.00    +0.210 HD
ENDBRANCH   8 123
BRANCH  15 125
ATOM    125  O   UNL     1     149.697 162.570 190.568  0.00  0.00    -0.379 OA
BRANCH 125 126
ATOM    126  C   UNL     1     148.733 161.726 191.191  0.00  0.00    +0.037 C 
ATOM    127  H   UNL     1     149.231 160.903 191.715  0.00  0.00    +0.052 HD
ATOM    128  H   UNL     1     148.181 162.320 191.924  0.00  0.00    +0.052 HD
ATOM    129  H   UNL     1     148.023 161.332 190.457  0.00  0.00    +0.052 HD
ENDBRANCH 125 126
ENDBRANCH  15 125
TORSDOF 27
ENDMDL
MODEL 8
REMARK VINA RESULT:      -5.0      3.312      7.534
REMARK  Name = Ulapualide A_conf1
REMARK  27 active torsions:
REMARK  status: ('A' for Active; 'I' for Inactive)
REMARK    1  A    between atoms: C_1  and  C_2
REMARK    2  A    between atoms: C_9  and  O_63
REMARK    3  A    between atoms: C_14  and  C_38
REMARK    4  A    between atoms: C_15  and  C_37
REMARK    5  A    between atoms: C_16  and  O_35
REMARK    6  A    between atoms: O_35  and  C_36
REMARK    7  A    between atoms: C_38  and  C_39
REMARK    8  A    between atoms: C_39  and  C_40
REMARK    9  A    between atoms: C_39  and  O_61
REMARK   10  A    between atoms: C_40  and  C_41
REMARK   11  A    between atoms: C_40  and  C_42
REMARK   12  A    between atoms: C_42  and  C_43
REMARK   13  A    between atoms: C_43  and  C_44
REMARK   14  A    between atoms: C_44  and  C_46
REMARK   15  A    between atoms: C_46  and  C_47
REMARK   16  A    between atoms: C_46  and  C_48
REMARK   17  A    between atoms: C_48  and  C_49
REMARK   18  A    between atoms: C_48  and  O_57
REMARK   19  A    between atoms: C_49  and  C_50
REMARK   20  A    between atoms: C_49  and  C_51
REMARK   21  A    between atoms: C_52  and  N_53
REMARK   22  A    between atoms: N_53  and  C_54
REMARK   23  A    between atoms: N_53  and  C_55
REMARK   24  A    between atoms: C_55  and  O_56
REMARK   25  A    between atoms: O_57  and  C_58
REMARK   26  A    between atoms: C_58  and  C_60
REMARK   27  A    between atoms: O_61  and  C_62
REMARK                            x       y       z     vdW  Elec       q    Type
REMARK                         _______ _______ _______ _____ _____    ______ ____
ROOT
ATOM      1  C   UNL     1     143.465 171.550 190.784  0.00  0.00    +0.008 C 
ATOM      2  C   UNL     1     143.472 170.317 189.858  0.00  0.00    +0.014 C 
ATOM      3  C   UNL     1     142.092 169.707 189.725  0.00  0.00    +0.134 C 
ATOM      4  O   UNL     1     141.306 169.674 190.674  0.00  0.00    -0.297 OA
ATOM      5  C   UNL     1     141.691 169.135 188.380  0.00  0.00    +0.006 C 
ATOM      6  C   UNL     1     142.594 168.017 187.872  0.00  0.00    -0.044 C 
ATOM      7  C   UNL     1     142.714 166.833 188.842  0.00  0.00    -0.026 C 
ATOM      8  C   UNL     1     143.369 165.630 188.147  0.00  0.00    +0.065 C 
ATOM      9  C   UNL     1     143.906 164.609 189.149  0.00  0.00    +0.071 C 
ATOM     10  C   UNL     1     144.929 163.759 188.446  0.00  0.00    +0.310 C 
ATOM     11  O   UNL     1     144.663 162.996 187.524  0.00  0.00    -0.251 OA
ATOM     12  O   UNL     1     146.182 164.021 188.916  0.00  0.00    -0.461 OA
ATOM     13  C   UNL     1     147.279 163.562 188.089  0.00  0.00    +0.110 C 
ATOM     14  C   UNL     1     148.573 163.547 188.948  0.00  0.00    +0.020 C 
ATOM     15  C   UNL     1     148.383 162.674 190.227  0.00  0.00    +0.068 C 
ATOM     16  C   UNL     1     149.546 162.799 191.244  0.00  0.00    -0.008 C 
ATOM     17  C   UNL     1     149.828 164.227 191.604  0.00  0.00    -0.077 C 
ATOM     18  C   UNL     1     151.029 164.825 191.514  0.00  0.00    -0.003 C 
ATOM     19  C   UNL     1     151.142 166.226 191.738  0.00  0.00    +0.220 A 
ATOM     20  N   UNL     1     150.148 167.101 191.670  0.00  0.00    -0.205 NA
ATOM     21  C   UNL     1     150.710 168.317 191.961  0.00  0.00    +0.164 A 
ATOM     22  C   UNL     1     152.050 168.163 192.191  0.00  0.00    +0.125 A 
ATOM     23  O   UNL     1     152.349 166.843 192.024  0.00  0.00    -0.443 OA
ATOM     24  C   UNL     1     149.921 169.659 192.011  0.00  0.00    +0.250 A 
ATOM     25  N   UNL     1     148.646 169.753 191.672  0.00  0.00    -0.203 NA
ATOM     26  C   UNL     1     148.336 171.071 191.888  0.00  0.00    +0.164 A 
ATOM     27  C   UNL     1     149.445 171.742 192.343  0.00  0.00    +0.125 A 
ATOM     28  O   UNL     1     150.478 170.857 192.403  0.00  0.00    -0.442 OA
ATOM     29  C   UNL     1     146.932 171.708 191.666  0.00  0.00    +0.249 A 
ATOM     30  N   UNL     1     145.889 171.039 191.206  0.00  0.00    -0.212 NA
ATOM     31  C   UNL     1     144.858 171.952 191.190  0.00  0.00    +0.083 A 
ATOM     32  C   UNL     1     145.332 173.159 191.653  0.00  0.00    +0.116 A 
ATOM     33  O   UNL     1     146.652 173.022 191.949  0.00  0.00    -0.442 OA
ATOM     34  H   UNL     1     142.933 171.301 191.712  0.00  0.00    +0.037 HD
ATOM     35  H   UNL     1     143.849 170.594 188.868  0.00  0.00    +0.035 HD
ATOM     36  H   UNL     1     144.121 169.523 190.247  0.00  0.00    +0.035 HD
ATOM     37  H   UNL     1     140.661 168.769 188.458  0.00  0.00    +0.034 HD
ATOM     38  H   UNL     1     141.679 169.962 187.661  0.00  0.00    +0.034 HD
ATOM     39  H   UNL     1     142.195 167.672 186.909  0.00  0.00    +0.027 HD
ATOM     40  H   UNL     1     143.597 168.411 187.668  0.00  0.00    +0.027 HD
ATOM     41  H   UNL     1     141.717 166.555 189.205  0.00  0.00    +0.029 HD
ATOM     42  H   UNL     1     143.313 167.145 189.703  0.00  0.00    +0.029 HD
ATOM     43  H   UNL     1     144.160 165.983 187.481  0.00  0.00    +0.060 HD
ATOM     44  H   UNL     1     143.120 163.951 189.536  0.00  0.00    +0.040 HD
ATOM     45  H   UNL     1     144.385 165.102 190.002  0.00  0.00    +0.040 HD
ATOM     46  H   UNL     1     147.071 162.534 187.768  0.00  0.00    +0.074 HD
ATOM     47  H   UNL     1     148.759 164.573 189.281  0.00  0.00    +0.036 HD
ATOM     48  H   UNL     1     147.464 163.000 190.732  0.00  0.00    +0.060 HD
ATOM     49  H   UNL     1     150.441 162.294 190.862  0.00  0.00    +0.033 HD
ATOM     50  H   UNL     1     149.284 162.258 192.162  0.00  0.00    +0.033 HD
ATOM     51  H   UNL     1     148.958 164.818 191.899  0.00  0.00    +0.057 HD
ATOM     52  H   UNL     1     151.925 164.272 191.269  0.00  0.00    +0.067 HD
ATOM     53  H   UNL     1     152.870 168.823 192.421  0.00  0.00    +0.105 HD
ATOM     54  H   UNL     1     149.656 172.760 192.633  0.00  0.00    +0.105 HD
ATOM     55  H   UNL     1     144.897 174.132 191.830  0.00  0.00    +0.105 HD
ENDROOT
BRANCH   1  56
ATOM     56  C   UNL     1     142.716 172.708 190.109  0.00  0.00    -0.056 C 
ATOM     57  H   UNL     1     141.766 172.370 189.679  0.00  0.00    +0.024 HD
ATOM     58  H   UNL     1     143.301 173.137 189.292  0.00  0.00    +0.024 HD
ATOM     59  H   UNL     1     142.491 173.508 190.825  0.00  0.00    +0.024 HD
ENDBRANCH   1  56
BRANCH  14  60
ATOM     60  C   UNL     1     149.782 163.087 188.118  0.00  0.00    -0.057 C 
ATOM     61  H   UNL     1     149.750 162.011 187.930  0.00  0.00    +0.023 HD
ATOM     62  H   UNL     1     150.729 163.322 188.611  0.00  0.00    +0.023 HD
ATOM     63  H   UNL     1     149.806 163.595 187.150  0.00  0.00    +0.023 HD
ENDBRANCH  14  60
BRANCH  13  64
ATOM     64  C   UNL     1     147.374 164.465 186.832  0.00  0.00    +0.011 C 
ATOM     65  H   UNL     1     146.377 164.476 186.382  0.00  0.00    +0.033 HD
ATOM     66  H   UNL     1     148.036 163.996 186.096  0.00  0.00    +0.033 HD
BRANCH  64  67
ATOM     67  C   UNL     1     147.814 165.933 187.067  0.00  0.00    +0.064 C 
ATOM     68  H   UNL     1     148.233 166.014 188.077  0.00  0.00    +0.060 HD
BRANCH  67  69
ATOM     69  C   UNL     1     148.924 166.355 186.050  0.00  0.00    -0.017 C 
ATOM     70  H   UNL     1     149.446 165.440 185.740  0.00  0.00    +0.032 HD
BRANCH  69  71
ATOM     71  C   UNL     1     148.345 167.012 184.790  0.00  0.00    -0.060 C 
ATOM     72  H   UNL     1     148.527 168.091 184.779  0.00  0.00    +0.023 HD
ATOM     73  H   UNL     1     147.268 166.847 184.699  0.00  0.00    +0.023 HD
ATOM     74  H   UNL     1     148.782 166.582 183.887  0.00  0.00    +0.023 HD
ENDBRANCH  69  71
BRANCH  69  75
ATOM     75  C   UNL     1     149.961 167.281 186.736  0.00  0.00    -0.041 C 
ATOM     76  H   UNL     1     149.411 168.087 187.239  0.00  0.00    +0.027 HD
ATOM     77  H   UNL     1     150.602 167.761 185.987  0.00  0.00    +0.027 HD
BRANCH  75  78
ATOM     78  C   UNL     1     150.815 166.588 187.804  0.00  0.00    +0.007 C 
ATOM     79  H   UNL     1     150.282 166.616 188.759  0.00  0.00    +0.034 HD
ATOM     80  H   UNL     1     150.962 165.535 187.538  0.00  0.00    +0.034 HD
BRANCH  78  81
ATOM     81  C   UNL     1     152.172 167.236 188.061  0.00  0.00    +0.140 C 
ATOM     82  O   UNL     1     152.341 168.085 188.938  0.00  0.00    -0.297 OA
BRANCH  81  83
ATOM     83  C   UNL     1     153.315 166.772 187.167  0.00  0.00    +0.052 C 
ATOM     84  H   UNL     1     153.492 167.543 186.409  0.00  0.00    +0.041 HD
BRANCH  83  85
ATOM     85  C   UNL     1     154.584 166.664 188.019  0.00  0.00    -0.052 C 
ATOM     86  H   UNL     1     155.379 167.304 187.629  0.00  0.00    +0.024 HD
ATOM     87  H   UNL     1     154.398 166.965 189.054  0.00  0.00    +0.024 HD
ATOM     88  H   UNL     1     154.951 165.634 188.041  0.00  0.00    +0.024 HD
ENDBRANCH  83  85
BRANCH  83  89
ATOM     89  C   UNL     1     153.003 165.431 186.460  0.00  0.00    +0.118 C 
ATOM     90  H   UNL     1     151.977 165.134 186.705  0.00  0.00    +0.075 HD
BRANCH  89  91
ATOM     91  C   UNL     1     153.116 165.487 184.909  0.00  0.00    +0.014 C 
ATOM     92  H   UNL     1     152.881 166.511 184.621  0.00  0.00    +0.038 HD
BRANCH  91  93
ATOM     93  C   UNL     1     152.072 164.586 184.240  0.00  0.00    -0.056 C 
ATOM     94  H   UNL     1     151.240 165.159 183.814  0.00  0.00    +0.024 HD
ATOM     95  H   UNL     1     151.651 163.878 184.964  0.00  0.00    +0.024 HD
ATOM     96  H   UNL     1     152.530 164.001 183.434  0.00  0.00    +0.024 HD
ENDBRANCH  91  93
BRANCH  91  97
ATOM     97  C   UNL     1     154.495 165.110 184.413  0.00  0.00    -0.064 C 
ATOM     98  C   UNL     1     155.497 165.899 183.998  0.00  0.00    -0.010 C 
ATOM     99  H   UNL     1     154.712 164.041 184.468  0.00  0.00    +0.059 HD
ATOM    100  H   UNL     1     156.449 165.402 183.805  0.00  0.00    +0.078 HD
BRANCH  98 101
ATOM    101  N   UNL     1     155.607 167.266 183.802  0.00  0.00    -0.317 N 
BRANCH 101 102
ATOM    102  C   UNL     1     155.143 167.872 182.549  0.00  0.00    +0.002 C 
ATOM    103  H   UNL     1     154.657 167.124 181.907  0.00  0.00    +0.043 HD
ATOM    104  H   UNL     1     155.984 168.292 181.983  0.00  0.00    +0.043 HD
ATOM    105  H   UNL     1     154.419 168.667 182.754  0.00  0.00    +0.043 HD
ENDBRANCH 101 102
BRANCH 101 106
ATOM    106  C   UNL     1     155.857 168.238 184.859  0.00  0.00    +0.110 C 
ATOM    107  H   UNL     1     156.144 169.222 184.499  0.00  0.00    +0.077 HD
ATOM    108  H   UNL     1     154.985 168.359 185.509  0.00  0.00    +0.077 HD
BRANCH 106 109
ATOM    109  O   UNL     1     156.939 167.744 185.624  0.00  0.00    -0.377 OA
ATOM    110  H   UNL     1     157.668 167.778 184.979  0.00  0.00    +0.211 HD
ENDBRANCH 106 109
ENDBRANCH 101 106
ENDBRANCH  98 101
ENDBRANCH  91  97
ENDBRANCH  89  91
BRANCH  89 111
ATOM    111  O   UNL     1     153.954 164.453 186.960  0.00  0.00    -0.460 OA
BRANCH 111 112
ATOM    112  C   UNL     1     153.457 163.293 187.466  0.00  0.00    +0.304 C 
ATOM    113  O   UNL     1     153.109 162.316 186.820  0.00  0.00    -0.251 OA
BRANCH 112 114
ATOM    114  C   UNL     1     153.388 163.383 188.959  0.00  0.00    +0.033 C 
ATOM    115  H   UNL     1     152.358 163.228 189.292  0.00  0.00    +0.034 HD
ATOM    116  H   UNL     1     153.761 164.355 189.289  0.00  0.00    +0.034 HD
ATOM    117  H   UNL     1     154.017 162.601 189.398  0.00  0.00    +0.034 HD
ENDBRANCH 112 114
ENDBRANCH 111 112
ENDBRANCH  89 111
ENDBRANCH  83  89
ENDBRANCH  81  83
ENDBRANCH  78  81
ENDBRANCH  75  78
ENDBRANCH  69  75
ENDBRANCH  67  69
BRANCH  67 118
ATOM    118  O   UNL     1     146.692 166.806 186.913  0.00  0.00    -0.379 OA
BRANCH 118 119
ATOM    119  C   UNL     1     146.445 167.626 188.052  0.00  0.00    +0.037 C 
ATOM    120  H   UNL     1     146.837 167.154 188.956  0.00  0.00    +0.052 HD
ATOM    121  H   UNL     1     146.885 168.620 187.929  0.00  0.00    +0.052 HD
ATOM    122  H   UNL     1     145.362 167.737 188.161  0.00  0.00    +0.052 HD
ENDBRANCH 118 119
ENDBRANCH  67 118
ENDBRANCH  64  67
ENDBRANCH  13  64
BRANCH   8 123
ATOM    123  O   UNL     1     142.369 165.009 187.334  0.00  0.00    -0.391 OA
ATOM    124  H   UNL     1     141.530 165.484 187.504  0.00  0.00    +0.210 HD
ENDBRANCH   8 123
BRANCH  15 125
ATOM    125  O   UNL     1     148.251 161.304 189.820  0.00  0.00    -0.379 OA
BRANCH 125 126
ATOM    126  C   UNL     1     147.044 160.704 190.280  0.00  0.00    +0.037 C 
ATOM    127  H   UNL     1     147.022 160.688 191.376  0.00  0.00    +0.052 HD
ATOM    128  H   UNL     1     146.205 161.307 189.925  0.00  0.00    +0.052 HD
ATOM    129  H   UNL     1     146.934 159.689 189.885  0.00  0.00    +0.052 HD
ENDBRANCH 125 126
ENDBRANCH  15 125
TORSDOF 27
ENDMDL
MODEL 9
REMARK VINA RESULT:      -5.0      2.299      7.634
REMARK  Name = Ulapualide A_conf1
REMARK  27 active torsions:
REMARK  status: ('A' for Active; 'I' for Inactive)
REMARK    1  A    between atoms: C_1  and  C_2
REMARK    2  A    between atoms: C_9  and  O_63
REMARK    3  A    between atoms: C_14  and  C_38
REMARK    4  A    between atoms: C_15  and  C_37
REMARK    5  A    between atoms: C_16  and  O_35
REMARK    6  A    between atoms: O_35  and  C_36
REMARK    7  A    between atoms: C_38  and  C_39
REMARK    8  A    between atoms: C_39  and  C_40
REMARK    9  A    between atoms: C_39  and  O_61
REMARK   10  A    between atoms: C_40  and  C_41
REMARK   11  A    between atoms: C_40  and  C_42
REMARK   12  A    between atoms: C_42  and  C_43
REMARK   13  A    between atoms: C_43  and  C_44
REMARK   14  A    between atoms: C_44  and  C_46
REMARK   15  A    between atoms: C_46  and  C_47
REMARK   16  A    between atoms: C_46  and  C_48
REMARK   17  A    between atoms: C_48  and  C_49
REMARK   18  A    between atoms: C_48  and  O_57
REMARK   19  A    between atoms: C_49  and  C_50
REMARK   20  A    between atoms: C_49  and  C_51
REMARK   21  A    between atoms: C_52  and  N_53
REMARK   22  A    between atoms: N_53  and  C_54
REMARK   23  A    between atoms: N_53  and  C_55
REMARK   24  A    between atoms: C_55  and  O_56
REMARK   25  A    between atoms: O_57  and  C_58
REMARK   26  A    between atoms: C_58  and  C_60
REMARK   27  A    between atoms: O_61  and  C_62
REMARK                            x       y       z     vdW  Elec       q    Type
REMARK                         _______ _______ _______ _____ _____    ______ ____
ROOT
ATOM      1  C   UNL     1     144.833 172.083 191.167  0.00  0.00    +0.008 C 
ATOM      2  C   UNL     1     144.549 171.178 189.951  0.00  0.00    +0.014 C 
ATOM      3  C   UNL     1     143.064 170.947 189.756  0.00  0.00    +0.134 C 
ATOM      4  O   UNL     1     142.298 170.832 190.715  0.00  0.00    -0.297 OA
ATOM      5  C   UNL     1     142.534 170.867 188.339  0.00  0.00    +0.006 C 
ATOM      6  C   UNL     1     143.151 169.758 187.494  0.00  0.00    -0.044 C 
ATOM      7  C   UNL     1     143.000 168.359 188.107  0.00  0.00    -0.026 C 
ATOM      8  C   UNL     1     143.355 167.276 187.077  0.00  0.00    +0.065 C 
ATOM      9  C   UNL     1     143.648 165.929 187.735  0.00  0.00    +0.071 C 
ATOM     10  C   UNL     1     144.443 165.098 186.765  0.00  0.00    +0.310 C 
ATOM     11  O   UNL     1     144.002 164.693 185.695  0.00  0.00    -0.251 OA
ATOM     12  O   UNL     1     145.724 164.939 187.200  0.00  0.00    -0.461 OA
ATOM     13  C   UNL     1     146.681 164.492 186.209  0.00  0.00    +0.110 C 
ATOM     14  C   UNL     1     147.942 163.958 186.942  0.00  0.00    +0.020 C 
ATOM     15  C   UNL     1     147.563 162.835 187.956  0.00  0.00    +0.068 C 
ATOM     16  C   UNL     1     148.729 162.418 188.889  0.00  0.00    -0.008 C 
ATOM     17  C   UNL     1     149.335 163.595 189.592  0.00  0.00    -0.077 C 
ATOM     18  C   UNL     1     150.641 163.915 189.580  0.00  0.00    -0.003 C 
ATOM     19  C   UNL     1     151.077 165.141 190.157  0.00  0.00    +0.220 A 
ATOM     20  N   UNL     1     150.311 166.199 190.390  0.00  0.00    -0.205 NA
ATOM     21  C   UNL     1     151.142 167.135 190.951  0.00  0.00    +0.164 A 
ATOM     22  C   UNL     1     152.410 166.633 191.041  0.00  0.00    +0.125 A 
ATOM     23  O   UNL     1     152.396 165.375 190.511  0.00  0.00    -0.443 OA
ATOM     24  C   UNL     1     150.683 168.553 191.407  0.00  0.00    +0.250 A 
ATOM     25  N   UNL     1     149.463 169.014 191.193  0.00  0.00    -0.203 NA
ATOM     26  C   UNL     1     149.467 170.258 191.769  0.00  0.00    +0.164 A 
ATOM     27  C   UNL     1     150.704 170.519 192.308  0.00  0.00    +0.125 A 
ATOM     28  O   UNL     1     151.505 169.444 192.062  0.00  0.00    -0.442 OA
ATOM     29  C   UNL     1     148.247 171.225 191.820  0.00  0.00    +0.249 A 
ATOM     30  N   UNL     1     147.075 170.954 191.273  0.00  0.00    -0.212 NA
ATOM     31  C   UNL     1     146.283 172.041 191.568  0.00  0.00    +0.083 A 
ATOM     32  C   UNL     1     147.026 172.941 192.299  0.00  0.00    +0.116 A 
ATOM     33  O   UNL     1     148.280 172.441 192.457  0.00  0.00    -0.442 OA
ATOM     34  H   UNL     1     144.263 171.715 192.030  0.00  0.00    +0.037 HD
ATOM     35  H   UNL     1     144.973 171.623 189.045  0.00  0.00    +0.035 HD
ATOM     36  H   UNL     1     144.999 170.185 190.072  0.00  0.00    +0.035 HD
ATOM     37  H   UNL     1     141.447 170.730 188.388  0.00  0.00    +0.034 HD
ATOM     38  H   UNL     1     142.709 171.839 187.866  0.00  0.00    +0.034 HD
ATOM     39  H   UNL     1     142.677 169.785 186.504  0.00  0.00    +0.027 HD
ATOM     40  H   UNL     1     144.217 169.961 187.333  0.00  0.00    +0.027 HD
ATOM     41  H   UNL     1     141.968 168.220 188.452  0.00  0.00    +0.029 HD
ATOM     42  H   UNL     1     143.659 168.284 188.977  0.00  0.00    +0.029 HD
ATOM     43  H   UNL     1     144.202 167.613 186.475  0.00  0.00    +0.060 HD
ATOM     44  H   UNL     1     142.733 165.381 187.988  0.00  0.00    +0.040 HD
ATOM     45  H   UNL     1     144.232 166.053 188.653  0.00  0.00    +0.040 HD
ATOM     46  H   UNL     1     146.239 163.663 185.643  0.00  0.00    +0.074 HD
ATOM     47  H   UNL     1     148.362 164.788 187.520  0.00  0.00    +0.036 HD
ATOM     48  H   UNL     1     146.747 163.206 188.592  0.00  0.00    +0.060 HD
ATOM     49  H   UNL     1     149.481 161.852 188.326  0.00  0.00    +0.033 HD
ATOM     50  H   UNL     1     148.354 161.720 189.647  0.00  0.00    +0.033 HD
ATOM     51  H   UNL     1     148.627 164.261 190.091  0.00  0.00    +0.057 HD
ATOM     52  H   UNL     1     151.384 163.266 189.137  0.00  0.00    +0.067 HD
ATOM     53  H   UNL     1     153.362 167.007 191.380  0.00  0.00    +0.105 HD
ATOM     54  H   UNL     1     151.146 171.347 192.840  0.00  0.00    +0.105 HD
ATOM     55  H   UNL     1     146.828 173.900 192.755  0.00  0.00    +0.105 HD
ENDROOT
BRANCH   1  56
ATOM     56  C   UNL     1     144.367 173.516 190.874  0.00  0.00    -0.056 C 
ATOM     57  H   UNL     1     144.802 173.893 189.942  0.00  0.00    +0.024 HD
ATOM     58  H   UNL     1     144.670 174.202 191.669  0.00  0.00    +0.024 HD
ATOM     59  H   UNL     1     143.276 173.568 190.777  0.00  0.00    +0.024 HD
ENDBRANCH   1  56
BRANCH  14  60
ATOM     60  C   UNL     1     149.007 163.486 185.940  0.00  0.00    -0.057 C 
ATOM     61  H   UNL     1     149.786 164.241 185.802  0.00  0.00    +0.023 HD
ATOM     62  H   UNL     1     148.575 163.255 184.963  0.00  0.00    +0.023 HD
ATOM     63  H   UNL     1     149.489 162.568 186.288  0.00  0.00    +0.023 HD
ENDBRANCH  14  60
BRANCH  13  64
ATOM     64  C   UNL     1     146.975 165.659 185.231  0.00  0.00    +0.011 C 
ATOM     65  H   UNL     1     146.405 165.452 184.320  0.00  0.00    +0.033 HD
ATOM     66  H   UNL     1     148.031 165.635 184.941  0.00  0.00    +0.033 HD
BRANCH  64  67
ATOM     67  C   UNL     1     146.602 167.081 185.719  0.00  0.00    +0.064 C 
ATOM     68  H   UNL     1     145.622 167.036 186.210  0.00  0.00    +0.060 HD
BRANCH  67  69
ATOM     69  C   UNL     1     147.639 167.605 186.765  0.00  0.00    -0.017 C 
ATOM     70  H   UNL     1     148.411 166.830 186.873  0.00  0.00    +0.032 HD
BRANCH  69  71
ATOM     71  C   UNL     1     148.332 168.895 186.309  0.00  0.00    -0.060 C 
ATOM     72  H   UNL     1     149.301 168.688 185.843  0.00  0.00    +0.023 HD
ATOM     73  H   UNL     1     148.494 169.589 187.137  0.00  0.00    +0.023 HD
ATOM     74  H   UNL     1     147.717 169.439 185.590  0.00  0.00    +0.023 HD
ENDBRANCH  69  71
BRANCH  69  75
ATOM     75  C   UNL     1     146.964 167.793 188.148  0.00  0.00    -0.041 C 
ATOM     76  H   UNL     1     145.919 167.468 188.059  0.00  0.00    +0.027 HD
ATOM     77  H   UNL     1     146.939 168.854 188.423  0.00  0.00    +0.027 HD
BRANCH  75  78
ATOM     78  C   UNL     1     147.594 166.966 189.275  0.00  0.00    +0.007 C 
ATOM     79  H   UNL     1     148.197 166.166 188.834  0.00  0.00    +0.034 HD
ATOM     80  H   UNL     1     148.266 167.596 189.869  0.00  0.00    +0.034 HD
BRANCH  78  81
ATOM     81  C   UNL     1     146.597 166.279 190.203  0.00  0.00    +0.140 C 
ATOM     82  O   UNL     1     146.185 165.136 189.996  0.00  0.00    -0.297 OA
BRANCH  81  83
ATOM     83  C   UNL     1     146.136 167.090 191.407  0.00  0.00    +0.052 C 
ATOM     84  H   UNL     1     146.972 167.716 191.738  0.00  0.00    +0.041 HD
BRANCH  83  85
ATOM     85  C   UNL     1     145.008 168.024 190.960  0.00  0.00    -0.052 C 
ATOM     86  H   UNL     1     144.884 168.004 189.874  0.00  0.00    +0.024 HD
ATOM     87  H   UNL     1     144.051 167.739 191.405  0.00  0.00    +0.024 HD
ATOM     88  H   UNL     1     145.213 169.055 191.263  0.00  0.00    +0.024 HD
ENDBRANCH  83  85
BRANCH  83  89
ATOM     89  C   UNL     1     145.683 166.191 192.583  0.00  0.00    +0.118 C 
ATOM     90  H   UNL     1     145.246 165.273 192.176  0.00  0.00    +0.075 HD
BRANCH  89  91
ATOM     91  C   UNL     1     146.832 165.775 193.547  0.00  0.00    +0.014 C 
ATOM     92  H   UNL     1     147.255 164.857 193.141  0.00  0.00    +0.038 HD
BRANCH  91  93
ATOM     93  C   UNL     1     146.295 165.441 194.943  0.00  0.00    -0.056 C 
ATOM     94  H   UNL     1     145.475 166.106 195.243  0.00  0.00    +0.024 HD
ATOM     95  H   UNL     1     147.088 165.532 195.695  0.00  0.00    +0.024 HD
ATOM     96  H   UNL     1     145.925 164.410 194.975  0.00  0.00    +0.024 HD
ENDBRANCH  91  93
BRANCH  91  97
ATOM     97  C   UNL     1     147.905 166.836 193.664  0.00  0.00    -0.064 C 
ATOM     98  C   UNL     1     149.163 166.731 194.117  0.00  0.00    -0.010 C 
ATOM     99  H   UNL     1     147.618 167.807 193.256  0.00  0.00    +0.059 HD
ATOM    100  H   UNL     1     149.794 167.610 193.987  0.00  0.00    +0.078 HD
BRANCH  98 101
ATOM    101  N   UNL     1     149.878 165.691 194.690  0.00  0.00    -0.317 N 
BRANCH 101 102
ATOM    102  C   UNL     1     150.582 164.724 193.841  0.00  0.00    +0.002 C 
ATOM    103  H   UNL     1     151.500 164.367 194.329  0.00  0.00    +0.043 HD
ATOM    104  H   UNL     1     150.874 165.181 192.888  0.00  0.00    +0.043 HD
ATOM    105  H   UNL     1     149.944 163.858 193.639  0.00  0.00    +0.043 HD
ENDBRANCH 101 102
BRANCH 101 106
ATOM    106  C   UNL     1     150.274 165.631 196.092  0.00  0.00    +0.110 C 
ATOM    107  H   UNL     1     151.253 166.057 196.296  0.00  0.00    +0.077 HD
ATOM    108  H   UNL     1     149.548 166.133 196.737  0.00  0.00    +0.077 HD
BRANCH 106 109
ATOM    109  O   UNL     1     150.337 164.262 196.443  0.00  0.00    -0.377 OA
ATOM    110  H   UNL     1     151.296 164.096 196.419  0.00  0.00    +0.211 HD
ENDBRANCH 106 109
ENDBRANCH 101 106
ENDBRANCH  98 101
ENDBRANCH  91  97
ENDBRANCH  89  91
BRANCH  89 111
ATOM    111  O   UNL     1     144.693 166.941 193.337  0.00  0.00    -0.460 OA
BRANCH 111 112
ATOM    112  C   UNL     1     143.387 166.593 193.183  0.00  0.00    +0.304 C 
ATOM    113  O   UNL     1     142.942 165.816 192.352  0.00  0.00    -0.251 OA
BRANCH 112 114
ATOM    114  C   UNL     1     142.550 167.316 194.193  0.00  0.00    +0.033 C 
ATOM    115  H   UNL     1     141.495 167.243 193.919  0.00  0.00    +0.034 HD
ATOM    116  H   UNL     1     142.865 168.360 194.255  0.00  0.00    +0.034 HD
ATOM    117  H   UNL     1     142.688 166.852 195.176  0.00  0.00    +0.034 HD
ENDBRANCH 112 114
ENDBRANCH 111 112
ENDBRANCH  89 111
ENDBRANCH  83  89
ENDBRANCH  81  83
ENDBRANCH  78  81
ENDBRANCH  75  78
ENDBRANCH  69  75
ENDBRANCH  67  69
BRANCH  67 118
ATOM    118  O   UNL     1     146.572 167.983 184.611  0.00  0.00    -0.379 OA
BRANCH 118 119
ATOM    119  C   UNL     1     145.881 167.469 183.474  0.00  0.00    +0.037 C 
ATOM    120  H   UNL     1     145.933 166.378 183.456  0.00  0.00    +0.052 HD
ATOM    121  H   UNL     1     144.837 167.795 183.464  0.00  0.00    +0.052 HD
ATOM    122  H   UNL     1     146.373 167.855 182.576  0.00  0.00    +0.052 HD
ENDBRANCH 118 119
ENDBRANCH  67 118
ENDBRANCH  64  67
ENDBRANCH  13  64
BRANCH   8 123
ATOM    123  O   UNL     1     142.234 167.137 186.200  0.00  0.00    -0.391 OA
ATOM    124  H   UNL     1     142.036 166.180 186.141  0.00  0.00    +0.210 HD
ENDBRANCH   8 123
BRANCH  15 125
ATOM    125  O   UNL     1     147.115 161.692 187.213  0.00  0.00    -0.379 OA
BRANCH 125 126
ATOM    126  C   UNL     1     145.899 161.147 187.715  0.00  0.00    +0.037 C 
ATOM    127  H   UNL     1     145.260 160.818 186.889  0.00  0.00    +0.052 HD
ATOM    128  H   UNL     1     146.143 160.278 188.332  0.00  0.00    +0.052 HD
ATOM    129  H   UNL     1     145.369 161.876 188.336  0.00  0.00    +0.052 HD
ENDBRANCH 125 126
ENDBRANCH  15 125
TORSDOF 27
ENDMDL
MODEL 10
REMARK VINA RESULT:      -4.9     16.839     20.949
REMARK  Name = Ulapualide A_conf1
REMARK  27 active torsions:
REMARK  status: ('A' for Active; 'I' for Inactive)
REMARK    1  A    between atoms: C_1  and  C_2
REMARK    2  A    between atoms: C_9  and  O_63
REMARK    3  A    between atoms: C_14  and  C_38
REMARK    4  A    between atoms: C_15  and  C_37
REMARK    5  A    between atoms: C_16  and  O_35
REMARK    6  A    between atoms: O_35  and  C_36
REMARK    7  A    between atoms: C_38  and  C_39
REMARK    8  A    between atoms: C_39  and  C_40
REMARK    9  A    between atoms: C_39  and  O_61
REMARK   10  A    between atoms: C_40  and  C_41
REMARK   11  A    between atoms: C_40  and  C_42
REMARK   12  A    between atoms: C_42  and  C_43
REMARK   13  A    between atoms: C_43  and  C_44
REMARK   14  A    between atoms: C_44  and  C_46
REMARK   15  A    between atoms: C_46  and  C_47
REMARK   16  A    between atoms: C_46  and  C_48
REMARK   17  A    between atoms: C_48  and  C_49
REMARK   18  A    between atoms: C_48  and  O_57
REMARK   19  A    between atoms: C_49  and  C_50
REMARK   20  A    between atoms: C_49  and  C_51
REMARK   21  A    between atoms: C_52  and  N_53
REMARK   22  A    between atoms: N_53  and  C_54
REMARK   23  A    between atoms: N_53  and  C_55
REMARK   24  A    between atoms: C_55  and  O_56
REMARK   25  A    between atoms: O_57  and  C_58
REMARK   26  A    between atoms: C_58  and  C_60
REMARK   27  A    between atoms: O_61  and  C_62
REMARK                            x       y       z     vdW  Elec       q    Type
REMARK                         _______ _______ _______ _____ _____    ______ ____
ROOT
ATOM      1  C   UNL     1     128.728 166.162 203.625  0.00  0.00    +0.008 C 
ATOM      2  C   UNL     1     128.112 165.260 202.536  0.00  0.00    +0.014 C 
ATOM      3  C   UNL     1     126.705 164.828 202.895  0.00  0.00    +0.134 C 
ATOM      4  O   UNL     1     126.384 164.579 204.060  0.00  0.00    -0.297 OA
ATOM      5  C   UNL     1     125.687 164.711 201.779  0.00  0.00    +0.006 C 
ATOM      6  C   UNL     1     126.063 163.725 200.679  0.00  0.00    -0.044 C 
ATOM      7  C   UNL     1     126.327 162.302 201.192  0.00  0.00    -0.026 C 
ATOM      8  C   UNL     1     126.388 161.309 200.022  0.00  0.00    +0.065 C 
ATOM      9  C   UNL     1     127.070 159.999 200.413  0.00  0.00    +0.071 C 
ATOM     10  C   UNL     1     127.527 159.316 199.153  0.00  0.00    +0.310 C 
ATOM     11  O   UNL     1     126.763 158.881 198.298  0.00  0.00    -0.251 OA
ATOM     12  O   UNL     1     128.887 159.328 199.062  0.00  0.00    -0.461 OA
ATOM     13  C   UNL     1     129.438 159.047 197.752  0.00  0.00    +0.110 C 
ATOM     14  C   UNL     1     130.938 158.677 197.914  0.00  0.00    +0.020 C 
ATOM     15  C   UNL     1     131.113 157.484 198.904  0.00  0.00    +0.068 C 
ATOM     16  C   UNL     1     132.589 157.211 199.295  0.00  0.00    -0.008 C 
ATOM     17  C   UNL     1     133.271 158.442 199.810  0.00  0.00    -0.077 C 
ATOM     18  C   UNL     1     134.425 158.943 199.334  0.00  0.00    -0.003 C 
ATOM     19  C   UNL     1     134.897 160.203 199.801  0.00  0.00    +0.220 A 
ATOM     20  N   UNL     1     134.158 161.134 200.387  0.00  0.00    -0.205 NA
ATOM     21  C   UNL     1     135.021 162.163 200.668  0.00  0.00    +0.164 A 
ATOM     22  C   UNL     1     136.277 161.842 200.234  0.00  0.00    +0.125 A 
ATOM     23  O   UNL     1     136.213 160.611 199.652  0.00  0.00    -0.443 OA
ATOM     24  C   UNL     1     134.605 163.489 201.372  0.00  0.00    +0.250 A 
ATOM     25  N   UNL     1     133.349 163.779 201.669  0.00  0.00    -0.203 NA
ATOM     26  C   UNL     1     133.424 164.995 202.298  0.00  0.00    +0.164 A 
ATOM     27  C   UNL     1     134.732 165.412 202.352  0.00  0.00    +0.125 A 
ATOM     28  O   UNL     1     135.500 164.469 201.739  0.00  0.00    -0.442 OA
ATOM     29  C   UNL     1     132.209 165.778 202.879  0.00  0.00    +0.249 A 
ATOM     30  N   UNL     1     130.959 165.359 202.792  0.00  0.00    -0.212 NA
ATOM     31  C   UNL     1     130.216 166.315 203.447  0.00  0.00    +0.083 A 
ATOM     32  C   UNL     1     131.067 167.290 203.915  0.00  0.00    +0.116 A 
ATOM     33  O   UNL     1     132.338 166.968 203.551  0.00  0.00    -0.442 OA
ATOM     34  H   UNL     1     128.581 165.694 204.607  0.00  0.00    +0.037 HD
ATOM     35  H   UNL     1     128.101 165.786 201.575  0.00  0.00    +0.035 HD
ATOM     36  H   UNL     1     128.690 164.338 202.401  0.00  0.00    +0.035 HD
ATOM     37  H   UNL     1     124.727 164.422 202.221  0.00  0.00    +0.034 HD
ATOM     38  H   UNL     1     125.550 165.711 201.353  0.00  0.00    +0.034 HD
ATOM     39  H   UNL     1     125.247 163.711 199.945  0.00  0.00    +0.027 HD
ATOM     40  H   UNL     1     126.953 164.081 200.147  0.00  0.00    +0.027 HD
ATOM     41  H   UNL     1     125.530 162.009 201.886  0.00  0.00    +0.029 HD
ATOM     42  H   UNL     1     127.273 162.298 201.742  0.00  0.00    +0.029 HD
ATOM     43  H   UNL     1     126.894 161.778 199.175  0.00  0.00    +0.060 HD
ATOM     44  H   UNL     1     126.395 159.320 200.947  0.00  0.00    +0.040 HD
ATOM     45  H   UNL     1     127.942 160.179 201.051  0.00  0.00    +0.040 HD
ATOM     46  H   UNL     1     128.916 158.179 197.330  0.00  0.00    +0.074 HD
ATOM     47  H   UNL     1     131.444 159.541 198.356  0.00  0.00    +0.036 HD
ATOM     48  H   UNL     1     130.564 157.718 199.827  0.00  0.00    +0.060 HD
ATOM     49  H   UNL     1     133.130 156.772 198.448  0.00  0.00    +0.033 HD
ATOM     50  H   UNL     1     132.619 156.446 200.081  0.00  0.00    +0.033 HD
ATOM     51  H   UNL     1     132.734 158.987 200.589  0.00  0.00    +0.057 HD
ATOM     52  H   UNL     1     135.014 158.418 198.595  0.00  0.00    +0.067 HD
ATOM     53  H   UNL     1     137.234 162.338 200.220  0.00  0.00    +0.105 HD
ATOM     54  H   UNL     1     135.241 166.280 202.743  0.00  0.00    +0.105 HD
ATOM     55  H   UNL     1     130.946 168.199 204.486  0.00  0.00    +0.105 HD
ENDROOT
BRANCH   1  56
ATOM     56  C   UNL     1     128.017 167.523 203.642  0.00  0.00    -0.056 C 
ATOM     57  H   UNL     1     128.374 168.148 204.468  0.00  0.00    +0.024 HD
ATOM     58  H   UNL     1     126.939 167.405 203.774  0.00  0.00    +0.024 HD
ATOM     59  H   UNL     1     128.188 168.074 202.710  0.00  0.00    +0.024 HD
ENDBRANCH   1  56
BRANCH  14  60
ATOM     60  C   UNL     1     131.587 158.388 196.552  0.00  0.00    -0.057 C 
ATOM     61  H   UNL     1     132.554 158.888 196.457  0.00  0.00    +0.023 HD
ATOM     62  H   UNL     1     130.952 158.705 195.721  0.00  0.00    +0.023 HD
ATOM     63  H   UNL     1     131.752 157.314 196.420  0.00  0.00    +0.023 HD
ENDBRANCH  14  60
BRANCH  13  64
ATOM     64  C   UNL     1     129.193 160.270 196.831  0.00  0.00    +0.011 C 
ATOM     65  H   UNL     1     130.180 160.637 196.533  0.00  0.00    +0.033 HD
ATOM     66  H   UNL     1     128.730 161.076 197.411  0.00  0.00    +0.033 HD
BRANCH  64  67
ATOM     67  C   UNL     1     128.366 160.013 195.545  0.00  0.00    +0.064 C 
ATOM     68  H   UNL     1     127.318 160.262 195.749  0.00  0.00    +0.060 HD
BRANCH  67  69
ATOM     69  C   UNL     1     128.857 160.921 194.372  0.00  0.00    -0.017 C 
ATOM     70  H   UNL     1     128.819 160.317 193.455  0.00  0.00    +0.032 HD
BRANCH  69  71
ATOM     71  C   UNL     1     127.957 162.146 194.163  0.00  0.00    -0.060 C 
ATOM     72  H   UNL     1     128.270 162.732 193.292  0.00  0.00    +0.023 HD
ATOM     73  H   UNL     1     127.953 162.806 195.034  0.00  0.00    +0.023 HD
ATOM     74  H   UNL     1     126.917 161.849 194.019  0.00  0.00    +0.023 HD
ENDBRANCH  69  71
BRANCH  69  75
ATOM     75  C   UNL     1     130.332 161.344 194.596  0.00  0.00    -0.041 C 
ATOM     76  H   UNL     1     130.956 160.764 193.903  0.00  0.00    +0.027 HD
ATOM     77  H   UNL     1     130.659 161.077 195.607  0.00  0.00    +0.027 HD
BRANCH  75  78
ATOM     78  C   UNL     1     130.613 162.824 194.318  0.00  0.00    +0.007 C 
ATOM     79  H   UNL     1     131.207 162.908 193.402  0.00  0.00    +0.034 HD
ATOM     80  H   UNL     1     129.670 163.357 194.148  0.00  0.00    +0.034 HD
BRANCH  78  81
ATOM     81  C   UNL     1     131.408 163.543 195.403  0.00  0.00    +0.140 C 
ATOM     82  O   UNL     1     132.250 164.404 195.141  0.00  0.00    -0.297 OA
BRANCH  81  83
ATOM     83  C   UNL     1     131.102 163.135 196.838  0.00  0.00    +0.052 C 
ATOM     84  H   UNL     1     130.183 162.537 196.835  0.00  0.00    +0.041 HD
BRANCH  83  85
ATOM     85  C   UNL     1     132.235 162.234 197.338  0.00  0.00    -0.052 C 
ATOM     86  H   UNL     1     131.887 161.558 198.124  0.00  0.00    +0.024 HD
ATOM     87  H   UNL     1     132.644 161.618 196.532  0.00  0.00    +0.024 HD
ATOM     88  H   UNL     1     133.059 162.832 197.739  0.00  0.00    +0.024 HD
ENDBRANCH  83  85
BRANCH  83  89
ATOM     89  C   UNL     1     130.908 164.356 197.768  0.00  0.00    +0.118 C 
ATOM     90  H   UNL     1     130.906 165.266 197.160  0.00  0.00    +0.075 HD
BRANCH  89  91
ATOM     91  C   UNL     1     129.580 164.334 198.580  0.00  0.00    +0.014 C 
ATOM     92  H   UNL     1     129.514 165.296 199.086  0.00  0.00    +0.038 HD
BRANCH  91  93
ATOM     93  C   UNL     1     129.609 163.257 199.670  0.00  0.00    -0.056 C 
ATOM     94  H   UNL     1     128.697 162.648 199.677  0.00  0.00    +0.024 HD
ATOM     95  H   UNL     1     129.712 163.712 200.662  0.00  0.00    +0.024 HD
ATOM     96  H   UNL     1     130.463 162.586 199.523  0.00  0.00    +0.024 HD
ENDBRANCH  91  93
BRANCH  91  97
ATOM     97  C   UNL     1     128.365 164.124 197.702  0.00  0.00    -0.064 C 
ATOM     98  C   UNL     1     127.897 164.881 196.698  0.00  0.00    -0.010 C 
ATOM     99  H   UNL     1     127.842 163.182 197.881  0.00  0.00    +0.059 HD
ATOM    100  H   UNL     1     127.072 164.459 196.125  0.00  0.00    +0.078 HD
BRANCH  98 101
ATOM    101  N   UNL     1     128.282 166.106 196.178  0.00  0.00    -0.317 N 
BRANCH 101 102
ATOM    102  C   UNL     1     128.216 167.314 197.009  0.00  0.00    +0.002 C 
ATOM    103  H   UNL     1     127.262 167.838 196.866  0.00  0.00    +0.043 HD
ATOM    104  H   UNL     1     129.018 168.014 196.745  0.00  0.00    +0.043 HD
ATOM    105  H   UNL     1     128.307 167.053 198.069  0.00  0.00    +0.043 HD
ENDBRANCH 101 102
BRANCH 101 106
ATOM    106  C   UNL     1     129.059 166.282 194.958  0.00  0.00    +0.110 C 
ATOM    107  H   UNL     1     129.262 165.358 194.423  0.00  0.00    +0.077 HD
ATOM    108  H   UNL     1     128.568 166.971 194.265  0.00  0.00    +0.077 HD
BRANCH 106 109
ATOM    109  O   UNL     1     130.309 166.823 195.340  0.00  0.00    -0.377 OA
ATOM    110  H   UNL     1     130.042 167.661 195.759  0.00  0.00    +0.211 HD
ENDBRANCH 106 109
ENDBRANCH 101 106
ENDBRANCH  98 101
ENDBRANCH  91  97
ENDBRANCH  89  91
BRANCH  89 111
ATOM    111  O   UNL     1     132.022 164.363 198.702  0.00  0.00    -0.460 OA
BRANCH 111 112
ATOM    112  C   UNL     1     132.951 165.346 198.565  0.00  0.00    +0.304 C 
ATOM    113  O   UNL     1     134.063 165.224 198.073  0.00  0.00    -0.251 OA
BRANCH 112 114
ATOM    114  C   UNL     1     132.413 166.629 199.120  0.00  0.00    +0.033 C 
ATOM    115  H   UNL     1     131.628 166.416 199.850  0.00  0.00    +0.034 HD
ATOM    116  H   UNL     1     132.031 167.252 198.308  0.00  0.00    +0.034 HD
ATOM    117  H   UNL     1     133.220 167.171 199.624  0.00  0.00    +0.034 HD
ENDBRANCH 112 114
ENDBRANCH 111 112
ENDBRANCH  89 111
ENDBRANCH  83  89
ENDBRANCH  81  83
ENDBRANCH  78  81
ENDBRANCH  75  78
ENDBRANCH  69  75
ENDBRANCH  67  69
BRANCH  67 118
ATOM    118  O   UNL     1     128.494 158.644 195.152  0.00  0.00    -0.379 OA
BRANCH 118 119
ATOM    119  C   UNL     1     128.171 158.410 193.784  0.00  0.00    +0.037 C 
ATOM    120  H   UNL     1     128.242 157.344 193.550  0.00  0.00    +0.052 HD
ATOM    121  H   UNL     1     127.170 158.779 193.544  0.00  0.00    +0.052 HD
ATOM    122  H   UNL     1     128.896 158.949 193.167  0.00  0.00    +0.052 HD
ENDBRANCH 118 119
ENDBRANCH  67 118
ENDBRANCH  64  67
ENDBRANCH  13  64
BRANCH   8 123
ATOM    123  O   UNL     1     125.043 161.036 199.621  0.00  0.00    -0.391 OA
ATOM    124  H   UNL     1     124.534 160.855 200.438  0.00  0.00    +0.210 HD
ENDBRANCH   8 123
BRANCH  15 125
ATOM    125  O   UNL     1     130.556 156.310 198.295  0.00  0.00    -0.379 OA
BRANCH 125 126
ATOM    126  C   UNL     1     129.671 155.605 199.160  0.00  0.00    +0.037 C 
ATOM    127  H   UNL     1     128.669 156.045 199.120  0.00  0.00    +0.052 HD
ATOM    128  H   UNL     1     129.610 154.569 198.816  0.00  0.00    +0.052 HD
ATOM    129  H   UNL     1     130.044 155.607 200.190  0.00  0.00    +0.052 HD
ENDBRANCH 125 126
ENDBRANCH  15 125
TORSDOF 27
ENDMDL
