MODEL 1
REMARK VINA RESULT:      -5.8      0.000      0.000
REMARK  Name = Ulapualide A_conf3
REMARK  27 active torsions:
REMARK  status: ('A' for Active; 'I' for Inactive)
REMARK    1  A    between atoms: C_1  and  C_2
REMARK    2  A    between atoms: C_9  and  O_63
REMARK    3  A    between atoms: C_14  and  C_38
REMARK    4  A    between atoms: C_15  and  C_37
REMARK    5  A    between atoms: C_16  and  O_35
REMARK    6  A    between atoms: O_35  and  C_36
REMARK    7  A    between atoms: C_38  and  C_39
REMARK    8  A    between atoms: C_39  and  C_40
REMARK    9  A    between atoms: C_39  and  O_61
REMARK   10  A    between atoms: C_40  and  C_41
REMARK   11  A    between atoms: C_40  and  C_42
REMARK   12  A    between atoms: C_42  and  C_43
REMARK   13  A    between atoms: C_43  and  C_44
REMARK   14  A    between atoms: C_44  and  C_46
REMARK   15  A    between atoms: C_46  and  C_47
REMARK   16  A    between atoms: C_46  and  C_48
REMARK   17  A    between atoms: C_48  and  C_49
REMARK   18  A    between atoms: C_48  and  O_57
REMARK   19  A    between atoms: C_49  and  C_50
REMARK   20  A    between atoms: C_49  and  C_51
REMARK   21  A    between atoms: C_52  and  N_53
REMARK   22  A    between atoms: N_53  and  C_54
REMARK   23  A    between atoms: N_53  and  C_55
REMARK   24  A    between atoms: C_55  and  O_56
REMARK   25  A    between atoms: O_57  and  C_58
REMARK   26  A    between atoms: C_58  and  C_60
REMARK   27  A    between atoms: O_61  and  C_62
REMARK                            x       y       z     vdW  Elec       q    Type
REMARK                         _______ _______ _______ _____ _____    ______ ____
ROOT
ATOM      1  C   UNL     1     154.577 165.633 188.927  0.00  0.00    +0.008 C 
ATOM      2  C   UNL     1     154.610 165.954 187.428  0.00  0.00    +0.014 C 
ATOM      3  C   UNL     1     153.290 165.686 186.722  0.00  0.00    +0.134 C 
ATOM      4  O   UNL     1     153.240 164.925 185.755  0.00  0.00    -0.297 OA
ATOM      5  C   UNL     1     152.080 166.458 187.222  0.00  0.00    +0.006 C 
ATOM      6  C   UNL     1     150.876 166.378 186.282  0.00  0.00    -0.044 C 
ATOM      7  C   UNL     1     149.792 167.364 186.720  0.00  0.00    -0.026 C 
ATOM      8  C   UNL     1     148.557 167.369 185.818  0.00  0.00    +0.065 C 
ATOM      9  C   UNL     1     147.784 166.056 185.752  0.00  0.00    +0.071 C 
ATOM     10  C   UNL     1     147.270 165.629 187.103  0.00  0.00    +0.310 C 
ATOM     11  O   UNL     1     147.932 165.023 187.932  0.00  0.00    -0.251 OA
ATOM     12  O   UNL     1     145.982 166.040 187.258  0.00  0.00    -0.461 OA
ATOM     13  C   UNL     1     145.277 165.615 188.446  0.00  0.00    +0.110 C 
ATOM     14  C   UNL     1     144.196 164.571 188.023  0.00  0.00    +0.020 C 
ATOM     15  C   UNL     1     144.772 163.240 187.435  0.00  0.00    +0.068 C 
ATOM     16  C   UNL     1     145.670 162.436 188.420  0.00  0.00    -0.008 C 
ATOM     17  C   UNL     1     144.931 161.267 189.028  0.00  0.00    -0.077 C 
ATOM     18  C   UNL     1     145.431 160.124 189.533  0.00  0.00    -0.003 C 
ATOM     19  C   UNL     1     146.808 159.788 189.650  0.00  0.00    +0.220 A 
ATOM     20  N   UNL     1     147.872 160.577 189.549  0.00  0.00    -0.205 NA
ATOM     21  C   UNL     1     148.956 159.759 189.767  0.00  0.00    +0.164 A 
ATOM     22  C   UNL     1     148.523 158.481 190.001  0.00  0.00    +0.125 A 
ATOM     23  O   UNL     1     147.170 158.480 189.939  0.00  0.00    -0.443 OA
ATOM     24  C   UNL     1     150.469 160.151 189.766  0.00  0.00    +0.250 A 
ATOM     25  N   UNL     1     150.950 161.370 189.589  0.00  0.00    -0.203 NA
ATOM     26  C   UNL     1     152.317 161.205 189.634  0.00  0.00    +0.164 A 
ATOM     27  C   UNL     1     152.618 159.886 189.854  0.00  0.00    +0.125 A 
ATOM     28  O   UNL     1     151.452 159.198 189.953  0.00  0.00    -0.442 OA
ATOM     29  C   UNL     1     153.413 162.306 189.463  0.00  0.00    +0.249 A 
ATOM     30  N   UNL     1     153.180 163.597 189.294  0.00  0.00    -0.212 NA
ATOM     31  C   UNL     1     154.428 164.164 189.165  0.00  0.00    +0.083 A 
ATOM     32  C   UNL     1     155.384 163.182 189.266  0.00  0.00    +0.116 A 
ATOM     33  O   UNL     1     154.757 161.997 189.469  0.00  0.00    -0.442 OA
ATOM     34  H   UNL     1     153.715 166.130 189.390  0.00  0.00    +0.037 HD
ATOM     35  H   UNL     1     155.390 165.371 186.924  0.00  0.00    +0.035 HD
ATOM     36  H   UNL     1     154.847 167.012 187.262  0.00  0.00    +0.035 HD
ATOM     37  H   UNL     1     152.391 167.503 187.327  0.00  0.00    +0.034 HD
ATOM     38  H   UNL     1     151.798 166.073 188.206  0.00  0.00    +0.034 HD
ATOM     39  H   UNL     1     150.494 165.352 186.279  0.00  0.00    +0.027 HD
ATOM     40  H   UNL     1     151.186 166.607 185.255  0.00  0.00    +0.027 HD
ATOM     41  H   UNL     1     150.214 168.379 186.724  0.00  0.00    +0.029 HD
ATOM     42  H   UNL     1     149.502 167.174 187.762  0.00  0.00    +0.029 HD
ATOM     43  H   UNL     1     148.875 167.633 184.801  0.00  0.00    +0.060 HD
ATOM     44  H   UNL     1     146.925 166.160 185.078  0.00  0.00    +0.040 HD
ATOM     45  H   UNL     1     148.392 165.243 185.345  0.00  0.00    +0.040 HD
ATOM     46  H   UNL     1     145.948 165.164 189.178  0.00  0.00    +0.074 HD
ATOM     47  H   UNL     1     143.622 165.032 187.205  0.00  0.00    +0.036 HD
ATOM     48  H   UNL     1     143.899 162.632 187.156  0.00  0.00    +0.060 HD
ATOM     49  H   UNL     1     146.569 162.087 187.904  0.00  0.00    +0.033 HD
ATOM     50  H   UNL     1     146.010 163.069 189.243  0.00  0.00    +0.033 HD
ATOM     51  H   UNL     1     143.847 161.355 189.059  0.00  0.00    +0.057 HD
ATOM     52  H   UNL     1     144.735 159.373 189.895  0.00  0.00    +0.067 HD
ATOM     53  H   UNL     1     149.003 157.538 190.214  0.00  0.00    +0.105 HD
ATOM     54  H   UNL     1     153.530 159.319 189.960  0.00  0.00    +0.105 HD
ATOM     55  H   UNL     1     156.464 163.153 189.214  0.00  0.00    +0.105 HD
ENDROOT
BRANCH   1  56
ATOM     56  C   UNL     1     155.820 166.208 189.613  0.00  0.00    -0.056 C 
ATOM     57  H   UNL     1     156.085 167.182 189.186  0.00  0.00    +0.024 HD
ATOM     58  H   UNL     1     156.688 165.547 189.500  0.00  0.00    +0.024 HD
ATOM     59  H   UNL     1     155.648 166.351 190.685  0.00  0.00    +0.024 HD
ENDBRANCH   1  56
BRANCH  14  60
ATOM     60  C   UNL     1     143.209 164.250 189.156  0.00  0.00    -0.057 C 
ATOM     61  H   UNL     1     142.957 165.144 189.734  0.00  0.00    +0.023 HD
ATOM     62  H   UNL     1     142.282 163.819 188.767  0.00  0.00    +0.023 HD
ATOM     63  H   UNL     1     143.626 163.503 189.839  0.00  0.00    +0.023 HD
ENDBRANCH  14  60
BRANCH  13  64
ATOM     64  C   UNL     1     144.681 166.902 189.052  0.00  0.00    +0.011 C 
ATOM     65  H   UNL     1     143.695 166.687 189.473  0.00  0.00    +0.033 HD
ATOM     66  H   UNL     1     144.567 167.644 188.251  0.00  0.00    +0.033 HD
BRANCH  64  67
ATOM     67  C   UNL     1     145.547 167.505 190.183  0.00  0.00    +0.064 C 
ATOM     68  H   UNL     1     146.403 166.847 190.390  0.00  0.00    +0.060 HD
BRANCH  67  69
ATOM     69  C   UNL     1     146.112 168.903 189.793  0.00  0.00    -0.017 C 
ATOM     70  H   UNL     1     145.995 168.979 188.702  0.00  0.00    +0.032 HD
BRANCH  69  71
ATOM     71  C   UNL     1     145.323 170.075 190.396  0.00  0.00    -0.060 C 
ATOM     72  H   UNL     1     144.889 169.791 191.361  0.00  0.00    +0.023 HD
ATOM     73  H   UNL     1     144.513 170.401 189.735  0.00  0.00    +0.023 HD
ATOM     74  H   UNL     1     145.972 170.936 190.582  0.00  0.00    +0.023 HD
ENDBRANCH  69  71
BRANCH  69  75
ATOM     75  C   UNL     1     147.632 169.039 190.074  0.00  0.00    -0.041 C 
ATOM     76  H   UNL     1     148.121 169.531 189.225  0.00  0.00    +0.027 HD
ATOM     77  H   UNL     1     147.752 169.732 190.918  0.00  0.00    +0.027 HD
BRANCH  75  78
ATOM     78  C   UNL     1     148.369 167.741 190.421  0.00  0.00    +0.007 C 
ATOM     79  H   UNL     1     149.391 167.758 190.046  0.00  0.00    +0.034 HD
ATOM     80  H   UNL     1     147.882 166.873 189.961  0.00  0.00    +0.034 HD
BRANCH  78  81
ATOM     81  C   UNL     1     148.362 167.484 191.921  0.00  0.00    +0.140 C 
ATOM     82  O   UNL     1     147.947 168.354 192.686  0.00  0.00    -0.297 OA
BRANCH  81  83
ATOM     83  C   UNL     1     148.755 166.085 192.415  0.00  0.00    +0.052 C 
ATOM     84  H   UNL     1     147.801 165.610 192.679  0.00  0.00    +0.041 HD
BRANCH  83  85
ATOM     85  C   UNL     1     149.379 165.218 191.322  0.00  0.00    -0.052 C 
ATOM     86  H   UNL     1     149.991 165.811 190.638  0.00  0.00    +0.024 HD
ATOM     87  H   UNL     1     148.603 164.732 190.724  0.00  0.00    +0.024 HD
ATOM     88  H   UNL     1     149.992 164.415 191.740  0.00  0.00    +0.024 HD
ENDBRANCH  83  85
BRANCH  83  89
ATOM     89  C   UNL     1     149.620 166.128 193.705  0.00  0.00    +0.118 C 
ATOM     90  H   UNL     1     149.673 167.155 194.094  0.00  0.00    +0.075 HD
BRANCH  89  91
ATOM     91  C   UNL     1     151.076 165.572 193.583  0.00  0.00    +0.014 C 
ATOM     92  H   UNL     1     151.173 165.136 192.588  0.00  0.00    +0.038 HD
BRANCH  91  93
ATOM     93  C   UNL     1     151.291 164.413 194.569  0.00  0.00    -0.056 C 
ATOM     94  H   UNL     1     150.490 164.370 195.317  0.00  0.00    +0.024 HD
ATOM     95  H   UNL     1     152.244 164.523 195.104  0.00  0.00    +0.024 HD
ATOM     96  H   UNL     1     151.318 163.450 194.051  0.00  0.00    +0.024 HD
ENDBRANCH  91  93
BRANCH  91  97
ATOM     97  C   UNL     1     152.145 166.606 193.826  0.00  0.00    -0.064 C 
ATOM     98  C   UNL     1     152.417 167.737 193.164  0.00  0.00    -0.010 C 
ATOM     99  H   UNL     1     152.757 166.413 194.709  0.00  0.00    +0.059 HD
ATOM    100  H   UNL     1     153.202 168.362 193.604  0.00  0.00    +0.078 HD
BRANCH  98 101
ATOM    101  N   UNL     1     151.903 168.322 192.021  0.00  0.00    -0.317 N 
BRANCH 101 102
ATOM    102  C   UNL     1     151.208 169.606 191.984  0.00  0.00    +0.002 C 
ATOM    103  H   UNL     1     151.900 170.432 192.190  0.00  0.00    +0.043 HD
ATOM    104  H   UNL     1     150.425 169.660 192.750  0.00  0.00    +0.043 HD
ATOM    105  H   UNL     1     150.730 169.756 191.013  0.00  0.00    +0.043 HD
ENDBRANCH 101 102
BRANCH 101 106
ATOM    106  C   UNL     1     152.002 167.656 190.732  0.00  0.00    +0.110 C 
ATOM    107  H   UNL     1     151.177 166.956 190.566  0.00  0.00    +0.077 HD
ATOM    108  H   UNL     1     152.939 167.098 190.638  0.00  0.00    +0.077 HD
BRANCH 106 109
ATOM    109  O   UNL     1     151.954 168.666 189.752  0.00  0.00    -0.377 OA
ATOM    110  H   UNL     1     151.007 168.670 189.533  0.00  0.00    +0.211 HD
ENDBRANCH 106 109
ENDBRANCH 101 106
ENDBRANCH  98 101
ENDBRANCH  91  97
ENDBRANCH  89  91
BRANCH  89 111
ATOM    111  O   UNL     1     148.959 165.286 194.698  0.00  0.00    -0.460 OA
BRANCH 111 112
ATOM    112  C   UNL     1     147.864 165.799 195.316  0.00  0.00    +0.304 C 
ATOM    113  O   UNL     1     146.704 165.503 195.072  0.00  0.00    -0.251 OA
BRANCH 112 114
ATOM    114  C   UNL     1     148.280 166.752 196.397  0.00  0.00    +0.033 C 
ATOM    115  H   UNL     1     148.914 167.546 195.986  0.00  0.00    +0.034 HD
ATOM    116  H   UNL     1     148.831 166.211 197.170  0.00  0.00    +0.034 HD
ATOM    117  H   UNL     1     147.390 167.224 196.824  0.00  0.00    +0.034 HD
ENDBRANCH 112 114
ENDBRANCH 111 112
ENDBRANCH  89 111
ENDBRANCH  83  89
ENDBRANCH  81  83
ENDBRANCH  78  81
ENDBRANCH  75  78
ENDBRANCH  69  75
ENDBRANCH  67  69
BRANCH  67 118
ATOM    118  O   UNL     1     144.719 167.639 191.348  0.00  0.00    -0.379 OA
BRANCH 118 119
ATOM    119  C   UNL     1     144.779 166.508 192.209  0.00  0.00    +0.037 C 
ATOM    120  H   UNL     1     145.760 166.040 192.088  0.00  0.00    +0.052 HD
ATOM    121  H   UNL     1     144.008 165.780 191.944  0.00  0.00    +0.052 HD
ATOM    122  H   UNL     1     144.672 166.800 193.253  0.00  0.00    +0.052 HD
ENDBRANCH 118 119
ENDBRANCH  67 118
ENDBRANCH  64  67
ENDBRANCH  13  64
BRANCH   8 123
ATOM    123  O   UNL     1     147.704 168.431 186.258  0.00  0.00    -0.391 OA
ATOM    124  H   UNL     1     148.256 169.088 186.717  0.00  0.00    +0.210 HD
ENDBRANCH   8 123
BRANCH  15 125
ATOM    125  O   UNL     1     145.451 163.538 186.202  0.00  0.00    -0.379 OA
BRANCH 125 126
ATOM    126  C   UNL     1     144.582 163.628 185.078  0.00  0.00    +0.037 C 
ATOM    127  H   UNL     1     143.717 162.966 185.194  0.00  0.00    +0.052 HD
ATOM    128  H   UNL     1     145.112 163.394 184.153  0.00  0.00    +0.052 HD
ATOM    129  H   UNL     1     144.217 164.655 185.014  0.00  0.00    +0.052 HD
ENDBRANCH 125 126
ENDBRANCH  15 125
TORSDOF 27
ENDMDL
MODEL 2
REMARK VINA RESULT:      -5.6      3.596      7.638
REMARK  Name = Ulapualide A_conf3
REMARK  27 active torsions:
REMARK  status: ('A' for Active; 'I' for Inactive)
REMARK    1  A    between atoms: C_1  and  C_2
REMARK    2  A    between atoms: C_9  and  O_63
REMARK    3  A    between atoms: C_14  and  C_38
REMARK    4  A    between atoms: C_15  and  C_37
REMARK    5  A    between atoms: C_16  and  O_35
REMARK    6  A    between atoms: O_35  and  C_36
REMARK    7  A    between atoms: C_38  and  C_39
REMARK    8  A    between atoms: C_39  and  C_40
REMARK    9  A    between atoms: C_39  and  O_61
REMARK   10  A    between atoms: C_40  and  C_41
REMARK   11  A    between atoms: C_40  and  C_42
REMARK   12  A    between atoms: C_42  and  C_43
REMARK   13  A    between atoms: C_43  and  C_44
REMARK   14  A    between atoms: C_44  and  C_46
REMARK   15  A    between atoms: C_46  and  C_47
REMARK   16  A    between atoms: C_46  and  C_48
REMARK   17  A    between atoms: C_48  and  C_49
REMARK   18  A    between atoms: C_48  and  O_57
REMARK   19  A    between atoms: C_49  and  C_50
REMARK   20  A    between atoms: C_49  and  C_51
REMARK   21  A    between atoms: C_52  and  N_53
REMARK   22  A    between atoms: N_53  and  C_54
REMARK   23  A    between atoms: N_53  and  C_55
REMARK   24  A    between atoms: C_55  and  O_56
REMARK   25  A    between atoms: O_57  and  C_58
REMARK   26  A    between atoms: C_58  and  C_60
REMARK   27  A    between atoms: O_61  and  C_62
REMARK                            x       y       z     vdW  Elec       q    Type
REMARK                         _______ _______ _______ _____ _____    ______ ____
ROOT
ATOM      1  C   UNL     1     151.146 167.284 192.698  0.00  0.00    +0.008 C 
ATOM      2  C   UNL     1     152.020 168.543 192.644  0.00  0.00    +0.014 C 
ATOM      3  C   UNL     1     151.407 169.670 191.828  0.00  0.00    +0.134 C 
ATOM      4  O   UNL     1     152.020 170.161 190.878  0.00  0.00    -0.297 OA
ATOM      5  C   UNL     1     150.059 170.196 192.293  0.00  0.00    +0.006 C 
ATOM      6  C   UNL     1     149.657 171.513 191.629  0.00  0.00    -0.044 C 
ATOM      7  C   UNL     1     148.423 172.101 192.316  0.00  0.00    -0.026 C 
ATOM      8  C   UNL     1     147.964 173.437 191.729  0.00  0.00    +0.065 C 
ATOM      9  C   UNL     1     147.527 173.400 190.269  0.00  0.00    +0.071 C 
ATOM     10  C   UNL     1     146.367 172.465 190.044  0.00  0.00    +0.310 C 
ATOM     11  O   UNL     1     146.475 171.258 189.885  0.00  0.00    -0.251 OA
ATOM     12  O   UNL     1     145.199 173.163 190.070  0.00  0.00    -0.461 OA
ATOM     13  C   UNL     1     143.981 172.453 189.751  0.00  0.00    +0.110 C 
ATOM     14  C   UNL     1     143.479 172.950 188.359  0.00  0.00    +0.020 C 
ATOM     15  C   UNL     1     144.432 172.613 187.164  0.00  0.00    +0.068 C 
ATOM     16  C   UNL     1     144.659 171.090 186.932  0.00  0.00    -0.008 C 
ATOM     17  C   UNL     1     143.838 170.569 185.776  0.00  0.00    -0.077 C 
ATOM     18  C   UNL     1     144.066 169.498 184.995  0.00  0.00    -0.003 C 
ATOM     19  C   UNL     1     145.137 168.572 185.130  0.00  0.00    +0.220 A 
ATOM     20  N   UNL     1     145.963 168.392 186.155  0.00  0.00    -0.205 NA
ATOM     21  C   UNL     1     146.792 167.361 185.781  0.00  0.00    +0.164 A 
ATOM     22  C   UNL     1     146.448 166.931 184.528  0.00  0.00    +0.125 A 
ATOM     23  O   UNL     1     145.400 167.677 184.102  0.00  0.00    -0.443 OA
ATOM     24  C   UNL     1     147.962 166.726 186.600  0.00  0.00    +0.250 A 
ATOM     25  N   UNL     1     148.317 167.066 187.828  0.00  0.00    -0.203 NA
ATOM     26  C   UNL     1     149.405 166.263 188.100  0.00  0.00    +0.164 A 
ATOM     27  C   UNL     1     149.660 165.450 187.028  0.00  0.00    +0.125 A 
ATOM     28  O   UNL     1     148.743 165.720 186.064  0.00  0.00    -0.442 OA
ATOM     29  C   UNL     1     150.263 166.238 189.406  0.00  0.00    +0.249 A 
ATOM     30  N   UNL     1     150.034 166.968 190.486  0.00  0.00    -0.212 NA
ATOM     31  C   UNL     1     151.047 166.633 191.356  0.00  0.00    +0.083 A 
ATOM     32  C   UNL     1     151.861 165.697 190.763  0.00  0.00    +0.116 A 
ATOM     33  O   UNL     1     151.369 165.424 189.529  0.00  0.00    -0.442 OA
ATOM     34  H   UNL     1     150.129 167.557 193.007  0.00  0.00    +0.037 HD
ATOM     35  H   UNL     1     153.005 168.313 192.221  0.00  0.00    +0.035 HD
ATOM     36  H   UNL     1     152.191 168.941 193.652  0.00  0.00    +0.035 HD
ATOM     37  H   UNL     1     150.132 170.342 193.376  0.00  0.00    +0.034 HD
ATOM     38  H   UNL     1     149.296 169.439 192.089  0.00  0.00    +0.034 HD
ATOM     39  H   UNL     1     149.464 171.333 190.566  0.00  0.00    +0.027 HD
ATOM     40  H   UNL     1     150.485 172.231 191.687  0.00  0.00    +0.027 HD
ATOM     41  H   UNL     1     148.647 172.256 193.380  0.00  0.00    +0.029 HD
ATOM     42  H   UNL     1     147.598 171.376 192.303  0.00  0.00    +0.029 HD
ATOM     43  H   UNL     1     148.788 174.155 191.824  0.00  0.00    +0.060 HD
ATOM     44  H   UNL     1     147.225 174.403 189.942  0.00  0.00    +0.040 HD
ATOM     45  H   UNL     1     148.343 173.098 189.605  0.00  0.00    +0.040 HD
ATOM     46  H   UNL     1     144.137 171.373 189.714  0.00  0.00    +0.074 HD
ATOM     47  H   UNL     1     143.450 174.048 188.413  0.00  0.00    +0.036 HD
ATOM     48  H   UNL     1     143.964 173.053 186.272  0.00  0.00    +0.060 HD
ATOM     49  H   UNL     1     145.721 170.895 186.758  0.00  0.00    +0.033 HD
ATOM     50  H   UNL     1     144.379 170.514 187.817  0.00  0.00    +0.033 HD
ATOM     51  H   UNL     1     142.942 171.138 185.536  0.00  0.00    +0.057 HD
ATOM     52  H   UNL     1     143.378 169.299 184.178  0.00  0.00    +0.067 HD
ATOM     53  H   UNL     1     146.809 166.168 183.854  0.00  0.00    +0.105 HD
ATOM     54  H   UNL     1     150.390 164.686 186.806  0.00  0.00    +0.105 HD
ATOM     55  H   UNL     1     152.760 165.169 191.051  0.00  0.00    +0.105 HD
ENDROOT
BRANCH   1  56
ATOM     56  C   UNL     1     151.675 166.325 193.769  0.00  0.00    -0.056 C 
ATOM     57  H   UNL     1     152.770 166.279 193.743  0.00  0.00    +0.024 HD
ATOM     58  H   UNL     1     151.295 165.308 193.626  0.00  0.00    +0.024 HD
ATOM     59  H   UNL     1     151.381 166.654 194.771  0.00  0.00    +0.024 HD
ENDBRANCH   1  56
BRANCH  14  60
ATOM     60  C   UNL     1     142.057 172.466 188.037  0.00  0.00    -0.057 C 
ATOM     61  H   UNL     1     142.010 171.376 187.962  0.00  0.00    +0.023 HD
ATOM     62  H   UNL     1     141.343 172.790 188.800  0.00  0.00    +0.023 HD
ATOM     63  H   UNL     1     141.703 172.893 187.092  0.00  0.00    +0.023 HD
ENDBRANCH  14  60
BRANCH  13  64
ATOM     64  C   UNL     1     143.007 172.769 190.903  0.00  0.00    +0.011 C 
ATOM     65  H   UNL     1     142.948 173.852 191.048  0.00  0.00    +0.033 HD
ATOM     66  H   UNL     1     143.396 172.312 191.823  0.00  0.00    +0.033 HD
BRANCH  64  67
ATOM     67  C   UNL     1     141.570 172.256 190.650  0.00  0.00    +0.064 C 
ATOM     68  H   UNL     1     141.354 172.267 189.572  0.00  0.00    +0.060 HD
BRANCH  67  69
ATOM     69  C   UNL     1     141.383 170.793 191.152  0.00  0.00    -0.017 C 
ATOM     70  H   UNL     1     141.120 170.874 192.217  0.00  0.00    +0.032 HD
BRANCH  69  71
ATOM     71  C   UNL     1     140.222 170.053 190.474  0.00  0.00    -0.060 C 
ATOM     72  H   UNL     1     139.634 169.499 191.214  0.00  0.00    +0.023 HD
ATOM     73  H   UNL     1     140.578 169.346 189.716  0.00  0.00    +0.023 HD
ATOM     74  H   UNL     1     139.537 170.752 189.986  0.00  0.00    +0.023 HD
ENDBRANCH  69  71
BRANCH  69  75
ATOM     75  C   UNL     1     142.694 169.965 191.094  0.00  0.00    -0.041 C 
ATOM     76  H   UNL     1     143.519 170.604 190.759  0.00  0.00    +0.027 HD
ATOM     77  H   UNL     1     142.950 169.678 192.123  0.00  0.00    +0.027 HD
BRANCH  75  78
ATOM     78  C   UNL     1     142.644 168.688 190.248  0.00  0.00    +0.007 C 
ATOM     79  H   UNL     1     143.431 168.686 189.494  0.00  0.00    +0.034 HD
ATOM     80  H   UNL     1     141.694 168.606 189.708  0.00  0.00    +0.034 HD
BRANCH  78  81
ATOM     81  C   UNL     1     142.746 167.443 191.117  0.00  0.00    +0.140 C 
ATOM     82  O   UNL     1     141.858 166.592 191.069  0.00  0.00    -0.297 OA
BRANCH  81  83
ATOM     83  C   UNL     1     144.030 167.234 191.931  0.00  0.00    +0.052 C 
ATOM     84  H   UNL     1     144.239 168.219 192.370  0.00  0.00    +0.041 HD
BRANCH  83  85
ATOM     85  C   UNL     1     143.844 166.272 193.104  0.00  0.00    -0.052 C 
ATOM     86  H   UNL     1     143.163 166.680 193.855  0.00  0.00    +0.024 HD
ATOM     87  H   UNL     1     144.799 166.081 193.603  0.00  0.00    +0.024 HD
ATOM     88  H   UNL     1     143.469 165.299 192.777  0.00  0.00    +0.024 HD
ENDBRANCH  83  85
BRANCH  83  89
ATOM     89  C   UNL     1     145.247 166.858 191.042  0.00  0.00    +0.118 C 
ATOM     90  H   UNL     1     145.570 167.725 190.450  0.00  0.00    +0.075 HD
BRANCH  89  91
ATOM     91  C   UNL     1     145.051 165.647 190.073  0.00  0.00    +0.014 C 
ATOM     92  H   UNL     1     144.236 165.041 190.473  0.00  0.00    +0.038 HD
BRANCH  91  93
ATOM     93  C   UNL     1     146.291 164.740 190.090  0.00  0.00    -0.056 C 
ATOM     94  H   UNL     1     146.018 163.684 189.975  0.00  0.00    +0.024 HD
ATOM     95  H   UNL     1     146.840 164.843 191.035  0.00  0.00    +0.024 HD
ATOM     96  H   UNL     1     146.983 164.997 189.282  0.00  0.00    +0.024 HD
ENDBRANCH  91  93
BRANCH  91  97
ATOM     97  C   UNL     1     144.776 166.047 188.646  0.00  0.00    -0.064 C 
ATOM     98  C   UNL     1     143.732 165.766 187.857  0.00  0.00    -0.010 C 
ATOM     99  H   UNL     1     145.533 166.706 188.216  0.00  0.00    +0.059 HD
ATOM    100  H   UNL     1     143.736 166.257 186.879  0.00  0.00    +0.078 HD
BRANCH  98 101
ATOM    101  N   UNL     1     142.603 164.980 188.011  0.00  0.00    -0.317 N 
BRANCH 101 102
ATOM    102  C   UNL     1     141.233 165.451 187.833  0.00  0.00    +0.002 C 
ATOM    103  H   UNL     1     141.202 166.543 187.739  0.00  0.00    +0.043 HD
ATOM    104  H   UNL     1     140.607 165.197 188.697  0.00  0.00    +0.043 HD
ATOM    105  H   UNL     1     140.780 164.991 186.952  0.00  0.00    +0.043 HD
ENDBRANCH 101 102
BRANCH 101 106
ATOM    106  C   UNL     1     142.712 163.584 188.401  0.00  0.00    +0.110 C 
ATOM    107  H   UNL     1     143.433 163.437 189.211  0.00  0.00    +0.077 HD
ATOM    108  H   UNL     1     143.022 162.954 187.560  0.00  0.00    +0.077 HD
BRANCH 106 109
ATOM    109  O   UNL     1     141.435 163.187 188.841  0.00  0.00    -0.377 OA
ATOM    110  H   UNL     1     141.353 162.316 188.418  0.00  0.00    +0.211 HD
ENDBRANCH 106 109
ENDBRANCH 101 106
ENDBRANCH  98 101
ENDBRANCH  91  97
ENDBRANCH  89  91
BRANCH  89 111
ATOM    111  O   UNL     1     146.335 166.472 191.937  0.00  0.00    -0.460 OA
BRANCH 111 112
ATOM    112  C   UNL     1     147.134 167.465 192.404  0.00  0.00    +0.304 C 
ATOM    113  O   UNL     1     147.304 168.553 191.874  0.00  0.00    -0.251 OA
BRANCH 112 114
ATOM    114  C   UNL     1     147.748 167.063 193.713  0.00  0.00    +0.033 C 
ATOM    115  H   UNL     1     146.996 166.604 194.365  0.00  0.00    +0.034 HD
ATOM    116  H   UNL     1     148.167 167.944 194.206  0.00  0.00    +0.034 HD
ATOM    117  H   UNL     1     148.530 166.320 193.532  0.00  0.00    +0.034 HD
ENDBRANCH 112 114
ENDBRANCH 111 112
ENDBRANCH  89 111
ENDBRANCH  83  89
ENDBRANCH  81  83
ENDBRANCH  78  81
ENDBRANCH  75  78
ENDBRANCH  69  75
ENDBRANCH  67  69
BRANCH  67 118
ATOM    118  O   UNL     1     140.664 173.115 191.357  0.00  0.00    -0.379 OA
BRANCH 118 119
ATOM    119  C   UNL     1     140.861 174.495 191.066  0.00  0.00    +0.037 C 
ATOM    120  H   UNL     1     141.932 174.706 191.131  0.00  0.00    +0.052 HD
ATOM    121  H   UNL     1     140.335 175.121 191.791  0.00  0.00    +0.052 HD
ATOM    122  H   UNL     1     140.530 174.737 190.056  0.00  0.00    +0.052 HD
ENDBRANCH 118 119
ENDBRANCH  67 118
ENDBRANCH  64  67
ENDBRANCH  13  64
BRANCH   8 123
ATOM    123  O   UNL     1     146.905 173.931 192.556  0.00  0.00    -0.391 OA
ATOM    124  H   UNL     1     146.133 174.098 191.987  0.00  0.00    +0.210 HD
ENDBRANCH   8 123
BRANCH  15 125
ATOM    125  O   UNL     1     145.668 173.324 187.348  0.00  0.00    -0.379 OA
BRANCH 125 126
ATOM    126  C   UNL     1     146.133 173.978 186.172  0.00  0.00    +0.037 C 
ATOM    127  H   UNL     1     145.330 174.551 185.696  0.00  0.00    +0.052 HD
ATOM    128  H   UNL     1     146.552 173.261 185.464  0.00  0.00    +0.052 HD
ATOM    129  H   UNL     1     146.921 174.675 186.462  0.00  0.00    +0.052 HD
ENDBRANCH 125 126
ENDBRANCH  15 125
TORSDOF 27
ENDMDL
MODEL 3
REMARK VINA RESULT:      -5.6      6.631     11.822
REMARK  Name = Ulapualide A_conf3
REMARK  27 active torsions:
REMARK  status: ('A' for Active; 'I' for Inactive)
REMARK    1  A    between atoms: C_1  and  C_2
REMARK    2  A    between atoms: C_9  and  O_63
REMARK    3  A    between atoms: C_14  and  C_38
REMARK    4  A    between atoms: C_15  and  C_37
REMARK    5  A    between atoms: C_16  and  O_35
REMARK    6  A    between atoms: O_35  and  C_36
REMARK    7  A    between atoms: C_38  and  C_39
REMARK    8  A    between atoms: C_39  and  C_40
REMARK    9  A    between atoms: C_39  and  O_61
REMARK   10  A    between atoms: C_40  and  C_41
REMARK   11  A    between atoms: C_40  and  C_42
REMARK   12  A    between atoms: C_42  and  C_43
REMARK   13  A    between atoms: C_43  and  C_44
REMARK   14  A    between atoms: C_44  and  C_46
REMARK   15  A    between atoms: C_46  and  C_47
REMARK   16  A    between atoms: C_46  and  C_48
REMARK   17  A    between atoms: C_48  and  C_49
REMARK   18  A    between atoms: C_48  and  O_57
REMARK   19  A    between atoms: C_49  and  C_50
REMARK   20  A    between atoms: C_49  and  C_51
REMARK   21  A    between atoms: C_52  and  N_53
REMARK   22  A    between atoms: N_53  and  C_54
REMARK   23  A    between atoms: N_53  and  C_55
REMARK   24  A    between atoms: C_55  and  O_56
REMARK   25  A    between atoms: O_57  and  C_58
REMARK   26  A    between atoms: C_58  and  C_60
REMARK   27  A    between atoms: O_61  and  C_62
REMARK                            x       y       z     vdW  Elec       q    Type
REMARK                         _______ _______ _______ _____ _____    ______ ____
ROOT
ATOM      1  C   UNL     1     144.169 180.359 189.694  0.00  0.00    +0.008 C 
ATOM      2  C   UNL     1     142.661 180.140 189.867  0.00  0.00    +0.014 C 
ATOM      3  C   UNL     1     142.202 178.747 189.463  0.00  0.00    +0.134 C 
ATOM      4  O   UNL     1     141.327 178.599 188.608  0.00  0.00    -0.297 OA
ATOM      5  C   UNL     1     142.817 177.580 190.217  0.00  0.00    +0.006 C 
ATOM      6  C   UNL     1     142.092 176.254 189.983  0.00  0.00    -0.044 C 
ATOM      7  C   UNL     1     142.607 175.188 190.951  0.00  0.00    -0.026 C 
ATOM      8  C   UNL     1     141.917 173.830 190.803  0.00  0.00    +0.065 C 
ATOM      9  C   UNL     1     142.093 173.145 189.452  0.00  0.00    +0.071 C 
ATOM     10  C   UNL     1     143.541 172.874 189.135  0.00  0.00    +0.310 C 
ATOM     11  O   UNL     1     144.305 173.695 188.648  0.00  0.00    -0.251 OA
ATOM     12  O   UNL     1     143.862 171.601 189.492  0.00  0.00    -0.461 OA
ATOM     13  C   UNL     1     145.181 171.117 189.151  0.00  0.00    +0.110 C 
ATOM     14  C   UNL     1     145.031 170.055 188.016  0.00  0.00    +0.020 C 
ATOM     15  C   UNL     1     144.479 170.621 186.665  0.00  0.00    +0.068 C 
ATOM     16  C   UNL     1     145.377 171.712 186.009  0.00  0.00    -0.008 C 
ATOM     17  C   UNL     1     146.197 171.154 184.869  0.00  0.00    -0.077 C 
ATOM     18  C   UNL     1     146.716 171.800 183.810  0.00  0.00    -0.003 C 
ATOM     19  C   UNL     1     146.642 173.198 183.558  0.00  0.00    +0.220 A 
ATOM     20  N   UNL     1     146.302 174.179 184.386  0.00  0.00    -0.205 NA
ATOM     21  C   UNL     1     146.416 175.336 183.650  0.00  0.00    +0.164 A 
ATOM     22  C   UNL     1     146.829 175.029 182.382  0.00  0.00    +0.125 A 
ATOM     23  O   UNL     1     146.984 173.686 182.304  0.00  0.00    -0.443 OA
ATOM     24  C   UNL     1     146.139 176.801 184.117  0.00  0.00    +0.250 A 
ATOM     25  N   UNL     1     145.780 177.167 185.336  0.00  0.00    -0.203 NA
ATOM     26  C   UNL     1     145.620 178.533 185.247  0.00  0.00    +0.164 A 
ATOM     27  C   UNL     1     145.906 178.951 183.973  0.00  0.00    +0.125 A 
ATOM     28  O   UNL     1     146.251 177.862 183.240  0.00  0.00    -0.442 OA
ATOM     29  C   UNL     1     145.178 179.514 186.381  0.00  0.00    +0.249 A 
ATOM     30  N   UNL     1     144.934 179.173 187.635  0.00  0.00    -0.212 NA
ATOM     31  C   UNL     1     144.558 180.346 188.250  0.00  0.00    +0.083 A 
ATOM     32  C   UNL     1     144.593 181.369 187.333  0.00  0.00    +0.116 A 
ATOM     33  O   UNL     1     144.998 180.861 186.143  0.00  0.00    -0.442 OA
ATOM     34  H   UNL     1     144.716 179.547 190.189  0.00  0.00    +0.037 HD
ATOM     35  H   UNL     1     142.093 180.870 189.278  0.00  0.00    +0.035 HD
ATOM     36  H   UNL     1     142.365 180.278 190.914  0.00  0.00    +0.035 HD
ATOM     37  H   UNL     1     142.777 177.833 191.282  0.00  0.00    +0.034 HD
ATOM     38  H   UNL     1     143.864 177.479 189.917  0.00  0.00    +0.034 HD
ATOM     39  H   UNL     1     142.242 175.944 188.944  0.00  0.00    +0.027 HD
ATOM     40  H   UNL     1     141.012 176.386 190.125  0.00  0.00    +0.027 HD
ATOM     41  H   UNL     1     142.454 175.536 191.981  0.00  0.00    +0.029 HD
ATOM     42  H   UNL     1     143.695 175.074 190.850  0.00  0.00    +0.029 HD
ATOM     43  H   UNL     1     140.843 173.970 190.981  0.00  0.00    +0.060 HD
ATOM     44  H   UNL     1     141.558 172.188 189.445  0.00  0.00    +0.040 HD
ATOM     45  H   UNL     1     141.669 173.736 188.635  0.00  0.00    +0.040 HD
ATOM     46  H   UNL     1     145.834 171.921 188.809  0.00  0.00    +0.074 HD
ATOM     47  H   UNL     1     144.277 169.334 188.364  0.00  0.00    +0.036 HD
ATOM     48  H   UNL     1     144.399 169.758 185.988  0.00  0.00    +0.060 HD
ATOM     49  H   UNL     1     144.758 172.541 185.657  0.00  0.00    +0.033 HD
ATOM     50  H   UNL     1     146.075 172.132 186.737  0.00  0.00    +0.033 HD
ATOM     51  H   UNL     1     146.393 170.084 184.904  0.00  0.00    +0.057 HD
ATOM     52  H   UNL     1     147.250 171.220 183.063  0.00  0.00    +0.067 HD
ATOM     53  H   UNL     1     147.047 175.598 181.490  0.00  0.00    +0.105 HD
ATOM     54  H   UNL     1     145.916 179.904 183.467  0.00  0.00    +0.105 HD
ATOM     55  H   UNL     1     144.371 182.427 187.354  0.00  0.00    +0.105 HD
ENDROOT
BRANCH   1  56
ATOM     56  C   UNL     1     144.593 181.652 190.396  0.00  0.00    -0.056 C 
ATOM     57  H   UNL     1     144.197 181.688 191.418  0.00  0.00    +0.024 HD
ATOM     58  H   UNL     1     144.230 182.540 189.866  0.00  0.00    +0.024 HD
ATOM     59  H   UNL     1     145.684 181.725 190.461  0.00  0.00    +0.024 HD
ENDBRANCH   1  56
BRANCH  14  60
ATOM     60  C   UNL     1     146.330 169.278 187.759  0.00  0.00    -0.057 C 
ATOM     61  H   UNL     1     147.177 169.952 187.601  0.00  0.00    +0.023 HD
ATOM     62  H   UNL     1     146.570 168.614 188.594  0.00  0.00    +0.023 HD
ATOM     63  H   UNL     1     146.233 168.634 186.878  0.00  0.00    +0.023 HD
ENDBRANCH  14  60
BRANCH  13  64
ATOM     64  C   UNL     1     145.757 170.538 190.459  0.00  0.00    +0.011 C 
ATOM     65  H   UNL     1     146.172 169.544 190.269  0.00  0.00    +0.033 HD
ATOM     66  H   UNL     1     144.940 170.445 191.187  0.00  0.00    +0.033 HD
BRANCH  64  67
ATOM     67  C   UNL     1     146.885 171.404 191.069  0.00  0.00    +0.064 C 
ATOM     68  H   UNL     1     146.743 171.490 192.155  0.00  0.00    +0.060 HD
BRANCH  67  69
ATOM     69  C   UNL     1     148.289 170.775 190.826  0.00  0.00    -0.017 C 
ATOM     70  H   UNL     1     148.518 170.956 189.765  0.00  0.00    +0.032 HD
BRANCH  69  71
ATOM     71  C   UNL     1     149.411 171.445 191.632  0.00  0.00    -0.060 C 
ATOM     72  H   UNL     1     150.322 171.526 191.028  0.00  0.00    +0.023 HD
ATOM     73  H   UNL     1     149.648 170.883 192.542  0.00  0.00    +0.023 HD
ATOM     74  H   UNL     1     149.136 172.461 191.926  0.00  0.00    +0.023 HD
ENDBRANCH  69  71
BRANCH  69  75
ATOM     75  C   UNL     1     148.299 169.234 191.012  0.00  0.00    -0.041 C 
ATOM     76  H   UNL     1     147.317 168.825 190.748  0.00  0.00    +0.027 HD
ATOM     77  H   UNL     1     148.995 168.816 190.272  0.00  0.00    +0.027 HD
BRANCH  75  78
ATOM     78  C   UNL     1     148.722 168.728 192.396  0.00  0.00    +0.007 C 
ATOM     79  H   UNL     1     148.768 169.545 193.115  0.00  0.00    +0.034 HD
ATOM     80  H   UNL     1     149.722 168.281 192.367  0.00  0.00    +0.034 HD
BRANCH  78  81
ATOM     81  C   UNL     1     147.785 167.639 192.897  0.00  0.00    +0.140 C 
ATOM     82  O   UNL     1     146.805 167.320 192.222  0.00  0.00    -0.297 OA
BRANCH  81  83
ATOM     83  C   UNL     1     148.174 166.883 194.174  0.00  0.00    +0.052 C 
ATOM     84  H   UNL     1     148.125 167.642 194.967  0.00  0.00    +0.041 HD
BRANCH  83  85
ATOM     85  C   UNL     1     147.168 165.798 194.557  0.00  0.00    -0.052 C 
ATOM     86  H   UNL     1     147.484 164.813 194.205  0.00  0.00    +0.024 HD
ATOM     87  H   UNL     1     146.190 166.003 194.111  0.00  0.00    +0.024 HD
ATOM     88  H   UNL     1     147.008 165.754 195.638  0.00  0.00    +0.024 HD
ENDBRANCH  83  85
BRANCH  83  89
ATOM     89  C   UNL     1     149.633 166.352 194.134  0.00  0.00    +0.118 C 
ATOM     90  H   UNL     1     150.330 167.125 194.487  0.00  0.00    +0.075 HD
BRANCH  89  91
ATOM     91  C   UNL     1     150.142 165.825 192.753  0.00  0.00    +0.014 C 
ATOM     92  H   UNL     1     149.439 166.175 191.994  0.00  0.00    +0.038 HD
BRANCH  91  93
ATOM     93  C   UNL     1     150.074 164.291 192.707  0.00  0.00    -0.056 C 
ATOM     94  H   UNL     1     149.374 163.943 191.937  0.00  0.00    +0.024 HD
ATOM     95  H   UNL     1     149.742 163.883 193.671  0.00  0.00    +0.024 HD
ATOM     96  H   UNL     1     151.055 163.855 192.490  0.00  0.00    +0.024 HD
ENDBRANCH  91  93
BRANCH  91  97
ATOM     97  C   UNL     1     151.550 166.248 192.421  0.00  0.00    -0.064 C 
ATOM     98  C   UNL     1     152.164 166.346 191.236  0.00  0.00    -0.010 C 
ATOM     99  H   UNL     1     152.135 166.563 193.287  0.00  0.00    +0.059 HD
ATOM    100  H   UNL     1     153.175 166.766 191.264  0.00  0.00    +0.078 HD
BRANCH  98 101
ATOM    101  N   UNL     1     151.792 166.040 189.939  0.00  0.00    -0.317 N 
BRANCH 101 102
ATOM    102  C   UNL     1     151.925 164.722 189.325  0.00  0.00    +0.002 C 
ATOM    103  H   UNL     1     151.751 164.773 188.244  0.00  0.00    +0.043 HD
ATOM    104  H   UNL     1     151.185 164.017 189.725  0.00  0.00    +0.043 HD
ATOM    105  H   UNL     1     152.916 164.305 189.522  0.00  0.00    +0.043 HD
ENDBRANCH 101 102
BRANCH 101 106
ATOM    106  C   UNL     1     151.246 167.060 189.058  0.00  0.00    +0.110 C 
ATOM    107  H   UNL     1     150.228 167.347 189.341  0.00  0.00    +0.077 HD
ATOM    108  H   UNL     1     151.220 166.721 188.017  0.00  0.00    +0.077 HD
BRANCH 106 109
ATOM    109  O   UNL     1     152.090 168.182 189.169  0.00  0.00    -0.377 OA
ATOM    110  H   UNL     1     152.551 167.987 190.002  0.00  0.00    +0.211 HD
ENDBRANCH 106 109
ENDBRANCH 101 106
ENDBRANCH  98 101
ENDBRANCH  91  97
ENDBRANCH  89  91
BRANCH  89 111
ATOM    111  O   UNL     1     149.704 165.210 195.041  0.00  0.00    -0.460 OA
BRANCH 111 112
ATOM    112  C   UNL     1     150.464 165.351 196.157  0.00  0.00    +0.304 C 
ATOM    113  O   UNL     1     150.537 166.357 196.847  0.00  0.00    -0.251 OA
BRANCH 112 114
ATOM    114  C   UNL     1     151.169 164.064 196.468  0.00  0.00    +0.033 C 
ATOM    115  H   UNL     1     150.457 163.310 196.821  0.00  0.00    +0.034 HD
ATOM    116  H   UNL     1     151.924 164.238 197.240  0.00  0.00    +0.034 HD
ATOM    117  H   UNL     1     151.639 163.680 195.558  0.00  0.00    +0.034 HD
ENDBRANCH 112 114
ENDBRANCH 111 112
ENDBRANCH  89 111
ENDBRANCH  83  89
ENDBRANCH  81  83
ENDBRANCH  78  81
ENDBRANCH  75  78
ENDBRANCH  69  75
ENDBRANCH  67  69
BRANCH  67 118
ATOM    118  O   UNL     1     146.834 172.696 190.447  0.00  0.00    -0.379 OA
BRANCH 118 119
ATOM    119  C   UNL     1     146.469 173.736 191.348  0.00  0.00    +0.037 C 
ATOM    120  H   UNL     1     146.033 173.275 192.239  0.00  0.00    +0.052 HD
ATOM    121  H   UNL     1     145.726 174.397 190.894  0.00  0.00    +0.052 HD
ATOM    122  H   UNL     1     147.340 174.313 191.659  0.00  0.00    +0.052 HD
ENDBRANCH 118 119
ENDBRANCH  67 118
ENDBRANCH  64  67
ENDBRANCH  13  64
BRANCH   8 123
ATOM    123  O   UNL     1     142.391 172.987 191.858  0.00  0.00    -0.391 OA
ATOM    124  H   UNL     1     142.287 173.469 192.697  0.00  0.00    +0.210 HD
ENDBRANCH   8 123
BRANCH  15 125
ATOM    125  O   UNL     1     143.133 171.081 186.874  0.00  0.00    -0.379 OA
BRANCH 125 126
ATOM    126  C   UNL     1     142.578 171.757 185.751  0.00  0.00    +0.037 C 
ATOM    127  H   UNL     1     141.595 171.350 185.492  0.00  0.00    +0.052 HD
ATOM    128  H   UNL     1     143.246 171.700 184.890  0.00  0.00    +0.052 HD
ATOM    129  H   UNL     1     142.452 172.808 186.018  0.00  0.00    +0.052 HD
ENDBRANCH 125 126
ENDBRANCH  15 125
TORSDOF 27
ENDMDL
MODEL 4
REMARK VINA RESULT:      -5.5      3.286      7.241
REMARK  Name = Ulapualide A_conf3
REMARK  27 active torsions:
REMARK  status: ('A' for Active; 'I' for Inactive)
REMARK    1  A    between atoms: C_1  and  C_2
REMARK    2  A    between atoms: C_9  and  O_63
REMARK    3  A    between atoms: C_14  and  C_38
REMARK    4  A    between atoms: C_15  and  C_37
REMARK    5  A    between atoms: C_16  and  O_35
REMARK    6  A    between atoms: O_35  and  C_36
REMARK    7  A    between atoms: C_38  and  C_39
REMARK    8  A    between atoms: C_39  and  C_40
REMARK    9  A    between atoms: C_39  and  O_61
REMARK   10  A    between atoms: C_40  and  C_41
REMARK   11  A    between atoms: C_40  and  C_42
REMARK   12  A    between atoms: C_42  and  C_43
REMARK   13  A    between atoms: C_43  and  C_44
REMARK   14  A    between atoms: C_44  and  C_46
REMARK   15  A    between atoms: C_46  and  C_47
REMARK   16  A    between atoms: C_46  and  C_48
REMARK   17  A    between atoms: C_48  and  C_49
REMARK   18  A    between atoms: C_48  and  O_57
REMARK   19  A    between atoms: C_49  and  C_50
REMARK   20  A    between atoms: C_49  and  C_51
REMARK   21  A    between atoms: C_52  and  N_53
REMARK   22  A    between atoms: N_53  and  C_54
REMARK   23  A    between atoms: N_53  and  C_55
REMARK   24  A    between atoms: C_55  and  O_56
REMARK   25  A    between atoms: O_57  and  C_58
REMARK   26  A    between atoms: C_58  and  C_60
REMARK   27  A    between atoms: O_61  and  C_62
REMARK                            x       y       z     vdW  Elec       q    Type
REMARK                         _______ _______ _______ _____ _____    ______ ____
ROOT
ATOM      1  C   UNL     1     151.366 167.549 192.589  0.00  0.00    +0.008 C 
ATOM      2  C   UNL     1     152.082 168.900 192.693  0.00  0.00    +0.014 C 
ATOM      3  C   UNL     1     151.422 169.999 191.875  0.00  0.00    +0.134 C 
ATOM      4  O   UNL     1     152.062 170.616 191.022  0.00  0.00    -0.297 OA
ATOM      5  C   UNL     1     149.980 170.336 192.220  0.00  0.00    +0.006 C 
ATOM      6  C   UNL     1     149.490 171.638 191.586  0.00  0.00    -0.044 C 
ATOM      7  C   UNL     1     148.132 172.035 192.167  0.00  0.00    -0.026 C 
ATOM      8  C   UNL     1     147.575 173.344 191.604  0.00  0.00    +0.065 C 
ATOM      9  C   UNL     1     147.294 173.350 190.105  0.00  0.00    +0.071 C 
ATOM     10  C   UNL     1     146.284 172.304 189.711  0.00  0.00    +0.310 C 
ATOM     11  O   UNL     1     146.553 171.129 189.502  0.00  0.00    -0.251 OA
ATOM     12  O   UNL     1     145.043 172.859 189.648  0.00  0.00    -0.461 OA
ATOM     13  C   UNL     1     143.958 172.036 189.165  0.00  0.00    +0.110 C 
ATOM     14  C   UNL     1     143.540 172.559 187.755  0.00  0.00    +0.020 C 
ATOM     15  C   UNL     1     144.641 172.411 186.653  0.00  0.00    +0.068 C 
ATOM     16  C   UNL     1     145.074 170.942 186.368  0.00  0.00    -0.008 C 
ATOM     17  C   UNL     1     144.440 170.404 185.106  0.00  0.00    -0.077 C 
ATOM     18  C   UNL     1     144.873 169.418 184.300  0.00  0.00    -0.003 C 
ATOM     19  C   UNL     1     146.029 168.614 184.501  0.00  0.00    +0.220 A 
ATOM     20  N   UNL     1     146.764 168.467 185.597  0.00  0.00    -0.205 NA
ATOM     21  C   UNL     1     147.746 167.563 185.261  0.00  0.00    +0.164 A 
ATOM     22  C   UNL     1     147.582 167.177 183.958  0.00  0.00    +0.125 A 
ATOM     23  O   UNL     1     146.500 167.823 183.462  0.00  0.00    -0.443 OA
ATOM     24  C   UNL     1     148.896 167.016 186.166  0.00  0.00    +0.250 A 
ATOM     25  N   UNL     1     149.084 167.316 187.441  0.00  0.00    -0.203 NA
ATOM     26  C   UNL     1     150.227 166.628 187.786  0.00  0.00    +0.164 A 
ATOM     27  C   UNL     1     150.685 165.919 186.706  0.00  0.00    +0.125 A 
ATOM     28  O   UNL     1     149.843 166.143 185.666  0.00  0.00    -0.442 OA
ATOM     29  C   UNL     1     150.948 166.619 189.173  0.00  0.00    +0.249 A 
ATOM     30  N   UNL     1     150.526 167.247 190.258  0.00  0.00    -0.212 NA
ATOM     31  C   UNL     1     151.481 166.977 191.212  0.00  0.00    +0.083 A 
ATOM     32  C   UNL     1     152.457 166.180 190.663  0.00  0.00    +0.116 A 
ATOM     33  O   UNL     1     152.127 165.932 189.371  0.00  0.00    -0.442 OA
ATOM     34  H   UNL     1     150.298 167.682 192.802  0.00  0.00    +0.037 HD
ATOM     35  H   UNL     1     153.125 168.813 192.366  0.00  0.00    +0.035 HD
ATOM     36  H   UNL     1     152.103 169.251 193.732  0.00  0.00    +0.035 HD
ATOM     37  H   UNL     1     149.927 170.420 193.311  0.00  0.00    +0.034 HD
ATOM     38  H   UNL     1     149.339 169.511 191.898  0.00  0.00    +0.034 HD
ATOM     39  H   UNL     1     149.428 171.504 190.501  0.00  0.00    +0.027 HD
ATOM     40  H   UNL     1     150.215 172.441 191.768  0.00  0.00    +0.027 HD
ATOM     41  H   UNL     1     148.228 172.147 193.255  0.00  0.00    +0.029 HD
ATOM     42  H   UNL     1     147.406 171.222 192.029  0.00  0.00    +0.029 HD
ATOM     43  H   UNL     1     148.293 174.145 191.823  0.00  0.00    +0.060 HD
ATOM     44  H   UNL     1     146.907 174.329 189.800  0.00  0.00    +0.040 HD
ATOM     45  H   UNL     1     148.202 173.187 189.518  0.00  0.00    +0.040 HD
ATOM     46  H   UNL     1     144.246 170.986 189.089  0.00  0.00    +0.074 HD
ATOM     47  H   UNL     1     143.374 173.642 187.862  0.00  0.00    +0.036 HD
ATOM     48  H   UNL     1     144.215 172.850 185.740  0.00  0.00    +0.060 HD
ATOM     49  H   UNL     1     146.163 170.881 186.298  0.00  0.00    +0.033 HD
ATOM     50  H   UNL     1     144.778 170.282 187.187  0.00  0.00    +0.033 HD
ATOM     51  H   UNL     1     143.510 170.880 184.802  0.00  0.00    +0.057 HD
ATOM     52  H   UNL     1     144.299 169.194 183.406  0.00  0.00    +0.067 HD
ATOM     53  H   UNL     1     148.098 166.505 183.289  0.00  0.00    +0.105 HD
ATOM     54  H   UNL     1     151.520 165.261 186.525  0.00  0.00    +0.105 HD
ATOM     55  H   UNL     1     153.380 165.742 191.017  0.00  0.00    +0.105 HD
ENDROOT
BRANCH   1  56
ATOM     56  C   UNL     1     151.898 166.591 193.660  0.00  0.00    -0.056 C 
ATOM     57  H   UNL     1     152.978 166.720 193.794  0.00  0.00    +0.024 HD
ATOM     58  H   UNL     1     151.717 165.544 193.393  0.00  0.00    +0.024 HD
ATOM     59  H   UNL     1     151.419 166.777 194.627  0.00  0.00    +0.024 HD
ENDBRANCH   1  56
BRANCH  14  60
ATOM     60  C   UNL     1     142.227 171.937 187.259  0.00  0.00    -0.057 C 
ATOM     61  H   UNL     1     142.300 170.848 187.186  0.00  0.00    +0.023 HD
ATOM     62  H   UNL     1     141.393 172.182 187.924  0.00  0.00    +0.023 HD
ATOM     63  H   UNL     1     141.953 172.332 186.274  0.00  0.00    +0.023 HD
ENDBRANCH  14  60
BRANCH  13  64
ATOM     64  C   UNL     1     142.843 172.164 190.221  0.00  0.00    +0.011 C 
ATOM     65  H   UNL     1     142.234 173.047 190.007  0.00  0.00    +0.033 HD
ATOM     66  H   UNL     1     143.310 172.290 191.207  0.00  0.00    +0.033 HD
BRANCH  64  67
ATOM     67  C   UNL     1     141.893 170.944 190.263  0.00  0.00    +0.064 C 
ATOM     68  H   UNL     1     141.390 170.830 189.292  0.00  0.00    +0.060 HD
BRANCH  67  69
ATOM     69  C   UNL     1     142.664 169.622 190.552  0.00  0.00    -0.017 C 
ATOM     70  H   UNL     1     143.728 169.899 190.587  0.00  0.00    +0.032 HD
BRANCH  69  71
ATOM     71  C   UNL     1     142.332 169.002 191.916  0.00  0.00    -0.060 C 
ATOM     72  H   UNL     1     141.403 168.423 191.860  0.00  0.00    +0.023 HD
ATOM     73  H   UNL     1     142.217 169.766 192.692  0.00  0.00    +0.023 HD
ATOM     74  H   UNL     1     143.115 168.310 192.239  0.00  0.00    +0.023 HD
ENDBRANCH  69  71
BRANCH  69  75
ATOM     75  C   UNL     1     142.528 168.583 189.408  0.00  0.00    -0.041 C 
ATOM     76  H   UNL     1     142.142 167.639 189.812  0.00  0.00    +0.027 HD
ATOM     77  H   UNL     1     141.749 168.944 188.723  0.00  0.00    +0.027 HD
BRANCH  75  78
ATOM     78  C   UNL     1     143.794 168.320 188.585  0.00  0.00    +0.007 C 
ATOM     79  H   UNL     1     144.691 168.490 189.179  0.00  0.00    +0.034 HD
ATOM     80  H   UNL     1     143.856 168.997 187.725  0.00  0.00    +0.034 HD
BRANCH  78  81
ATOM     81  C   UNL     1     143.801 166.909 188.015  0.00  0.00    +0.140 C 
ATOM     82  O   UNL     1     144.061 166.734 186.825  0.00  0.00    -0.297 OA
BRANCH  81  83
ATOM     83  C   UNL     1     143.609 165.737 188.987  0.00  0.00    +0.052 C 
ATOM     84  H   UNL     1     142.997 166.153 189.800  0.00  0.00    +0.041 HD
BRANCH  83  85
ATOM     85  C   UNL     1     142.798 164.589 188.386  0.00  0.00    -0.052 C 
ATOM     86  H   UNL     1     142.432 163.907 189.158  0.00  0.00    +0.024 HD
ATOM     87  H   UNL     1     143.413 164.000 187.699  0.00  0.00    +0.024 HD
ATOM     88  H   UNL     1     141.948 164.952 187.803  0.00  0.00    +0.024 HD
ENDBRANCH  83  85
BRANCH  83  89
ATOM     89  C   UNL     1     144.945 165.256 189.616  0.00  0.00    +0.118 C 
ATOM     90  H   UNL     1     144.971 164.158 189.662  0.00  0.00    +0.075 HD
BRANCH  89  91
ATOM     91  C   UNL     1     145.286 165.816 191.035  0.00  0.00    +0.014 C 
ATOM     92  H   UNL     1     145.735 165.001 191.605  0.00  0.00    +0.038 HD
BRANCH  91  93
ATOM     93  C   UNL     1     144.000 166.191 191.787  0.00  0.00    -0.056 C 
ATOM     94  H   UNL     1     143.144 165.601 191.436  0.00  0.00    +0.024 HD
ATOM     95  H   UNL     1     143.756 167.252 191.644  0.00  0.00    +0.024 HD
ATOM     96  H   UNL     1     144.104 166.023 192.863  0.00  0.00    +0.024 HD
ENDBRANCH  91  93
BRANCH  91  97
ATOM     97  C   UNL     1     146.191 167.021 191.012  0.00  0.00    -0.064 C 
ATOM     98  C   UNL     1     147.248 167.320 191.776  0.00  0.00    -0.010 C 
ATOM     99  H   UNL     1     145.964 167.732 190.215  0.00  0.00    +0.059 HD
ATOM    100  H   UNL     1     147.791 168.228 191.492  0.00  0.00    +0.078 HD
BRANCH  98 101
ATOM    101  N   UNL     1     147.840 166.712 192.869  0.00  0.00    -0.317 N 
BRANCH 101 102
ATOM    102  C   UNL     1     147.957 167.316 194.193  0.00  0.00    +0.002 C 
ATOM    103  H   UNL     1     148.688 168.133 194.188  0.00  0.00    +0.043 HD
ATOM    104  H   UNL     1     148.309 166.590 194.935  0.00  0.00    +0.043 HD
ATOM    105  H   UNL     1     146.987 167.689 194.532  0.00  0.00    +0.043 HD
ENDBRANCH 101 102
BRANCH 101 106
ATOM    106  C   UNL     1     148.430 165.388 192.758  0.00  0.00    +0.110 C 
ATOM    107  H   UNL     1     149.295 165.377 192.088  0.00  0.00    +0.077 HD
ATOM    108  H   UNL     1     147.708 164.655 192.385  0.00  0.00    +0.077 HD
BRANCH 106 109
ATOM    109  O   UNL     1     148.846 165.023 194.054  0.00  0.00    -0.377 OA
ATOM    110  H   UNL     1     148.750 165.868 194.526  0.00  0.00    +0.211 HD
ENDBRANCH 106 109
ENDBRANCH 101 106
ENDBRANCH  98 101
ENDBRANCH  91  97
ENDBRANCH  89  91
BRANCH  89 111
ATOM    111  O   UNL     1     146.023 165.712 188.743  0.00  0.00    -0.460 OA
BRANCH 111 112
ATOM    112  C   UNL     1     146.722 164.760 188.072  0.00  0.00    +0.304 C 
ATOM    113  O   UNL     1     146.566 164.455 186.899  0.00  0.00    -0.251 OA
BRANCH 112 114
ATOM    114  C   UNL     1     147.769 164.162 188.964  0.00  0.00    +0.033 C 
ATOM    115  H   UNL     1     147.698 163.069 188.962  0.00  0.00    +0.034 HD
ATOM    116  H   UNL     1     147.636 164.533 189.984  0.00  0.00    +0.034 HD
ATOM    117  H   UNL     1     148.761 164.432 188.589  0.00  0.00    +0.034 HD
ENDBRANCH 112 114
ENDBRANCH 111 112
ENDBRANCH  89 111
ENDBRANCH  83  89
ENDBRANCH  81  83
ENDBRANCH  78  81
ENDBRANCH  75  78
ENDBRANCH  69  75
ENDBRANCH  67  69
BRANCH  67 118
ATOM    118  O   UNL     1     140.934 171.167 191.306  0.00  0.00    -0.379 OA
BRANCH 118 119
ATOM    119  C   UNL     1     139.610 171.355 190.818  0.00  0.00    +0.037 C 
ATOM    120  H   UNL     1     139.093 172.043 191.493  0.00  0.00    +0.052 HD
ATOM    121  H   UNL     1     139.067 170.406 190.801  0.00  0.00    +0.052 HD
ATOM    122  H   UNL     1     139.614 171.798 189.823  0.00  0.00    +0.052 HD
ENDBRANCH 118 119
ENDBRANCH  67 118
ENDBRANCH  64  67
ENDBRANCH  13  64
BRANCH   8 123
ATOM    123  O   UNL     1     146.388 173.660 192.338  0.00  0.00    -0.391 OA
ATOM    124  H   UNL     1     145.805 174.179 191.756  0.00  0.00    +0.210 HD
ENDBRANCH   8 123
BRANCH  15 125
ATOM    125  O   UNL     1     145.758 173.246 187.004  0.00  0.00    -0.379 OA
BRANCH 125 126
ATOM    126  C   UNL     1     146.082 174.215 186.012  0.00  0.00    +0.037 C 
ATOM    127  H   UNL     1     146.679 173.772 185.208  0.00  0.00    +0.052 HD
ATOM    128  H   UNL     1     146.612 175.062 186.450  0.00  0.00    +0.052 HD
ATOM    129  H   UNL     1     145.149 174.581 185.579  0.00  0.00    +0.052 HD
ENDBRANCH 125 126
ENDBRANCH  15 125
TORSDOF 27
ENDMDL
MODEL 5
REMARK VINA RESULT:      -5.4      6.426     11.765
REMARK  Name = Ulapualide A_conf3
REMARK  27 active torsions:
REMARK  status: ('A' for Active; 'I' for Inactive)
REMARK    1  A    between atoms: C_1  and  C_2
REMARK    2  A    between atoms: C_9  and  O_63
REMARK    3  A    between atoms: C_14  and  C_38
REMARK    4  A    between atoms: C_15  and  C_37
REMARK    5  A    between atoms: C_16  and  O_35
REMARK    6  A    between atoms: O_35  and  C_36
REMARK    7  A    between atoms: C_38  and  C_39
REMARK    8  A    between atoms: C_39  and  C_40
REMARK    9  A    between atoms: C_39  and  O_61
REMARK   10  A    between atoms: C_40  and  C_41
REMARK   11  A    between atoms: C_40  and  C_42
REMARK   12  A    between atoms: C_42  and  C_43
REMARK   13  A    between atoms: C_43  and  C_44
REMARK   14  A    between atoms: C_44  and  C_46
REMARK   15  A    between atoms: C_46  and  C_47
REMARK   16  A    between atoms: C_46  and  C_48
REMARK   17  A    between atoms: C_48  and  C_49
REMARK   18  A    between atoms: C_48  and  O_57
REMARK   19  A    between atoms: C_49  and  C_50
REMARK   20  A    between atoms: C_49  and  C_51
REMARK   21  A    between atoms: C_52  and  N_53
REMARK   22  A    between atoms: N_53  and  C_54
REMARK   23  A    between atoms: N_53  and  C_55
REMARK   24  A    between atoms: C_55  and  O_56
REMARK   25  A    between atoms: O_57  and  C_58
REMARK   26  A    between atoms: C_58  and  C_60
REMARK   27  A    between atoms: O_61  and  C_62
REMARK                            x       y       z     vdW  Elec       q    Type
REMARK                         _______ _______ _______ _____ _____    ______ ____
ROOT
ATOM      1  C   UNL     1     157.299 172.773 183.802  0.00  0.00    +0.008 C 
ATOM      2  C   UNL     1     156.298 172.178 182.804  0.00  0.00    +0.014 C 
ATOM      3  C   UNL     1     156.378 170.663 182.698  0.00  0.00    +0.134 C 
ATOM      4  O   UNL     1     156.582 170.121 181.610  0.00  0.00    -0.297 OA
ATOM      5  C   UNL     1     156.118 169.874 183.971  0.00  0.00    +0.006 C 
ATOM      6  C   UNL     1     155.907 168.380 183.730  0.00  0.00    -0.044 C 
ATOM      7  C   UNL     1     155.414 167.698 185.007  0.00  0.00    -0.026 C 
ATOM      8  C   UNL     1     155.151 166.199 184.849  0.00  0.00    +0.065 C 
ATOM      9  C   UNL     1     156.367 165.352 184.486  0.00  0.00    +0.071 C 
ATOM     10  C   UNL     1     157.455 165.443 185.523  0.00  0.00    +0.310 C 
ATOM     11  O   UNL     1     158.285 166.339 185.576  0.00  0.00    -0.251 OA
ATOM     12  O   UNL     1     157.355 164.399 186.391  0.00  0.00    -0.461 OA
ATOM     13  C   UNL     1     158.390 164.248 187.388  0.00  0.00    +0.110 C 
ATOM     14  C   UNL     1     159.244 162.996 187.016  0.00  0.00    +0.020 C 
ATOM     15  C   UNL     1     160.036 163.124 185.671  0.00  0.00    +0.068 C 
ATOM     16  C   UNL     1     161.078 164.280 185.645  0.00  0.00    -0.008 C 
ATOM     17  C   UNL     1     162.487 163.773 185.851  0.00  0.00    -0.077 C 
ATOM     18  C   UNL     1     163.648 164.330 185.463  0.00  0.00    -0.003 C 
ATOM     19  C   UNL     1     163.802 165.579 184.801  0.00  0.00    +0.220 A 
ATOM     20  N   UNL     1     162.921 166.563 184.657  0.00  0.00    -0.205 NA
ATOM     21  C   UNL     1     163.582 167.548 183.961  0.00  0.00    +0.164 A 
ATOM     22  C   UNL     1     164.861 167.139 183.698  0.00  0.00    +0.125 A 
ATOM     23  O   UNL     1     165.023 165.902 184.226  0.00  0.00    -0.443 OA
ATOM     24  C   UNL     1     163.029 168.937 183.507  0.00  0.00    +0.250 A 
ATOM     25  N   UNL     1     161.820 169.408 183.765  0.00  0.00    -0.203 NA
ATOM     26  C   UNL     1     161.793 170.634 183.136  0.00  0.00    +0.164 A 
ATOM     27  C   UNL     1     162.999 170.871 182.530  0.00  0.00    +0.125 A 
ATOM     28  O   UNL     1     163.806 169.806 182.765  0.00  0.00    -0.442 OA
ATOM     29  C   UNL     1     160.602 171.645 183.077  0.00  0.00    +0.249 A 
ATOM     30  N   UNL     1     159.435 171.488 183.680  0.00  0.00    -0.212 NA
ATOM     31  C   UNL     1     158.707 172.602 183.328  0.00  0.00    +0.083 A 
ATOM     32  C   UNL     1     159.472 173.406 182.517  0.00  0.00    +0.116 A 
ATOM     33  O   UNL     1     160.685 172.819 182.359  0.00  0.00    -0.442 OA
ATOM     34  H   UNL     1     157.210 172.253 184.764  0.00  0.00    +0.037 HD
ATOM     35  H   UNL     1     156.453 172.598 181.803  0.00  0.00    +0.035 HD
ATOM     36  H   UNL     1     155.268 172.419 183.095  0.00  0.00    +0.035 HD
ATOM     37  H   UNL     1     155.219 170.300 184.430  0.00  0.00    +0.034 HD
ATOM     38  H   UNL     1     156.963 170.016 184.652  0.00  0.00    +0.034 HD
ATOM     39  H   UNL     1     156.848 167.937 183.388  0.00  0.00    +0.027 HD
ATOM     40  H   UNL     1     155.173 168.229 182.927  0.00  0.00    +0.027 HD
ATOM     41  H   UNL     1     154.478 168.175 185.327  0.00  0.00    +0.029 HD
ATOM     42  H   UNL     1     156.118 167.877 185.831  0.00  0.00    +0.029 HD
ATOM     43  H   UNL     1     154.392 166.064 184.068  0.00  0.00    +0.060 HD
ATOM     44  H   UNL     1     156.075 164.300 184.389  0.00  0.00    +0.040 HD
ATOM     45  H   UNL     1     156.791 165.639 183.519  0.00  0.00    +0.040 HD
ATOM     46  H   UNL     1     159.038 165.125 187.439  0.00  0.00    +0.074 HD
ATOM     47  H   UNL     1     158.534 162.169 186.862  0.00  0.00    +0.036 HD
ATOM     48  H   UNL     1     160.552 162.163 185.533  0.00  0.00    +0.060 HD
ATOM     49  H   UNL     1     161.008 164.824 184.699  0.00  0.00    +0.033 HD
ATOM     50  H   UNL     1     160.875 165.006 186.436  0.00  0.00    +0.033 HD
ATOM     51  H   UNL     1     162.577 162.826 186.379  0.00  0.00    +0.057 HD
ATOM     52  H   UNL     1     164.570 163.794 185.667  0.00  0.00    +0.067 HD
ATOM     53  H   UNL     1     165.714 167.570 183.195  0.00  0.00    +0.105 HD
ATOM     54  H   UNL     1     163.413 171.678 181.945  0.00  0.00    +0.105 HD
ATOM     55  H   UNL     1     159.320 174.345 182.003  0.00  0.00    +0.105 HD
ENDROOT
BRANCH   1  56
ATOM     56  C   UNL     1     156.954 174.241 184.075  0.00  0.00    -0.056 C 
ATOM     57  H   UNL     1     157.057 174.472 185.142  0.00  0.00    +0.024 HD
ATOM     58  H   UNL     1     155.926 174.478 183.780  0.00  0.00    +0.024 HD
ATOM     59  H   UNL     1     157.623 174.911 183.525  0.00  0.00    +0.024 HD
ENDBRANCH   1  56
BRANCH  14  60
ATOM     60  C   UNL     1     160.203 162.578 188.141  0.00  0.00    -0.057 C 
ATOM     61  H   UNL     1     159.965 163.085 189.080  0.00  0.00    +0.023 HD
ATOM     62  H   UNL     1     160.169 161.499 188.314  0.00  0.00    +0.023 HD
ATOM     63  H   UNL     1     161.241 162.809 187.877  0.00  0.00    +0.023 HD
ENDBRANCH  14  60
BRANCH  13  64
ATOM     64  C   UNL     1     157.649 164.106 188.732  0.00  0.00    +0.011 C 
ATOM     65  H   UNL     1     157.711 165.047 189.287  0.00  0.00    +0.033 HD
ATOM     66  H   UNL     1     158.141 163.320 189.319  0.00  0.00    +0.033 HD
BRANCH  64  67
ATOM     67  C   UNL     1     156.150 163.759 188.573  0.00  0.00    +0.064 C 
ATOM     68  H   UNL     1     155.924 163.551 187.518  0.00  0.00    +0.060 HD
BRANCH  67  69
ATOM     69  C   UNL     1     155.761 162.494 189.395  0.00  0.00    -0.017 C 
ATOM     70  H   UNL     1     155.719 161.668 188.670  0.00  0.00    +0.032 HD
BRANCH  69  71
ATOM     71  C   UNL     1     156.809 162.096 190.444  0.00  0.00    -0.060 C 
ATOM     72  H   UNL     1     156.421 161.304 191.095  0.00  0.00    +0.023 HD
ATOM     73  H   UNL     1     157.100 162.946 191.071  0.00  0.00    +0.023 HD
ATOM     74  H   UNL     1     157.713 161.701 189.973  0.00  0.00    +0.023 HD
ENDBRANCH  69  71
BRANCH  69  75
ATOM     75  C   UNL     1     154.344 162.593 190.019  0.00  0.00    -0.041 C 
ATOM     76  H   UNL     1     154.314 162.026 190.957  0.00  0.00    +0.027 HD
ATOM     77  H   UNL     1     154.182 163.640 190.309  0.00  0.00    +0.027 HD
BRANCH  75  78
ATOM     78  C   UNL     1     153.182 162.169 189.114  0.00  0.00    +0.007 C 
ATOM     79  H   UNL     1     152.556 161.424 189.603  0.00  0.00    +0.034 HD
ATOM     80  H   UNL     1     153.546 161.711 188.188  0.00  0.00    +0.034 HD
BRANCH  78  81
ATOM     81  C   UNL     1     152.343 163.366 188.693  0.00  0.00    +0.140 C 
ATOM     82  O   UNL     1     152.514 163.870 187.583  0.00  0.00    -0.297 OA
BRANCH  81  83
ATOM     83  C   UNL     1     151.214 163.822 189.629  0.00  0.00    +0.052 C 
ATOM     84  H   UNL     1     150.361 164.002 188.961  0.00  0.00    +0.041 HD
BRANCH  83  85
ATOM     85  C   UNL     1     150.771 162.732 190.605  0.00  0.00    -0.052 C 
ATOM     86  H   UNL     1     151.195 162.886 191.600  0.00  0.00    +0.024 HD
ATOM     87  H   UNL     1     151.100 161.747 190.261  0.00  0.00    +0.024 HD
ATOM     88  H   UNL     1     149.682 162.679 190.688  0.00  0.00    +0.024 HD
ENDBRANCH  83  85
BRANCH  83  89
ATOM     89  C   UNL     1     151.534 165.164 190.342  0.00  0.00    +0.118 C 
ATOM     90  H   UNL     1     152.619 165.278 190.471  0.00  0.00    +0.075 HD
BRANCH  89  91
ATOM     91  C   UNL     1     150.847 165.394 191.727  0.00  0.00    +0.014 C 
ATOM     92  H   UNL     1     150.673 164.412 192.170  0.00  0.00    +0.038 HD
BRANCH  91  93
ATOM     93  C   UNL     1     149.455 166.018 191.537  0.00  0.00    -0.056 C 
ATOM     94  H   UNL     1     149.231 166.182 190.476  0.00  0.00    +0.024 HD
ATOM     95  H   UNL     1     149.385 166.987 192.049  0.00  0.00    +0.024 HD
ATOM     96  H   UNL     1     148.671 165.375 191.950  0.00  0.00    +0.024 HD
ENDBRANCH  91  93
BRANCH  91  97
ATOM     97  C   UNL     1     151.638 166.275 192.660  0.00  0.00    -0.064 C 
ATOM     98  C   UNL     1     151.675 166.300 193.998  0.00  0.00    -0.010 C 
ATOM     99  H   UNL     1     152.314 166.965 192.153  0.00  0.00    +0.059 HD
ATOM    100  H   UNL     1     152.408 166.986 194.434  0.00  0.00    +0.078 HD
BRANCH  98 101
ATOM    101  N   UNL     1     150.984 165.620 194.985  0.00  0.00    -0.317 N 
BRANCH 101 102
ATOM    102  C   UNL     1     151.317 164.279 195.458  0.00  0.00    +0.002 C 
ATOM    103  H   UNL     1     150.416 163.740 195.775  0.00  0.00    +0.043 HD
ATOM    104  H   UNL     1     151.979 164.315 196.331  0.00  0.00    +0.043 HD
ATOM    105  H   UNL     1     151.832 163.713 194.677  0.00  0.00    +0.043 HD
ENDBRANCH 101 102
BRANCH 101 106
ATOM    106  C   UNL     1     149.819 166.210 195.624  0.00  0.00    +0.110 C 
ATOM    107  H   UNL     1     148.974 165.516 195.662  0.00  0.00    +0.077 HD
ATOM    108  H   UNL     1     149.487 167.112 195.100  0.00  0.00    +0.077 HD
BRANCH 106 109
ATOM    109  O   UNL     1     150.204 166.541 196.937  0.00  0.00    -0.377 OA
ATOM    110  H   UNL     1     150.742 165.767 197.176  0.00  0.00    +0.211 HD
ENDBRANCH 106 109
ENDBRANCH 101 106
ENDBRANCH  98 101
ENDBRANCH  91  97
ENDBRANCH  89  91
BRANCH  89 111
ATOM    111  O   UNL     1     151.050 166.238 189.480  0.00  0.00    -0.460 OA
BRANCH 111 112
ATOM    112  C   UNL     1     151.983 167.059 188.931  0.00  0.00    +0.304 C 
ATOM    113  O   UNL     1     152.968 167.502 189.502  0.00  0.00    -0.251 OA
BRANCH 112 114
ATOM    114  C   UNL     1     151.666 167.308 187.486  0.00  0.00    +0.033 C 
ATOM    115  H   UNL     1     151.034 166.507 187.087  0.00  0.00    +0.034 HD
ATOM    116  H   UNL     1     152.595 167.357 186.911  0.00  0.00    +0.034 HD
ATOM    117  H   UNL     1     151.113 168.247 187.393  0.00  0.00    +0.034 HD
ENDBRANCH 112 114
ENDBRANCH 111 112
ENDBRANCH  89 111
ENDBRANCH  83  89
ENDBRANCH  81  83
ENDBRANCH  78  81
ENDBRANCH  75  78
ENDBRANCH  69  75
ENDBRANCH  67  69
BRANCH  67 118
ATOM    118  O   UNL     1     155.386 164.879 189.044  0.00  0.00    -0.379 OA
BRANCH 118 119
ATOM    119  C   UNL     1     156.195 165.989 189.418  0.00  0.00    +0.037 C 
ATOM    120  H   UNL     1     157.029 166.055 188.714  0.00  0.00    +0.052 HD
ATOM    121  H   UNL     1     156.597 165.850 190.426  0.00  0.00    +0.052 HD
ATOM    122  H   UNL     1     155.635 166.922 189.367  0.00  0.00    +0.052 HD
ENDBRANCH 118 119
ENDBRANCH  67 118
ENDBRANCH  64  67
ENDBRANCH  13  64
BRANCH   8 123
ATOM    123  O   UNL     1     154.562 165.733 186.066  0.00  0.00    -0.391 OA
ATOM    124  H   UNL     1     153.636 165.498 185.880  0.00  0.00    +0.210 HD
ENDBRANCH   8 123
BRANCH  15 125
ATOM    125  O   UNL     1     159.092 163.220 184.590  0.00  0.00    -0.379 OA
BRANCH 125 126
ATOM    126  C   UNL     1     158.602 161.959 184.145  0.00  0.00    +0.037 C 
ATOM    127  H   UNL     1     159.030 161.140 184.732  0.00  0.00    +0.052 HD
ATOM    128  H   UNL     1     158.811 161.810 183.084  0.00  0.00    +0.052 HD
ATOM    129  H   UNL     1     157.520 161.949 184.286  0.00  0.00    +0.052 HD
ENDBRANCH 125 126
ENDBRANCH  15 125
TORSDOF 27
ENDMDL
MODEL 6
REMARK VINA RESULT:      -5.4      3.337      7.227
REMARK  Name = Ulapualide A_conf3
REMARK  27 active torsions:
REMARK  status: ('A' for Active; 'I' for Inactive)
REMARK    1  A    between atoms: C_1  and  C_2
REMARK    2  A    between atoms: C_9  and  O_63
REMARK    3  A    between atoms: C_14  and  C_38
REMARK    4  A    between atoms: C_15  and  C_37
REMARK    5  A    between atoms: C_16  and  O_35
REMARK    6  A    between atoms: O_35  and  C_36
REMARK    7  A    between atoms: C_38  and  C_39
REMARK    8  A    between atoms: C_39  and  C_40
REMARK    9  A    between atoms: C_39  and  O_61
REMARK   10  A    between atoms: C_40  and  C_41
REMARK   11  A    between atoms: C_40  and  C_42
REMARK   12  A    between atoms: C_42  and  C_43
REMARK   13  A    between atoms: C_43  and  C_44
REMARK   14  A    between atoms: C_44  and  C_46
REMARK   15  A    between atoms: C_46  and  C_47
REMARK   16  A    between atoms: C_46  and  C_48
REMARK   17  A    between atoms: C_48  and  C_49
REMARK   18  A    between atoms: C_48  and  O_57
REMARK   19  A    between atoms: C_49  and  C_50
REMARK   20  A    between atoms: C_49  and  C_51
REMARK   21  A    between atoms: C_52  and  N_53
REMARK   22  A    between atoms: N_53  and  C_54
REMARK   23  A    between atoms: N_53  and  C_55
REMARK   24  A    between atoms: C_55  and  O_56
REMARK   25  A    between atoms: O_57  and  C_58
REMARK   26  A    between atoms: C_58  and  C_60
REMARK   27  A    between atoms: O_61  and  C_62
REMARK                            x       y       z     vdW  Elec       q    Type
REMARK                         _______ _______ _______ _____ _____    ______ ____
ROOT
ATOM      1  C   UNL     1     151.126 167.400 192.439  0.00  0.00    +0.008 C 
ATOM      2  C   UNL     1     151.892 168.721 192.572  0.00  0.00    +0.014 C 
ATOM      3  C   UNL     1     151.278 169.861 191.774  0.00  0.00    +0.134 C 
ATOM      4  O   UNL     1     151.945 170.470 190.936  0.00  0.00    -0.297 OA
ATOM      5  C   UNL     1     149.849 170.245 192.122  0.00  0.00    +0.006 C 
ATOM      6  C   UNL     1     149.411 171.577 191.513  0.00  0.00    -0.044 C 
ATOM      7  C   UNL     1     148.067 172.014 192.097  0.00  0.00    -0.026 C 
ATOM      8  C   UNL     1     147.563 173.354 191.559  0.00  0.00    +0.065 C 
ATOM      9  C   UNL     1     147.287 173.401 190.060  0.00  0.00    +0.071 C 
ATOM     10  C   UNL     1     146.240 172.402 189.641  0.00  0.00    +0.310 C 
ATOM     11  O   UNL     1     146.465 171.223 189.410  0.00  0.00    -0.251 OA
ATOM     12  O   UNL     1     145.021 173.006 189.585  0.00  0.00    -0.461 OA
ATOM     13  C   UNL     1     143.908 172.234 189.083  0.00  0.00    +0.110 C 
ATOM     14  C   UNL     1     143.516 172.801 187.682  0.00  0.00    +0.020 C 
ATOM     15  C   UNL     1     144.615 172.633 186.581  0.00  0.00    +0.068 C 
ATOM     16  C   UNL     1     144.992 171.155 186.268  0.00  0.00    -0.008 C 
ATOM     17  C   UNL     1     144.343 170.667 184.993  0.00  0.00    -0.077 C 
ATOM     18  C   UNL     1     144.742 169.681 184.169  0.00  0.00    -0.003 C 
ATOM     19  C   UNL     1     145.865 168.830 184.357  0.00  0.00    +0.220 A 
ATOM     20  N   UNL     1     146.590 168.633 185.452  0.00  0.00    -0.205 NA
ATOM     21  C   UNL     1     147.537 167.699 185.101  0.00  0.00    +0.164 A 
ATOM     22  C   UNL     1     147.364 167.345 183.791  0.00  0.00    +0.125 A 
ATOM     23  O   UNL     1     146.310 168.042 183.304  0.00  0.00    -0.443 OA
ATOM     24  C   UNL     1     148.663 167.091 185.999  0.00  0.00    +0.250 A 
ATOM     25  N   UNL     1     148.857 167.358 187.280  0.00  0.00    -0.203 NA
ATOM     26  C   UNL     1     149.972 166.620 187.615  0.00  0.00    +0.164 A 
ATOM     27  C   UNL     1     150.407 165.916 186.522  0.00  0.00    +0.125 A 
ATOM     28  O   UNL     1     149.577 166.192 185.484  0.00  0.00    -0.442 OA
ATOM     29  C   UNL     1     150.686 166.556 189.004  0.00  0.00    +0.249 A 
ATOM     30  N   UNL     1     150.284 167.178 190.099  0.00  0.00    -0.212 NA
ATOM     31  C   UNL     1     151.225 166.852 191.051  0.00  0.00    +0.083 A 
ATOM     32  C   UNL     1     152.171 166.029 190.489  0.00  0.00    +0.116 A 
ATOM     33  O   UNL     1     151.837 165.820 189.192  0.00  0.00    -0.442 OA
ATOM     34  H   UNL     1     150.062 167.570 192.651  0.00  0.00    +0.037 HD
ATOM     35  H   UNL     1     152.933 168.600 192.247  0.00  0.00    +0.035 HD
ATOM     36  H   UNL     1     151.923 169.050 193.619  0.00  0.00    +0.035 HD
ATOM     37  H   UNL     1     149.794 170.309 193.214  0.00  0.00    +0.034 HD
ATOM     38  H   UNL     1     149.177 169.451 191.781  0.00  0.00    +0.034 HD
ATOM     39  H   UNL     1     149.348 171.468 190.425  0.00  0.00    +0.027 HD
ATOM     40  H   UNL     1     150.165 172.348 191.713  0.00  0.00    +0.027 HD
ATOM     41  H   UNL     1     148.163 172.100 193.187  0.00  0.00    +0.029 HD
ATOM     42  H   UNL     1     147.311 171.232 191.941  0.00  0.00    +0.029 HD
ATOM     43  H   UNL     1     148.310 174.123 191.796  0.00  0.00    +0.060 HD
ATOM     44  H   UNL     1     146.939 174.401 189.773  0.00  0.00    +0.040 HD
ATOM     45  H   UNL     1     148.191 173.215 189.472  0.00  0.00    +0.040 HD
ATOM     46  H   UNL     1     144.156 171.176 188.987  0.00  0.00    +0.074 HD
ATOM     47  H   UNL     1     143.390 173.887 187.811  0.00  0.00    +0.036 HD
ATOM     48  H   UNL     1     144.209 173.107 185.675  0.00  0.00    +0.060 HD
ATOM     49  H   UNL     1     146.079 171.054 186.200  0.00  0.00    +0.033 HD
ATOM     50  H   UNL     1     144.668 170.491 187.073  0.00  0.00    +0.033 HD
ATOM     51  H   UNL     1     143.433 171.184 184.696  0.00  0.00    +0.057 HD
ATOM     52  H   UNL     1     144.163 169.497 183.268  0.00  0.00    +0.067 HD
ATOM     53  H   UNL     1     147.858 166.668 183.109  0.00  0.00    +0.105 HD
ATOM     54  H   UNL     1     151.217 165.230 186.331  0.00  0.00    +0.105 HD
ATOM     55  H   UNL     1     153.076 165.550 190.837  0.00  0.00    +0.105 HD
ENDROOT
BRANCH   1  56
ATOM     56  C   UNL     1     151.617 166.402 193.492  0.00  0.00    -0.056 C 
ATOM     57  H   UNL     1     150.997 165.498 193.490  0.00  0.00    +0.024 HD
ATOM     58  H   UNL     1     151.583 166.827 194.502  0.00  0.00    +0.024 HD
ATOM     59  H   UNL     1     152.649 166.096 193.293  0.00  0.00    +0.024 HD
ENDBRANCH   1  56
BRANCH  14  60
ATOM     60  C   UNL     1     142.181 172.240 187.170  0.00  0.00    -0.057 C 
ATOM     61  H   UNL     1     141.391 172.333 187.920  0.00  0.00    +0.023 HD
ATOM     62  H   UNL     1     141.855 172.753 186.260  0.00  0.00    +0.023 HD
ATOM     63  H   UNL     1     142.278 171.182 186.900  0.00  0.00    +0.023 HD
ENDBRANCH  14  60
BRANCH  13  64
ATOM     64  C   UNL     1     142.794 172.384 190.138  0.00  0.00    +0.011 C 
ATOM     65  H   UNL     1     142.137 173.214 189.863  0.00  0.00    +0.033 HD
ATOM     66  H   UNL     1     143.260 172.611 191.106  0.00  0.00    +0.033 HD
BRANCH  64  67
ATOM     67  C   UNL     1     141.912 171.121 190.283  0.00  0.00    +0.064 C 
ATOM     68  H   UNL     1     141.224 171.047 189.429  0.00  0.00    +0.060 HD
BRANCH  67  69
ATOM     69  C   UNL     1     142.768 169.820 190.312  0.00  0.00    -0.017 C 
ATOM     70  H   UNL     1     143.814 170.149 190.229  0.00  0.00    +0.032 HD
BRANCH  69  71
ATOM     71  C   UNL     1     142.661 169.043 191.632  0.00  0.00    -0.060 C 
ATOM     72  H   UNL     1     143.557 169.199 192.244  0.00  0.00    +0.023 HD
ATOM     73  H   UNL     1     142.541 167.968 191.461  0.00  0.00    +0.023 HD
ATOM     74  H   UNL     1     141.810 169.386 192.227  0.00  0.00    +0.023 HD
ENDBRANCH  69  71
BRANCH  69  75
ATOM     75  C   UNL     1     142.508 168.900 189.090  0.00  0.00    -0.041 C 
ATOM     76  H   UNL     1     141.664 168.234 189.304  0.00  0.00    +0.027 HD
ATOM     77  H   UNL     1     142.170 169.537 188.262  0.00  0.00    +0.027 HD
BRANCH  75  78
ATOM     78  C   UNL     1     143.707 168.083 188.598  0.00  0.00    +0.007 C 
ATOM     79  H   UNL     1     144.638 168.460 189.019  0.00  0.00    +0.034 HD
ATOM     80  H   UNL     1     143.810 168.145 187.509  0.00  0.00    +0.034 HD
BRANCH  78  81
ATOM     81  C   UNL     1     143.542 166.606 188.925  0.00  0.00    +0.140 C 
ATOM     82  O   UNL     1     142.469 166.196 189.366  0.00  0.00    -0.297 OA
BRANCH  81  83
ATOM     83  C   UNL     1     144.691 165.654 188.566  0.00  0.00    +0.052 C 
ATOM     84  H   UNL     1     144.250 164.651 188.642  0.00  0.00    +0.041 HD
BRANCH  83  85
ATOM     85  C   UNL     1     145.163 165.806 187.120  0.00  0.00    -0.052 C 
ATOM     86  H   UNL     1     146.245 165.679 187.033  0.00  0.00    +0.024 HD
ATOM     87  H   UNL     1     144.922 166.802 186.737  0.00  0.00    +0.024 HD
ATOM     88  H   UNL     1     144.668 165.094 186.453  0.00  0.00    +0.024 HD
ENDBRANCH  83  85
BRANCH  83  89
ATOM     89  C   UNL     1     145.863 165.721 189.583  0.00  0.00    +0.118 C 
ATOM     90  H   UNL     1     146.376 166.691 189.511  0.00  0.00    +0.075 HD
BRANCH  89  91
ATOM     91  C   UNL     1     146.937 164.589 189.480  0.00  0.00    +0.014 C 
ATOM     92  H   UNL     1     147.447 164.713 188.524  0.00  0.00    +0.038 HD
BRANCH  91  93
ATOM     93  C   UNL     1     146.258 163.212 189.414  0.00  0.00    -0.056 C 
ATOM     94  H   UNL     1     145.454 163.126 190.155  0.00  0.00    +0.024 HD
ATOM     95  H   UNL     1     146.980 162.408 189.609  0.00  0.00    +0.024 HD
ATOM     96  H   UNL     1     145.825 163.028 188.426  0.00  0.00    +0.024 HD
ENDBRANCH  91  93
BRANCH  91  97
ATOM     97  C   UNL     1     147.921 164.579 190.621  0.00  0.00    -0.064 C 
ATOM     98  C   UNL     1     148.991 163.802 190.830  0.00  0.00    -0.010 C 
ATOM     99  H   UNL     1     147.750 165.361 191.363  0.00  0.00    +0.059 HD
ATOM    100  H   UNL     1     149.596 164.060 191.705  0.00  0.00    +0.078 HD
BRANCH  98 101
ATOM    101  N   UNL     1     149.530 162.719 190.158  0.00  0.00    -0.317 N 
BRANCH 101 102
ATOM    102  C   UNL     1     150.162 162.788 188.843  0.00  0.00    +0.002 C 
ATOM    103  H   UNL     1     151.254 162.738 188.929  0.00  0.00    +0.043 HD
ATOM    104  H   UNL     1     149.934 163.734 188.339  0.00  0.00    +0.043 HD
ATOM    105  H   UNL     1     149.804 161.978 188.203  0.00  0.00    +0.043 HD
ENDBRANCH 101 102
BRANCH 101 106
ATOM    106  C   UNL     1     149.478 161.383 190.730  0.00  0.00    +0.110 C 
ATOM    107  H   UNL     1     149.039 161.381 191.732  0.00  0.00    +0.077 HD
ATOM    108  H   UNL     1     150.476 160.937 190.801  0.00  0.00    +0.077 HD
BRANCH 106 109
ATOM    109  O   UNL     1     148.675 160.609 189.871  0.00  0.00    -0.377 OA
ATOM    110  H   UNL     1     149.254 159.844 189.712  0.00  0.00    +0.211 HD
ENDBRANCH 106 109
ENDBRANCH 101 106
ENDBRANCH  98 101
ENDBRANCH  91  97
ENDBRANCH  89  91
BRANCH  89 111
ATOM    111  O   UNL     1     145.286 165.595 190.918  0.00  0.00    -0.460 OA
BRANCH 111 112
ATOM    112  C   UNL     1     145.482 166.629 191.778  0.00  0.00    +0.304 C 
ATOM    113  O   UNL     1     145.940 167.723 191.485  0.00  0.00    -0.251 OA
BRANCH 112 114
ATOM    114  C   UNL     1     144.998 166.259 193.149  0.00  0.00    +0.033 C 
ATOM    115  H   UNL     1     144.683 167.153 193.699  0.00  0.00    +0.034 HD
ATOM    116  H   UNL     1     145.801 165.760 193.697  0.00  0.00    +0.034 HD
ATOM    117  H   UNL     1     144.131 165.598 193.061  0.00  0.00    +0.034 HD
ENDBRANCH 112 114
ENDBRANCH 111 112
ENDBRANCH  89 111
ENDBRANCH  83  89
ENDBRANCH  81  83
ENDBRANCH  78  81
ENDBRANCH  75  78
ENDBRANCH  69  75
ENDBRANCH  67  69
BRANCH  67 118
ATOM    118  O   UNL     1     141.182 171.233 191.513  0.00  0.00    -0.379 OA
BRANCH 118 119
ATOM    119  C   UNL     1     140.453 172.450 191.622  0.00  0.00    +0.037 C 
ATOM    120  H   UNL     1     141.095 173.188 192.112  0.00  0.00    +0.052 HD
ATOM    121  H   UNL     1     139.554 172.309 192.229  0.00  0.00    +0.052 HD
ATOM    122  H   UNL     1     140.182 172.838 190.641  0.00  0.00    +0.052 HD
ENDBRANCH 118 119
ENDBRANCH  67 118
ENDBRANCH  64  67
ENDBRANCH  13  64
BRANCH   8 123
ATOM    123  O   UNL     1     146.385 173.701 192.295  0.00  0.00    -0.391 OA
ATOM    124  H   UNL     1     146.110 172.919 192.805  0.00  0.00    +0.210 HD
ENDBRANCH   8 123
BRANCH  15 125
ATOM    125  O   UNL     1     145.761 173.418 186.952  0.00  0.00    -0.379 OA
BRANCH 125 126
ATOM    126  C   UNL     1     146.161 174.354 185.956  0.00  0.00    +0.037 C 
ATOM    127  H   UNL     1     146.443 175.312 186.406  0.00  0.00    +0.052 HD
ATOM    128  H   UNL     1     145.369 174.504 185.220  0.00  0.00    +0.052 HD
ATOM    129  H   UNL     1     147.035 173.949 185.443  0.00  0.00    +0.052 HD
ENDBRANCH 125 126
ENDBRANCH  15 125
TORSDOF 27
ENDMDL
MODEL 7
REMARK VINA RESULT:      -5.4      5.814      9.645
REMARK  Name = Ulapualide A_conf3
REMARK  27 active torsions:
REMARK  status: ('A' for Active; 'I' for Inactive)
REMARK    1  A    between atoms: C_1  and  C_2
REMARK    2  A    between atoms: C_9  and  O_63
REMARK    3  A    between atoms: C_14  and  C_38
REMARK    4  A    between atoms: C_15  and  C_37
REMARK    5  A    between atoms: C_16  and  O_35
REMARK    6  A    between atoms: O_35  and  C_36
REMARK    7  A    between atoms: C_38  and  C_39
REMARK    8  A    between atoms: C_39  and  C_40
REMARK    9  A    between atoms: C_39  and  O_61
REMARK   10  A    between atoms: C_40  and  C_41
REMARK   11  A    between atoms: C_40  and  C_42
REMARK   12  A    between atoms: C_42  and  C_43
REMARK   13  A    between atoms: C_43  and  C_44
REMARK   14  A    between atoms: C_44  and  C_46
REMARK   15  A    between atoms: C_46  and  C_47
REMARK   16  A    between atoms: C_46  and  C_48
REMARK   17  A    between atoms: C_48  and  C_49
REMARK   18  A    between atoms: C_48  and  O_57
REMARK   19  A    between atoms: C_49  and  C_50
REMARK   20  A    between atoms: C_49  and  C_51
REMARK   21  A    between atoms: C_52  and  N_53
REMARK   22  A    between atoms: N_53  and  C_54
REMARK   23  A    between atoms: N_53  and  C_55
REMARK   24  A    between atoms: C_55  and  O_56
REMARK   25  A    between atoms: O_57  and  C_58
REMARK   26  A    between atoms: C_58  and  C_60
REMARK   27  A    between atoms: O_61  and  C_62
REMARK                            x       y       z     vdW  Elec       q    Type
REMARK                         _______ _______ _______ _____ _____    ______ ____
ROOT
ATOM      1  C   UNL     1     151.058 167.379 192.443  0.00  0.00    +0.008 C 
ATOM      2  C   UNL     1     151.850 168.685 192.570  0.00  0.00    +0.014 C 
ATOM      3  C   UNL     1     151.243 169.840 191.788  0.00  0.00    +0.134 C 
ATOM      4  O   UNL     1     151.907 170.441 190.942  0.00  0.00    -0.297 OA
ATOM      5  C   UNL     1     149.828 170.248 192.162  0.00  0.00    +0.006 C 
ATOM      6  C   UNL     1     149.404 171.591 191.567  0.00  0.00    -0.044 C 
ATOM      7  C   UNL     1     148.077 172.049 192.176  0.00  0.00    -0.026 C 
ATOM      8  C   UNL     1     147.589 173.401 191.653  0.00  0.00    +0.065 C 
ATOM      9  C   UNL     1     147.289 173.461 190.159  0.00  0.00    +0.071 C 
ATOM     10  C   UNL     1     146.217 172.483 189.753  0.00  0.00    +0.310 C 
ATOM     11  O   UNL     1     146.416 171.301 189.512  0.00  0.00    -0.251 OA
ATOM     12  O   UNL     1     145.009 173.109 189.721  0.00  0.00    -0.461 OA
ATOM     13  C   UNL     1     143.873 172.360 189.233  0.00  0.00    +0.110 C 
ATOM     14  C   UNL     1     143.468 172.942 187.843  0.00  0.00    +0.020 C 
ATOM     15  C   UNL     1     144.545 172.760 186.722  0.00  0.00    +0.068 C 
ATOM     16  C   UNL     1     144.890 171.277 186.395  0.00  0.00    -0.008 C 
ATOM     17  C   UNL     1     144.211 170.808 185.129  0.00  0.00    -0.077 C 
ATOM     18  C   UNL     1     144.578 169.819 184.293  0.00  0.00    -0.003 C 
ATOM     19  C   UNL     1     145.689 168.948 184.458  0.00  0.00    +0.220 A 
ATOM     20  N   UNL     1     146.428 168.731 185.540  0.00  0.00    -0.205 NA
ATOM     21  C   UNL     1     147.353 167.783 185.168  0.00  0.00    +0.164 A 
ATOM     22  C   UNL     1     147.151 167.439 183.858  0.00  0.00    +0.125 A 
ATOM     23  O   UNL     1     146.101 168.158 183.393  0.00  0.00    -0.443 OA
ATOM     24  C   UNL     1     148.482 167.149 186.043  0.00  0.00    +0.250 A 
ATOM     25  N   UNL     1     148.702 167.405 187.322  0.00  0.00    -0.203 NA
ATOM     26  C   UNL     1     149.809 166.646 187.634  0.00  0.00    +0.164 A 
ATOM     27  C   UNL     1     150.213 165.940 186.531  0.00  0.00    +0.125 A 
ATOM     28  O   UNL     1     149.371 166.237 185.509  0.00  0.00    -0.442 OA
ATOM     29  C   UNL     1     150.545 166.561 189.011  0.00  0.00    +0.249 A 
ATOM     30  N   UNL     1     150.173 167.185 190.116  0.00  0.00    -0.212 NA
ATOM     31  C   UNL     1     151.123 166.836 191.050  0.00  0.00    +0.083 A 
ATOM     32  C   UNL     1     152.046 166.000 190.468  0.00  0.00    +0.116 A 
ATOM     33  O   UNL     1     151.686 165.804 189.175  0.00  0.00    -0.442 OA
ATOM     34  H   UNL     1     150.001 167.567 192.673  0.00  0.00    +0.037 HD
ATOM     35  H   UNL     1     152.883 168.547 192.226  0.00  0.00    +0.035 HD
ATOM     36  H   UNL     1     151.904 169.008 193.617  0.00  0.00    +0.035 HD
ATOM     37  H   UNL     1     149.792 170.307 193.255  0.00  0.00    +0.034 HD
ATOM     38  H   UNL     1     149.136 169.469 191.828  0.00  0.00    +0.034 HD
ATOM     39  H   UNL     1     149.320 171.489 190.479  0.00  0.00    +0.027 HD
ATOM     40  H   UNL     1     150.175 172.347 191.758  0.00  0.00    +0.027 HD
ATOM     41  H   UNL     1     148.194 172.127 193.265  0.00  0.00    +0.029 HD
ATOM     42  H   UNL     1     147.305 171.282 192.028  0.00  0.00    +0.029 HD
ATOM     43  H   UNL     1     148.353 174.154 191.882  0.00  0.00    +0.060 HD
ATOM     44  H   UNL     1     146.954 174.468 189.884  0.00  0.00    +0.040 HD
ATOM     45  H   UNL     1     148.179 173.262 189.555  0.00  0.00    +0.040 HD
ATOM     46  H   UNL     1     144.101 171.298 189.128  0.00  0.00    +0.074 HD
ATOM     47  H   UNL     1     143.364 174.029 187.979  0.00  0.00    +0.036 HD
ATOM     48  H   UNL     1     144.133 173.246 185.826  0.00  0.00    +0.060 HD
ATOM     49  H   UNL     1     145.973 171.157 186.308  0.00  0.00    +0.033 HD
ATOM     50  H   UNL     1     144.567 170.614 187.202  0.00  0.00    +0.033 HD
ATOM     51  H   UNL     1     143.306 171.343 184.849  0.00  0.00    +0.057 HD
ATOM     52  H   UNL     1     143.981 169.651 183.402  0.00  0.00    +0.067 HD
ATOM     53  H   UNL     1     147.621 166.757 183.166  0.00  0.00    +0.105 HD
ATOM     54  H   UNL     1     151.007 165.240 186.322  0.00  0.00    +0.105 HD
ATOM     55  H   UNL     1     152.947 165.502 190.798  0.00  0.00    +0.105 HD
ENDROOT
BRANCH   1  56
ATOM     56  C   UNL     1     151.548 166.366 193.482  0.00  0.00    -0.056 C 
ATOM     57  H   UNL     1     151.054 166.528 194.447  0.00  0.00    +0.024 HD
ATOM     58  H   UNL     1     152.630 166.443 193.644  0.00  0.00    +0.024 HD
ATOM     59  H   UNL     1     151.330 165.341 193.166  0.00  0.00    +0.024 HD
ENDBRANCH   1  56
BRANCH  14  60
ATOM     60  C   UNL     1     142.115 172.407 187.350  0.00  0.00    -0.057 C 
ATOM     61  H   UNL     1     141.877 171.439 187.800  0.00  0.00    +0.023 HD
ATOM     62  H   UNL     1     141.303 173.103 187.580  0.00  0.00    +0.023 HD
ATOM     63  H   UNL     1     142.113 172.291 186.260  0.00  0.00    +0.023 HD
ENDBRANCH  14  60
BRANCH  13  64
ATOM     64  C   UNL     1     142.780 172.524 190.308  0.00  0.00    +0.011 C 
ATOM     65  H   UNL     1     142.022 173.230 189.956  0.00  0.00    +0.033 HD
ATOM     66  H   UNL     1     143.244 172.930 191.217  0.00  0.00    +0.033 HD
BRANCH  64  67
ATOM     67  C   UNL     1     142.057 171.202 190.655  0.00  0.00    +0.064 C 
ATOM     68  H   UNL     1     142.045 171.057 191.744  0.00  0.00    +0.060 HD
BRANCH  67  69
ATOM     69  C   UNL     1     140.578 171.208 190.164  0.00  0.00    -0.017 C 
ATOM     70  H   UNL     1     140.619 170.968 189.092  0.00  0.00    +0.032 HD
BRANCH  69  71
ATOM     71  C   UNL     1     139.709 170.124 190.818  0.00  0.00    -0.060 C 
ATOM     72  H   UNL     1     139.945 169.138 190.402  0.00  0.00    +0.023 HD
ATOM     73  H   UNL     1     138.641 170.316 190.668  0.00  0.00    +0.023 HD
ATOM     74  H   UNL     1     139.892 170.064 191.895  0.00  0.00    +0.023 HD
ENDBRANCH  69  71
BRANCH  69  75
ATOM     75  C   UNL     1     139.915 172.606 190.269  0.00  0.00    -0.041 C 
ATOM     76  H   UNL     1     140.673 173.385 190.123  0.00  0.00    +0.027 HD
ATOM     77  H   UNL     1     139.226 172.710 189.419  0.00  0.00    +0.027 HD
BRANCH  75  78
ATOM     78  C   UNL     1     139.124 172.880 191.553  0.00  0.00    +0.007 C 
ATOM     79  H   UNL     1     139.412 172.191 192.345  0.00  0.00    +0.034 HD
ATOM     80  H   UNL     1     138.049 172.742 191.394  0.00  0.00    +0.034 HD
BRANCH  78  81
ATOM     81  C   UNL     1     139.303 174.319 192.016  0.00  0.00    +0.140 C 
ATOM     82  O   UNL     1     138.733 175.228 191.414  0.00  0.00    -0.297 OA
BRANCH  81  83
ATOM     83  C   UNL     1     140.091 174.568 193.310  0.00  0.00    +0.052 C 
ATOM     84  H   UNL     1     139.319 174.760 194.067  0.00  0.00    +0.041 HD
BRANCH  83  85
ATOM     85  C   UNL     1     140.862 173.337 193.786  0.00  0.00    -0.052 C 
ATOM     86  H   UNL     1     140.555 172.436 193.248  0.00  0.00    +0.024 HD
ATOM     87  H   UNL     1     140.682 173.155 194.850  0.00  0.00    +0.024 HD
ATOM     88  H   UNL     1     141.942 173.465 193.676  0.00  0.00    +0.024 HD
ENDBRANCH  83  85
BRANCH  83  89
ATOM     89  C   UNL     1     140.986 175.834 193.230  0.00  0.00    +0.118 C 
ATOM     90  H   UNL     1     140.462 176.638 192.695  0.00  0.00    +0.075 HD
BRANCH  89  91
ATOM     91  C   UNL     1     142.396 175.649 192.581  0.00  0.00    +0.014 C 
ATOM     92  H   UNL     1     142.352 174.749 191.965  0.00  0.00    +0.038 HD
BRANCH  91  93
ATOM     93  C   UNL     1     143.450 175.361 193.663  0.00  0.00    -0.056 C 
ATOM     94  H   UNL     1     143.894 174.367 193.535  0.00  0.00    +0.024 HD
ATOM     95  H   UNL     1     143.005 175.403 194.666  0.00  0.00    +0.024 HD
ATOM     96  H   UNL     1     144.259 176.097 193.635  0.00  0.00    +0.024 HD
ENDBRANCH  91  93
BRANCH  91  97
ATOM     97  C   UNL     1     142.856 176.835 191.774  0.00  0.00    -0.064 C 
ATOM     98  C   UNL     1     142.356 177.358 190.648  0.00  0.00    -0.010 C 
ATOM     99  H   UNL     1     143.702 177.369 192.212  0.00  0.00    +0.059 HD
ATOM    100  H   UNL     1     142.831 178.285 190.310  0.00  0.00    +0.078 HD
BRANCH  98 101
ATOM    101  N   UNL     1     141.332 176.987 189.796  0.00  0.00    -0.317 N 
BRANCH 101 102
ATOM    102  C   UNL     1     141.307 175.754 189.014  0.00  0.00    +0.002 C 
ATOM    103  H   UNL     1     142.062 175.778 188.218  0.00  0.00    +0.043 HD
ATOM    104  H   UNL     1     140.339 175.613 188.519  0.00  0.00    +0.043 HD
ATOM    105  H   UNL     1     141.477 174.887 189.658  0.00  0.00    +0.043 HD
ENDBRANCH 101 102
BRANCH 101 106
ATOM    106  C   UNL     1     140.178 177.848 189.594  0.00  0.00    +0.110 C 
ATOM    107  H   UNL     1     139.468 177.425 188.878  0.00  0.00    +0.077 HD
ATOM    108  H   UNL     1     140.474 178.837 189.227  0.00  0.00    +0.077 HD
BRANCH 106 109
ATOM    109  O   UNL     1     139.549 177.978 190.847  0.00  0.00    -0.377 OA
ATOM    110  H   UNL     1     140.044 178.723 191.229  0.00  0.00    +0.211 HD
ENDBRANCH 106 109
ENDBRANCH 101 106
ENDBRANCH  98 101
ENDBRANCH  91  97
ENDBRANCH  89  91
BRANCH  89 111
ATOM    111  O   UNL     1     141.239 176.273 194.600  0.00  0.00    -0.460 OA
BRANCH 111 112
ATOM    112  C   UNL     1     140.198 176.825 195.276  0.00  0.00    +0.304 C 
ATOM    113  O   UNL     1     139.737 176.418 196.332  0.00  0.00    -0.251 OA
BRANCH 112 114
ATOM    114  C   UNL     1     139.717 178.057 194.568  0.00  0.00    +0.033 C 
ATOM    115  H   UNL     1     138.637 178.183 194.703  0.00  0.00    +0.034 HD
ATOM    116  H   UNL     1     139.942 177.977 193.501  0.00  0.00    +0.034 HD
ATOM    117  H   UNL     1     140.211 178.935 194.995  0.00  0.00    +0.034 HD
ENDBRANCH 112 114
ENDBRANCH 111 112
ENDBRANCH  89 111
ENDBRANCH  83  89
ENDBRANCH  81  83
ENDBRANCH  78  81
ENDBRANCH  75  78
ENDBRANCH  69  75
ENDBRANCH  67  69
BRANCH  67 118
ATOM    118  O   UNL     1     142.762 170.131 190.010  0.00  0.00    -0.379 OA
BRANCH 118 119
ATOM    119  C   UNL     1     143.297 169.182 190.926  0.00  0.00    +0.037 C 
ATOM    120  H   UNL     1     144.342 169.445 191.117  0.00  0.00    +0.052 HD
ATOM    121  H   UNL     1     143.261 168.175 190.504  0.00  0.00    +0.052 HD
ATOM    122  H   UNL     1     142.764 169.206 191.877  0.00  0.00    +0.052 HD
ENDBRANCH 118 119
ENDBRANCH  67 118
ENDBRANCH  64  67
ENDBRANCH  13  64
BRANCH   8 123
ATOM    123  O   UNL     1     146.430 173.764 192.411  0.00  0.00    -0.391 OA
ATOM    124  H   UNL     1     145.983 172.945 192.686  0.00  0.00    +0.210 HD
ENDBRANCH   8 123
BRANCH  15 125
ATOM    125  O   UNL     1     145.712 173.522 187.077  0.00  0.00    -0.379 OA
BRANCH 125 126
ATOM    126  C   UNL     1     146.170 174.383 186.040  0.00  0.00    +0.037 C 
ATOM    127  H   UNL     1     146.700 173.820 185.265  0.00  0.00    +0.052 HD
ATOM    128  H   UNL     1     146.815 175.169 186.440  0.00  0.00    +0.052 HD
ATOM    129  H   UNL     1     145.299 174.854 185.582  0.00  0.00    +0.052 HD
ENDBRANCH 125 126
ENDBRANCH  15 125
TORSDOF 27
ENDMDL
MODEL 8
REMARK VINA RESULT:      -5.3      7.881     13.097
REMARK  Name = Ulapualide A_conf3
REMARK  27 active torsions:
REMARK  status: ('A' for Active; 'I' for Inactive)
REMARK    1  A    between atoms: C_1  and  C_2
REMARK    2  A    between atoms: C_9  and  O_63
REMARK    3  A    between atoms: C_14  and  C_38
REMARK    4  A    between atoms: C_15  and  C_37
REMARK    5  A    between atoms: C_16  and  O_35
REMARK    6  A    between atoms: O_35  and  C_36
REMARK    7  A    between atoms: C_38  and  C_39
REMARK    8  A    between atoms: C_39  and  C_40
REMARK    9  A    between atoms: C_39  and  O_61
REMARK   10  A    between atoms: C_40  and  C_41
REMARK   11  A    between atoms: C_40  and  C_42
REMARK   12  A    between atoms: C_42  and  C_43
REMARK   13  A    between atoms: C_43  and  C_44
REMARK   14  A    between atoms: C_44  and  C_46
REMARK   15  A    between atoms: C_46  and  C_47
REMARK   16  A    between atoms: C_46  and  C_48
REMARK   17  A    between atoms: C_48  and  C_49
REMARK   18  A    between atoms: C_48  and  O_57
REMARK   19  A    between atoms: C_49  and  C_50
REMARK   20  A    between atoms: C_49  and  C_51
REMARK   21  A    between atoms: C_52  and  N_53
REMARK   22  A    between atoms: N_53  and  C_54
REMARK   23  A    between atoms: N_53  and  C_55
REMARK   24  A    between atoms: C_55  and  O_56
REMARK   25  A    between atoms: O_57  and  C_58
REMARK   26  A    between atoms: C_58  and  C_60
REMARK   27  A    between atoms: O_61  and  C_62
REMARK                            x       y       z     vdW  Elec       q    Type
REMARK                         _______ _______ _______ _____ _____    ______ ____
ROOT
ATOM      1  C   UNL     1     157.374 172.949 183.684  0.00  0.00    +0.008 C 
ATOM      2  C   UNL     1     156.375 172.355 182.684  0.00  0.00    +0.014 C 
ATOM      3  C   UNL     1     156.427 170.837 182.606  0.00  0.00    +0.134 C 
ATOM      4  O   UNL     1     156.634 170.272 181.531  0.00  0.00    -0.297 OA
ATOM      5  C   UNL     1     156.136 170.076 183.889  0.00  0.00    +0.006 C 
ATOM      6  C   UNL     1     155.898 168.582 183.671  0.00  0.00    -0.044 C 
ATOM      7  C   UNL     1     155.376 167.933 184.953  0.00  0.00    -0.026 C 
ATOM      8  C   UNL     1     155.087 166.437 184.818  0.00  0.00    +0.065 C 
ATOM      9  C   UNL     1     156.290 165.561 184.486  0.00  0.00    +0.071 C 
ATOM     10  C   UNL     1     157.367 165.648 185.536  0.00  0.00    +0.310 C 
ATOM     11  O   UNL     1     158.213 166.529 185.584  0.00  0.00    -0.251 OA
ATOM     12  O   UNL     1     157.235 164.622 186.420  0.00  0.00    -0.461 OA
ATOM     13  C   UNL     1     158.255 164.469 187.432  0.00  0.00    +0.110 C 
ATOM     14  C   UNL     1     159.089 163.194 187.093  0.00  0.00    +0.020 C 
ATOM     15  C   UNL     1     159.900 163.283 185.757  0.00  0.00    +0.068 C 
ATOM     16  C   UNL     1     160.965 164.419 185.725  0.00  0.00    -0.008 C 
ATOM     17  C   UNL     1     162.360 163.888 185.957  0.00  0.00    -0.077 C 
ATOM     18  C   UNL     1     163.537 164.416 185.575  0.00  0.00    -0.003 C 
ATOM     19  C   UNL     1     163.724 165.650 184.894  0.00  0.00    +0.220 A 
ATOM     20  N   UNL     1     162.864 166.648 184.721  0.00  0.00    -0.205 NA
ATOM     21  C   UNL     1     163.552 167.608 184.016  0.00  0.00    +0.164 A 
ATOM     22  C   UNL     1     164.827 167.170 183.777  0.00  0.00    +0.125 A 
ATOM     23  O   UNL     1     164.958 165.940 184.329  0.00  0.00    -0.443 OA
ATOM     24  C   UNL     1     163.032 168.999 183.531  0.00  0.00    +0.250 A 
ATOM     25  N   UNL     1     161.830 169.498 183.765  0.00  0.00    -0.203 NA
ATOM     26  C   UNL     1     161.834 170.713 183.114  0.00  0.00    +0.164 A 
ATOM     27  C   UNL     1     163.052 170.916 182.520  0.00  0.00    +0.125 A 
ATOM     28  O   UNL     1     163.836 169.839 182.785  0.00  0.00    -0.442 OA
ATOM     29  C   UNL     1     160.664 171.745 183.023  0.00  0.00    +0.249 A 
ATOM     30  N   UNL     1     159.487 171.621 183.613  0.00  0.00    -0.212 NA
ATOM     31  C   UNL     1     158.785 172.743 183.232  0.00  0.00    +0.083 A 
ATOM     32  C   UNL     1     159.576 173.517 182.417  0.00  0.00    +0.116 A 
ATOM     33  O   UNL     1     160.779 172.905 182.285  0.00  0.00    -0.442 OA
ATOM     34  H   UNL     1     157.263 172.448 184.655  0.00  0.00    +0.037 HD
ATOM     35  H   UNL     1     156.551 172.754 181.678  0.00  0.00    +0.035 HD
ATOM     36  H   UNL     1     155.347 172.622 182.957  0.00  0.00    +0.035 HD
ATOM     37  H   UNL     1     155.240 170.527 184.329  0.00  0.00    +0.034 HD
ATOM     38  H   UNL     1     156.975 170.214 184.578  0.00  0.00    +0.034 HD
ATOM     39  H   UNL     1     156.836 168.116 183.349  0.00  0.00    +0.027 HD
ATOM     40  H   UNL     1     155.172 168.431 182.862  0.00  0.00    +0.027 HD
ATOM     41  H   UNL     1     154.446 168.433 185.253  0.00  0.00    +0.029 HD
ATOM     42  H   UNL     1     156.073 168.113 185.783  0.00  0.00    +0.029 HD
ATOM     43  H   UNL     1     154.335 166.302 184.030  0.00  0.00    +0.060 HD
ATOM     44  H   UNL     1     155.979 164.512 184.403  0.00  0.00    +0.040 HD
ATOM     45  H   UNL     1     156.732 165.822 183.520  0.00  0.00    +0.040 HD
ATOM     46  H   UNL     1     158.919 165.334 187.476  0.00  0.00    +0.074 HD
ATOM     47  H   UNL     1     158.365 162.379 186.945  0.00  0.00    +0.036 HD
ATOM     48  H   UNL     1     160.399 162.311 185.642  0.00  0.00    +0.060 HD
ATOM     49  H   UNL     1     160.917 164.947 184.768  0.00  0.00    +0.033 HD
ATOM     50  H   UNL     1     160.766 165.163 186.501  0.00  0.00    +0.033 HD
ATOM     51  H   UNL     1     162.426 162.949 186.503  0.00  0.00    +0.057 HD
ATOM     52  H   UNL     1     164.446 163.866 185.801  0.00  0.00    +0.067 HD
ATOM     53  H   UNL     1     165.694 167.575 183.278  0.00  0.00    +0.105 HD
ATOM     54  H   UNL     1     163.489 171.704 181.927  0.00  0.00    +0.105 HD
ATOM     55  H   UNL     1     159.449 174.449 181.885  0.00  0.00    +0.105 HD
ENDROOT
BRANCH   1  56
ATOM     56  C   UNL     1     157.055 174.427 183.928  0.00  0.00    -0.056 C 
ATOM     57  H   UNL     1     157.031 174.981 182.982  0.00  0.00    +0.024 HD
ATOM     58  H   UNL     1     157.803 174.903 184.573  0.00  0.00    +0.024 HD
ATOM     59  H   UNL     1     156.077 174.545 184.406  0.00  0.00    +0.024 HD
ENDBRANCH   1  56
BRANCH  14  60
ATOM     60  C   UNL     1     160.025 162.779 188.238  0.00  0.00    -0.057 C 
ATOM     61  H   UNL     1     160.478 161.801 188.052  0.00  0.00    +0.023 HD
ATOM     62  H   UNL     1     160.828 163.508 188.382  0.00  0.00    +0.023 HD
ATOM     63  H   UNL     1     159.485 162.733 189.190  0.00  0.00    +0.023 HD
ENDBRANCH  14  60
BRANCH  13  64
ATOM     64  C   UNL     1     157.494 164.365 188.769  0.00  0.00    +0.011 C 
ATOM     65  H   UNL     1     157.400 165.359 189.216  0.00  0.00    +0.033 HD
ATOM     66  H   UNL     1     158.073 163.728 189.450  0.00  0.00    +0.033 HD
BRANCH  64  67
ATOM     67  C   UNL     1     156.068 163.786 188.621  0.00  0.00    +0.064 C 
ATOM     68  H   UNL     1     155.966 163.290 187.646  0.00  0.00    +0.060 HD
BRANCH  67  69
ATOM     69  C   UNL     1     155.757 162.729 189.722  0.00  0.00    -0.017 C 
ATOM     70  H   UNL     1     155.727 163.286 190.670  0.00  0.00    +0.032 HD
BRANCH  69  71
ATOM     71  C   UNL     1     154.383 162.064 189.566  0.00  0.00    -0.060 C 
ATOM     72  H   UNL     1     153.582 162.779 189.786  0.00  0.00    +0.023 HD
ATOM     73  H   UNL     1     154.270 161.203 190.234  0.00  0.00    +0.023 HD
ATOM     74  H   UNL     1     154.223 161.717 188.541  0.00  0.00    +0.023 HD
ENDBRANCH  69  71
BRANCH  69  75
ATOM     75  C   UNL     1     156.884 161.673 189.878  0.00  0.00    -0.041 C 
ATOM     76  H   UNL     1     156.470 160.669 189.729  0.00  0.00    +0.027 HD
ATOM     77  H   UNL     1     157.591 161.819 189.051  0.00  0.00    +0.027 HD
BRANCH  75  78
ATOM     78  C   UNL     1     157.674 161.724 191.190  0.00  0.00    +0.007 C 
ATOM     79  H   UNL     1     157.019 161.581 192.049  0.00  0.00    +0.034 HD
ATOM     80  H   UNL     1     158.158 162.698 191.325  0.00  0.00    +0.034 HD
BRANCH  78  81
ATOM     81  C   UNL     1     158.791 160.691 191.203  0.00  0.00    +0.140 C 
ATOM     82  O   UNL     1     158.948 159.950 190.232  0.00  0.00    -0.297 OA
BRANCH  81  83
ATOM     83  C   UNL     1     159.770 160.701 192.385  0.00  0.00    +0.052 C 
ATOM     84  H   UNL     1     160.692 160.262 191.981  0.00  0.00    +0.041 HD
BRANCH  83  85
ATOM     85  C   UNL     1     160.134 162.112 192.847  0.00  0.00    -0.052 C 
ATOM     86  H   UNL     1     160.828 162.093 193.691  0.00  0.00    +0.024 HD
ATOM     87  H   UNL     1     159.242 162.655 193.173  0.00  0.00    +0.024 HD
ATOM     88  H   UNL     1     160.574 162.704 192.040  0.00  0.00    +0.024 HD
ENDBRANCH  83  85
BRANCH  83  89
ATOM     89  C   UNL     1     159.303 159.795 193.556  0.00  0.00    +0.118 C 
ATOM     90  H   UNL     1     158.238 159.549 193.447  0.00  0.00    +0.075 HD
BRANCH  89  91
ATOM     91  C   UNL     1     159.534 160.351 194.999  0.00  0.00    +0.014 C 
ATOM     92  H   UNL     1     159.832 161.396 194.899  0.00  0.00    +0.038 HD
BRANCH  91  93
ATOM     93  C   UNL     1     160.723 159.640 195.664  0.00  0.00    -0.056 C 
ATOM     94  H   UNL     1     160.409 158.716 196.164  0.00  0.00    +0.024 HD
ATOM     95  H   UNL     1     161.195 160.285 196.417  0.00  0.00    +0.024 HD
ATOM     96  H   UNL     1     161.492 159.381 194.930  0.00  0.00    +0.024 HD
ENDBRANCH  91  93
BRANCH  91  97
ATOM     97  C   UNL     1     158.335 160.216 195.903  0.00  0.00    -0.064 C 
ATOM     98  C   UNL     1     157.993 160.915 196.992  0.00  0.00    -0.010 C 
ATOM     99  H   UNL     1     157.620 159.456 195.582  0.00  0.00    +0.059 HD
ATOM    100  H   UNL     1     157.015 160.669 197.419  0.00  0.00    +0.078 HD
BRANCH  98 101
ATOM    101  N   UNL     1     158.610 161.921 197.713  0.00  0.00    -0.317 N 
BRANCH 101 102
ATOM    102  C   UNL     1     158.719 163.310 197.275  0.00  0.00    +0.002 C 
ATOM    103  H   UNL     1     157.894 163.913 197.673  0.00  0.00    +0.043 HD
ATOM    104  H   UNL     1     158.664 163.391 196.183  0.00  0.00    +0.043 HD
ATOM    105  H   UNL     1     159.675 163.737 197.589  0.00  0.00    +0.043 HD
ENDBRANCH 101 102
BRANCH 101 106
ATOM    106  C   UNL     1     159.238 161.645 198.995  0.00  0.00    +0.110 C 
ATOM    107  H   UNL     1     158.944 160.670 199.396  0.00  0.00    +0.077 HD
ATOM    108  H   UNL     1     158.981 162.404 199.741  0.00  0.00    +0.077 HD
BRANCH 106 109
ATOM    109  O   UNL     1     160.628 161.653 198.772  0.00  0.00    -0.377 OA
ATOM    110  H   UNL     1     160.946 162.078 199.588  0.00  0.00    +0.211 HD
ENDBRANCH 106 109
ENDBRANCH 101 106
ENDBRANCH  98 101
ENDBRANCH  91  97
ENDBRANCH  89  91
BRANCH  89 111
ATOM    111  O   UNL     1     160.078 158.559 193.484  0.00  0.00    -0.460 OA
BRANCH 111 112
ATOM    112  C   UNL     1     159.535 157.527 192.788  0.00  0.00    +0.304 C 
ATOM    113  O   UNL     1     160.142 156.767 192.049  0.00  0.00    -0.251 OA
BRANCH 112 114
ATOM    114  C   UNL     1     158.072 157.408 193.099  0.00  0.00    +0.033 C 
ATOM    115  H   UNL     1     157.923 157.131 194.149  0.00  0.00    +0.034 HD
ATOM    116  H   UNL     1     157.622 156.647 192.455  0.00  0.00    +0.034 HD
ATOM    117  H   UNL     1     157.588 158.376 192.938  0.00  0.00    +0.034 HD
ENDBRANCH 112 114
ENDBRANCH 111 112
ENDBRANCH  89 111
ENDBRANCH  83  89
ENDBRANCH  81  83
ENDBRANCH  78  81
ENDBRANCH  75  78
ENDBRANCH  69  75
ENDBRANCH  67  69
BRANCH  67 118
ATOM    118  O   UNL     1     155.137 164.872 188.736  0.00  0.00    -0.379 OA
BRANCH 118 119
ATOM    119  C   UNL     1     155.705 166.035 189.329  0.00  0.00    +0.037 C 
ATOM    120  H   UNL     1     155.791 166.804 188.556  0.00  0.00    +0.052 HD
ATOM    121  H   UNL     1     156.703 165.819 189.721  0.00  0.00    +0.052 HD
ATOM    122  H   UNL     1     155.070 166.424 190.124  0.00  0.00    +0.052 HD
ENDBRANCH 118 119
ENDBRANCH  67 118
ENDBRANCH  64  67
ENDBRANCH  13  64
BRANCH   8 123
ATOM    123  O   UNL     1     154.473 166.003 186.036  0.00  0.00    -0.391 OA
ATOM    124  H   UNL     1     153.508 166.022 185.908  0.00  0.00    +0.210 HD
ENDBRANCH   8 123
BRANCH  15 125
ATOM    125  O   UNL     1     158.972 163.378 184.662  0.00  0.00    -0.379 OA
BRANCH 125 126
ATOM    126  C   UNL     1     159.595 163.617 183.404  0.00  0.00    +0.037 C 
ATOM    127  H   UNL     1     158.921 164.151 182.726  0.00  0.00    +0.052 HD
ATOM    128  H   UNL     1     159.926 162.683 182.947  0.00  0.00    +0.052 HD
ATOM    129  H   UNL     1     160.471 164.245 183.575  0.00  0.00    +0.052 HD
ENDBRANCH 125 126
ENDBRANCH  15 125
TORSDOF 27
ENDMDL
MODEL 9
REMARK VINA RESULT:      -5.3      7.181     10.840
REMARK  Name = Ulapualide A_conf3
REMARK  27 active torsions:
REMARK  status: ('A' for Active; 'I' for Inactive)
REMARK    1  A    between atoms: C_1  and  C_2
REMARK    2  A    between atoms: C_9  and  O_63
REMARK    3  A    between atoms: C_14  and  C_38
REMARK    4  A    between atoms: C_15  and  C_37
REMARK    5  A    between atoms: C_16  and  O_35
REMARK    6  A    between atoms: O_35  and  C_36
REMARK    7  A    between atoms: C_38  and  C_39
REMARK    8  A    between atoms: C_39  and  C_40
REMARK    9  A    between atoms: C_39  and  O_61
REMARK   10  A    between atoms: C_40  and  C_41
REMARK   11  A    between atoms: C_40  and  C_42
REMARK   12  A    between atoms: C_42  and  C_43
REMARK   13  A    between atoms: C_43  and  C_44
REMARK   14  A    between atoms: C_44  and  C_46
REMARK   15  A    between atoms: C_46  and  C_47
REMARK   16  A    between atoms: C_46  and  C_48
REMARK   17  A    between atoms: C_48  and  C_49
REMARK   18  A    between atoms: C_48  and  O_57
REMARK   19  A    between atoms: C_49  and  C_50
REMARK   20  A    between atoms: C_49  and  C_51
REMARK   21  A    between atoms: C_52  and  N_53
REMARK   22  A    between atoms: N_53  and  C_54
REMARK   23  A    between atoms: N_53  and  C_55
REMARK   24  A    between atoms: C_55  and  O_56
REMARK   25  A    between atoms: O_57  and  C_58
REMARK   26  A    between atoms: C_58  and  C_60
REMARK   27  A    between atoms: O_61  and  C_62
REMARK                            x       y       z     vdW  Elec       q    Type
REMARK                         _______ _______ _______ _____ _____    ______ ____
ROOT
ATOM      1  C   UNL     1     151.489 167.614 192.443  0.00  0.00    +0.008 C 
ATOM      2  C   UNL     1     152.159 168.989 192.547  0.00  0.00    +0.014 C 
ATOM      3  C   UNL     1     151.396 170.090 191.828  0.00  0.00    +0.134 C 
ATOM      4  O   UNL     1     151.944 170.765 190.955  0.00  0.00    -0.297 OA
ATOM      5  C   UNL     1     149.975 170.355 192.297  0.00  0.00    +0.006 C 
ATOM      6  C   UNL     1     149.387 171.658 191.756  0.00  0.00    -0.044 C 
ATOM      7  C   UNL     1     148.065 171.977 192.455  0.00  0.00    -0.026 C 
ATOM      8  C   UNL     1     147.417 173.283 191.991  0.00  0.00    +0.065 C 
ATOM      9  C   UNL     1     147.019 173.335 190.520  0.00  0.00    +0.071 C 
ATOM     10  C   UNL     1     146.021 172.264 190.161  0.00  0.00    +0.310 C 
ATOM     11  O   UNL     1     146.317 171.111 189.884  0.00  0.00    -0.251 OA
ATOM     12  O   UNL     1     144.760 172.771 190.216  0.00  0.00    -0.461 OA
ATOM     13  C   UNL     1     143.672 171.923 189.785  0.00  0.00    +0.110 C 
ATOM     14  C   UNL     1     143.126 172.482 188.434  0.00  0.00    +0.020 C 
ATOM     15  C   UNL     1     144.142 172.421 187.245  0.00  0.00    +0.068 C 
ATOM     16  C   UNL     1     144.606 170.983 186.867  0.00  0.00    -0.008 C 
ATOM     17  C   UNL     1     143.896 170.469 185.637  0.00  0.00    -0.077 C 
ATOM     18  C   UNL     1     144.302 169.532 184.760  0.00  0.00    -0.003 C 
ATOM     19  C   UNL     1     145.499 168.769 184.838  0.00  0.00    +0.220 A 
ATOM     20  N   UNL     1     146.323 168.610 185.868  0.00  0.00    -0.205 NA
ATOM     21  C   UNL     1     147.308 167.761 185.421  0.00  0.00    +0.164 A 
ATOM     22  C   UNL     1     147.058 167.418 184.119  0.00  0.00    +0.125 A 
ATOM     23  O   UNL     1     145.917 168.038 183.735  0.00  0.00    -0.443 OA
ATOM     24  C   UNL     1     148.546 167.227 186.212  0.00  0.00    +0.250 A 
ATOM     25  N   UNL     1     148.821 167.485 187.479  0.00  0.00    -0.203 NA
ATOM     26  C   UNL     1     150.013 166.832 187.707  0.00  0.00    +0.164 A 
ATOM     27  C   UNL     1     150.412 166.184 186.567  0.00  0.00    +0.125 A 
ATOM     28  O   UNL     1     149.483 166.413 185.605  0.00  0.00    -0.442 OA
ATOM     29  C   UNL     1     150.840 166.799 189.033  0.00  0.00    +0.249 A 
ATOM     30  N   UNL     1     150.481 167.368 190.172  0.00  0.00    -0.212 NA
ATOM     31  C   UNL     1     151.517 167.100 191.039  0.00  0.00    +0.083 A 
ATOM     32  C   UNL     1     152.476 166.365 190.384  0.00  0.00    +0.116 A 
ATOM     33  O   UNL     1     152.056 166.153 189.112  0.00  0.00    -0.442 OA
ATOM     34  H   UNL     1     150.436 167.696 192.742  0.00  0.00    +0.037 HD
ATOM     35  H   UNL     1     153.176 168.956 192.138  0.00  0.00    +0.035 HD
ATOM     36  H   UNL     1     152.248 169.300 193.595  0.00  0.00    +0.035 HD
ATOM     37  H   UNL     1     150.003 170.394 193.391  0.00  0.00    +0.034 HD
ATOM     38  H   UNL     1     149.341 169.517 191.990  0.00  0.00    +0.034 HD
ATOM     39  H   UNL     1     149.245 171.564 190.674  0.00  0.00    +0.027 HD
ATOM     40  H   UNL     1     150.094 172.483 191.915  0.00  0.00    +0.027 HD
ATOM     41  H   UNL     1     148.242 172.051 193.536  0.00  0.00    +0.029 HD
ATOM     42  H   UNL     1     147.362 171.141 192.340  0.00  0.00    +0.029 HD
ATOM     43  H   UNL     1     148.119 174.104 192.187  0.00  0.00    +0.060 HD
ATOM     44  H   UNL     1     146.572 174.309 190.286  0.00  0.00    +0.040 HD
ATOM     45  H   UNL     1     147.884 173.231 189.858  0.00  0.00    +0.040 HD
ATOM     46  H   UNL     1     143.993 170.889 189.644  0.00  0.00    +0.074 HD
ATOM     47  H   UNL     1     142.928 173.552 188.598  0.00  0.00    +0.036 HD
ATOM     48  H   UNL     1     143.629 172.877 186.386  0.00  0.00    +0.060 HD
ATOM     49  H   UNL     1     145.688 170.970 186.712  0.00  0.00    +0.033 HD
ATOM     50  H   UNL     1     144.400 170.281 187.679  0.00  0.00    +0.033 HD
ATOM     51  H   UNL     1     142.928 170.917 185.425  0.00  0.00    +0.057 HD
ATOM     52  H   UNL     1     143.668 169.319 183.904  0.00  0.00    +0.067 HD
ATOM     53  H   UNL     1     147.546 166.794 183.385  0.00  0.00    +0.105 HD
ATOM     54  H   UNL     1     151.255 165.567 186.296  0.00  0.00    +0.105 HD
ATOM     55  H   UNL     1     153.440 165.952 190.648  0.00  0.00    +0.105 HD
ENDROOT
BRANCH   1  56
ATOM     56  C   UNL     1     152.139 166.639 193.429  0.00  0.00    -0.056 C 
ATOM     57  H   UNL     1     152.835 165.968 192.912  0.00  0.00    +0.024 HD
ATOM     58  H   UNL     1     151.392 166.017 193.937  0.00  0.00    +0.024 HD
ATOM     59  H   UNL     1     152.705 167.175 194.198  0.00  0.00    +0.024 HD
ENDBRANCH   1  56
BRANCH  14  60
ATOM     60  C   UNL     1     141.802 171.826 188.015  0.00  0.00    -0.057 C 
ATOM     61  H   UNL     1     141.941 170.775 187.746  0.00  0.00    +0.023 HD
ATOM     62  H   UNL     1     141.058 171.882 188.815  0.00  0.00    +0.023 HD
ATOM     63  H   UNL     1     141.361 172.346 187.157  0.00  0.00    +0.023 HD
ENDBRANCH  14  60
BRANCH  13  64
ATOM     64  C   UNL     1     142.639 171.965 190.928  0.00  0.00    +0.011 C 
ATOM     65  H   UNL     1     143.065 171.506 191.825  0.00  0.00    +0.033 HD
ATOM     66  H   UNL     1     141.758 171.385 190.622  0.00  0.00    +0.033 HD
BRANCH  64  67
ATOM     67  C   UNL     1     142.198 173.399 191.305  0.00  0.00    +0.064 C 
ATOM     68  H   UNL     1     142.207 174.039 190.412  0.00  0.00    +0.060 HD
BRANCH  67  69
ATOM     69  C   UNL     1     140.753 173.423 191.887  0.00  0.00    -0.017 C 
ATOM     70  H   UNL     1     140.355 174.422 191.654  0.00  0.00    +0.032 HD
BRANCH  69  71
ATOM     71  C   UNL     1     139.806 172.413 191.225  0.00  0.00    -0.060 C 
ATOM     72  H   UNL     1     138.764 172.636 191.483  0.00  0.00    +0.023 HD
ATOM     73  H   UNL     1     140.027 171.386 191.535  0.00  0.00    +0.023 HD
ATOM     74  H   UNL     1     139.877 172.457 190.134  0.00  0.00    +0.023 HD
ENDBRANCH  69  71
BRANCH  69  75
ATOM     75  C   UNL     1     140.724 173.298 193.433  0.00  0.00    -0.041 C 
ATOM     76  H   UNL     1     140.726 172.239 193.717  0.00  0.00    +0.027 HD
ATOM     77  H   UNL     1     141.672 173.701 193.815  0.00  0.00    +0.027 HD
BRANCH  75  78
ATOM     78  C   UNL     1     139.580 174.029 194.144  0.00  0.00    +0.007 C 
ATOM     79  H   UNL     1     139.063 173.367 194.837  0.00  0.00    +0.034 HD
ATOM     80  H   UNL     1     138.828 174.380 193.429  0.00  0.00    +0.034 HD
BRANCH  78  81
ATOM     81  C   UNL     1     140.082 175.266 194.874  0.00  0.00    +0.140 C 
ATOM     82  O   UNL     1     141.288 175.410 195.072  0.00  0.00    -0.297 OA
BRANCH  81  83
ATOM     83  C   UNL     1     139.064 176.360 195.224  0.00  0.00    +0.052 C 
ATOM     84  H   UNL     1     138.114 175.991 194.814  0.00  0.00    +0.041 HD
BRANCH  83  85
ATOM     85  C   UNL     1     138.849 176.518 196.729  0.00  0.00    -0.052 C 
ATOM     86  H   UNL     1     137.990 177.156 196.948  0.00  0.00    +0.024 HD
ATOM     87  H   UNL     1     139.723 176.978 197.198  0.00  0.00    +0.024 HD
ATOM     88  H   UNL     1     138.709 175.553 197.223  0.00  0.00    +0.024 HD
ENDBRANCH  83  85
BRANCH  83  89
ATOM     89  C   UNL     1     139.374 177.711 194.524  0.00  0.00    +0.118 C 
ATOM     90  H   UNL     1     140.460 177.846 194.418  0.00  0.00    +0.075 HD
BRANCH  89  91
ATOM     91  C   UNL     1     138.783 178.993 195.195  0.00  0.00    +0.014 C 
ATOM     92  H   UNL     1     138.219 178.668 196.071  0.00  0.00    +0.038 HD
BRANCH  91  93
ATOM     93  C   UNL     1     137.758 179.661 194.264  0.00  0.00    -0.056 C 
ATOM     94  H   UNL     1     137.701 179.148 193.297  0.00  0.00    +0.024 HD
ATOM     95  H   UNL     1     138.026 180.709 194.072  0.00  0.00    +0.024 HD
ATOM     96  H   UNL     1     136.757 179.657 194.706  0.00  0.00    +0.024 HD
ENDBRANCH  91  93
BRANCH  91  97
ATOM     97  C   UNL     1     139.822 180.018 195.571  0.00  0.00    -0.064 C 
ATOM     98  C   UNL     1     140.201 180.459 196.776  0.00  0.00    -0.010 C 
ATOM     99  H   UNL     1     140.374 180.423 194.721  0.00  0.00    +0.059 HD
ATOM    100  H   UNL     1     141.049 181.152 196.777  0.00  0.00    +0.078 HD
BRANCH  98 101
ATOM    101  N   UNL     1     139.759 180.217 198.065  0.00  0.00    -0.317 N 
BRANCH 101 102
ATOM    102  C   UNL     1     138.754 181.015 198.762  0.00  0.00    +0.002 C 
ATOM    103  H   UNL     1     138.088 181.517 198.050  0.00  0.00    +0.043 HD
ATOM    104  H   UNL     1     139.218 181.807 199.363  0.00  0.00    +0.043 HD
ATOM    105  H   UNL     1     138.168 180.388 199.439  0.00  0.00    +0.043 HD
ENDBRANCH 101 102
BRANCH 101 106
ATOM    106  C   UNL     1     140.307 179.123 198.850  0.00  0.00    +0.110 C 
ATOM    107  H   UNL     1     139.691 178.221 198.786  0.00  0.00    +0.077 HD
ATOM    108  H   UNL     1     140.397 179.392 199.907  0.00  0.00    +0.077 HD
BRANCH 106 109
ATOM    109  O   UNL     1     141.584 178.849 198.322  0.00  0.00    -0.377 OA
ATOM    110  H   UNL     1     142.154 179.135 199.056  0.00  0.00    +0.211 HD
ENDBRANCH 106 109
ENDBRANCH 101 106
ENDBRANCH  98 101
ENDBRANCH  91  97
ENDBRANCH  89  91
BRANCH  89 111
ATOM    111  O   UNL     1     138.779 177.656 193.191  0.00  0.00    -0.460 OA
BRANCH 111 112
ATOM    112  C   UNL     1     139.603 177.345 192.157  0.00  0.00    +0.304 C 
ATOM    113  O   UNL     1     139.311 176.647 191.197  0.00  0.00    -0.251 OA
BRANCH 112 114
ATOM    114  C   UNL     1     140.926 178.033 192.325  0.00  0.00    +0.033 C 
ATOM    115  H   UNL     1     141.231 178.027 193.378  0.00  0.00    +0.034 HD
ATOM    116  H   UNL     1     140.848 179.066 191.976  0.00  0.00    +0.034 HD
ATOM    117  H   UNL     1     141.688 177.495 191.754  0.00  0.00    +0.034 HD
ENDBRANCH 112 114
ENDBRANCH 111 112
ENDBRANCH  89 111
ENDBRANCH  83  89
ENDBRANCH  81  83
ENDBRANCH  78  81
ENDBRANCH  75  78
ENDBRANCH  69  75
ENDBRANCH  67  69
BRANCH  67 118
ATOM    118  O   UNL     1     143.112 173.895 192.293  0.00  0.00    -0.379 OA
BRANCH 118 119
ATOM    119  C   UNL     1     143.337 175.297 192.191  0.00  0.00    +0.037 C 
ATOM    120  H   UNL     1     144.302 175.452 191.698  0.00  0.00    +0.052 HD
ATOM    121  H   UNL     1     143.373 175.755 193.183  0.00  0.00    +0.052 HD
ATOM    122  H   UNL     1     142.569 175.779 191.587  0.00  0.00    +0.052 HD
ENDBRANCH 118 119
ENDBRANCH  67 118
ENDBRANCH  64  67
ENDBRANCH  13  64
BRANCH   8 123
ATOM    123  O   UNL     1     146.279 173.522 192.826  0.00  0.00    -0.391 OA
ATOM    124  H   UNL     1     145.482 173.281 192.323  0.00  0.00    +0.210 HD
ENDBRANCH   8 123
BRANCH  15 125
ATOM    125  O   UNL     1     145.251 173.287 187.543  0.00  0.00    -0.379 OA
BRANCH 125 126
ATOM    126  C   UNL     1     146.028 173.636 186.402  0.00  0.00    +0.037 C 
ATOM    127  H   UNL     1     145.432 173.571 185.485  0.00  0.00    +0.052 HD
ATOM    128  H   UNL     1     146.912 173.001 186.321  0.00  0.00    +0.052 HD
ATOM    129  H   UNL     1     146.356 174.670 186.520  0.00  0.00    +0.052 HD
ENDBRANCH 125 126
ENDBRANCH  15 125
TORSDOF 27
ENDMDL
MODEL 10
REMARK VINA RESULT:      -5.2     18.305     22.626
REMARK  Name = Ulapualide A_conf3
REMARK  27 active torsions:
REMARK  status: ('A' for Active; 'I' for Inactive)
REMARK    1  A    between atoms: C_1  and  C_2
REMARK    2  A    between atoms: C_9  and  O_63
REMARK    3  A    between atoms: C_14  and  C_38
REMARK    4  A    between atoms: C_15  and  C_37
REMARK    5  A    between atoms: C_16  and  O_35
REMARK    6  A    between atoms: O_35  and  C_36
REMARK    7  A    between atoms: C_38  and  C_39
REMARK    8  A    between atoms: C_39  and  C_40
REMARK    9  A    between atoms: C_39  and  O_61
REMARK   10  A    between atoms: C_40  and  C_41
REMARK   11  A    between atoms: C_40  and  C_42
REMARK   12  A    between atoms: C_42  and  C_43
REMARK   13  A    between atoms: C_43  and  C_44
REMARK   14  A    between atoms: C_44  and  C_46
REMARK   15  A    between atoms: C_46  and  C_47
REMARK   16  A    between atoms: C_46  and  C_48
REMARK   17  A    between atoms: C_48  and  C_49
REMARK   18  A    between atoms: C_48  and  O_57
REMARK   19  A    between atoms: C_49  and  C_50
REMARK   20  A    between atoms: C_49  and  C_51
REMARK   21  A    between atoms: C_52  and  N_53
REMARK   22  A    between atoms: N_53  and  C_54
REMARK   23  A    between atoms: N_53  and  C_55
REMARK   24  A    between atoms: C_55  and  O_56
REMARK   25  A    between atoms: O_57  and  C_58
REMARK   26  A    between atoms: C_58  and  C_60
REMARK   27  A    between atoms: O_61  and  C_62
REMARK                            x       y       z     vdW  Elec       q    Type
REMARK                         _______ _______ _______ _____ _____    ______ ____
ROOT
ATOM      1  C   UNL     1     134.675 156.469 200.917  0.00  0.00    +0.008 C 
ATOM      2  C   UNL     1     136.009 157.116 200.526  0.00  0.00    +0.014 C 
ATOM      3  C   UNL     1     135.863 158.540 200.014  0.00  0.00    +0.134 C 
ATOM      4  O   UNL     1     136.288 158.852 198.900  0.00  0.00    -0.297 OA
ATOM      5  C   UNL     1     135.248 159.550 200.969  0.00  0.00    +0.006 C 
ATOM      6  C   UNL     1     135.418 161.000 200.515  0.00  0.00    -0.044 C 
ATOM      7  C   UNL     1     134.997 161.960 201.629  0.00  0.00    -0.026 C 
ATOM      8  C   UNL     1     135.159 163.438 201.268  0.00  0.00    +0.065 C 
ATOM      9  C   UNL     1     134.316 163.925 200.094  0.00  0.00    +0.071 C 
ATOM     10  C   UNL     1     132.840 163.751 200.340  0.00  0.00    +0.310 C 
ATOM     11  O   UNL     1     132.228 162.709 200.151  0.00  0.00    -0.251 OA
ATOM     12  O   UNL     1     132.311 164.909 200.820  0.00  0.00    -0.461 OA
ATOM     13  C   UNL     1     130.879 164.972 201.002  0.00  0.00    +0.110 C 
ATOM     14  C   UNL     1     130.293 165.930 199.917  0.00  0.00    +0.020 C 
ATOM     15  C   UNL     1     130.461 165.426 198.445  0.00  0.00    +0.068 C 
ATOM     16  C   UNL     1     129.749 164.074 198.142  0.00  0.00    -0.008 C 
ATOM     17  C   UNL     1     128.449 164.278 197.398  0.00  0.00    -0.077 C 
ATOM     18  C   UNL     1     127.798 163.422 196.590  0.00  0.00    -0.003 C 
ATOM     19  C   UNL     1     128.182 162.085 196.296  0.00  0.00    +0.220 A 
ATOM     20  N   UNL     1     129.068 161.314 196.917  0.00  0.00    -0.205 NA
ATOM     21  C   UNL     1     129.041 160.113 196.249  0.00  0.00    +0.164 A 
ATOM     22  C   UNL     1     128.129 160.179 195.230  0.00  0.00    +0.125 A 
ATOM     23  O   UNL     1     127.571 161.413 195.247  0.00  0.00    -0.443 OA
ATOM     24  C   UNL     1     129.884 158.830 196.546  0.00  0.00    +0.250 A 
ATOM     25  N   UNL     1     130.747 158.687 197.537  0.00  0.00    -0.203 NA
ATOM     26  C   UNL     1     131.256 157.418 197.364  0.00  0.00    +0.164 A 
ATOM     27  C   UNL     1     130.667 156.828 196.276  0.00  0.00    +0.125 A 
ATOM     28  O   UNL     1     129.779 157.708 195.748  0.00  0.00    -0.442 OA
ATOM     29  C   UNL     1     132.342 156.704 198.231  0.00  0.00    +0.249 A 
ATOM     30  N   UNL     1     132.909 157.208 199.314  0.00  0.00    -0.212 NA
ATOM     31  C   UNL     1     133.807 156.246 199.719  0.00  0.00    +0.083 A 
ATOM     32  C   UNL     1     133.746 155.178 198.856  0.00  0.00    +0.116 A 
ATOM     33  O   UNL     1     132.810 155.446 197.912  0.00  0.00    -0.442 OA
ATOM     34  H   UNL     1     134.130 157.134 201.598  0.00  0.00    +0.037 HD
ATOM     35  H   UNL     1     136.514 156.526 199.752  0.00  0.00    +0.035 HD
ATOM     36  H   UNL     1     136.688 157.158 201.387  0.00  0.00    +0.035 HD
ATOM     37  H   UNL     1     135.740 159.412 201.937  0.00  0.00    +0.034 HD
ATOM     38  H   UNL     1     134.182 159.327 201.079  0.00  0.00    +0.034 HD
ATOM     39  H   UNL     1     134.821 161.163 199.612  0.00  0.00    +0.027 HD
ATOM     40  H   UNL     1     136.465 161.189 200.245  0.00  0.00    +0.027 HD
ATOM     41  H   UNL     1     135.606 161.759 202.521  0.00  0.00    +0.029 HD
ATOM     42  H   UNL     1     133.964 161.754 201.939  0.00  0.00    +0.029 HD
ATOM     43  H   UNL     1     136.215 163.621 201.034  0.00  0.00    +0.060 HD
ATOM     44  H   UNL     1     134.508 164.990 199.912  0.00  0.00    +0.040 HD
ATOM     45  H   UNL     1     134.572 163.408 199.165  0.00  0.00    +0.040 HD
ATOM     46  H   UNL     1     130.412 163.991 200.907  0.00  0.00    +0.074 HD
ATOM     47  H   UNL     1     130.875 166.862 199.978  0.00  0.00    +0.036 HD
ATOM     48  H   UNL     1     130.037 166.214 197.806  0.00  0.00    +0.060 HD
ATOM     49  H   UNL     1     130.414 163.424 197.567  0.00  0.00    +0.033 HD
ATOM     50  H   UNL     1     129.515 163.541 199.066  0.00  0.00    +0.033 HD
ATOM     51  H   UNL     1     127.976 165.249 197.528  0.00  0.00    +0.057 HD
ATOM     52  H   UNL     1     126.887 163.762 196.107  0.00  0.00    +0.067 HD
ATOM     53  H   UNL     1     127.782 159.497 194.469  0.00  0.00    +0.105 HD
ATOM     54  H   UNL     1     130.755 155.870 195.788  0.00  0.00    +0.105 HD
ATOM     55  H   UNL     1     134.260 154.230 198.770  0.00  0.00    +0.105 HD
ENDROOT
BRANCH   1  56
ATOM     56  C   UNL     1     134.930 155.175 201.696  0.00  0.00    -0.056 C 
ATOM     57  H   UNL     1     134.150 154.433 201.484  0.00  0.00    +0.024 HD
ATOM     58  H   UNL     1     134.939 155.348 202.778  0.00  0.00    +0.024 HD
ATOM     59  H   UNL     1     135.892 154.732 201.420  0.00  0.00    +0.024 HD
ENDBRANCH   1  56
BRANCH  14  60
ATOM     60  C   UNL     1     128.821 166.286 200.176  0.00  0.00    -0.057 C 
ATOM     61  H   UNL     1     128.422 165.744 201.037  0.00  0.00    +0.023 HD
ATOM     62  H   UNL     1     128.696 167.358 200.354  0.00  0.00    +0.023 HD
ATOM     63  H   UNL     1     128.202 166.052 199.303  0.00  0.00    +0.023 HD
ENDBRANCH  14  60
BRANCH  13  64
ATOM     64  C   UNL     1     130.669 165.478 202.443  0.00  0.00    +0.011 C 
ATOM     65  H   UNL     1     131.059 164.741 203.151  0.00  0.00    +0.033 HD
ATOM     66  H   UNL     1     129.591 165.596 202.617  0.00  0.00    +0.033 HD
BRANCH  64  67
ATOM     67  C   UNL     1     131.380 166.821 202.732  0.00  0.00    +0.064 C 
ATOM     68  H   UNL     1     131.414 167.430 201.818  0.00  0.00    +0.060 HD
BRANCH  67  69
ATOM     69  C   UNL     1     130.633 167.646 203.821  0.00  0.00    -0.017 C 
ATOM     70  H   UNL     1     130.640 168.687 203.465  0.00  0.00    +0.032 HD
BRANCH  69  71
ATOM     71  C   UNL     1     129.157 167.255 203.985  0.00  0.00    -0.060 C 
ATOM     72  H   UNL     1     128.571 168.108 204.346  0.00  0.00    +0.023 HD
ATOM     73  H   UNL     1     129.033 166.427 204.691  0.00  0.00    +0.023 HD
ATOM     74  H   UNL     1     128.718 166.952 203.030  0.00  0.00    +0.023 HD
ENDBRANCH  69  71
BRANCH  69  75
ATOM     75  C   UNL     1     131.372 167.653 205.185  0.00  0.00    -0.041 C 
ATOM     76  H   UNL     1     132.381 167.243 205.059  0.00  0.00    +0.027 HD
ATOM     77  H   UNL     1     131.521 168.702 205.476  0.00  0.00    +0.027 HD
BRANCH  75  78
ATOM     78  C   UNL     1     130.658 166.941 206.339  0.00  0.00    +0.007 C 
ATOM     79  H   UNL     1     130.600 165.868 206.162  0.00  0.00    +0.034 HD
ATOM     80  H   UNL     1     129.627 167.296 206.448  0.00  0.00    +0.034 HD
BRANCH  78  81
ATOM     81  C   UNL     1     131.344 167.218 207.669  0.00  0.00    +0.140 C 
ATOM     82  O   UNL     1     132.570 167.316 207.714  0.00  0.00    -0.297 OA
BRANCH  81  83
ATOM     83  C   UNL     1     130.460 167.496 208.893  0.00  0.00    +0.052 C 
ATOM     84  H   UNL     1     130.116 168.530 208.753  0.00  0.00    +0.041 HD
BRANCH  83  85
ATOM     85  C   UNL     1     129.203 166.627 208.932  0.00  0.00    -0.052 C 
ATOM     86  H   UNL     1     128.408 167.095 209.517  0.00  0.00    +0.024 HD
ATOM     87  H   UNL     1     129.416 165.658 209.392  0.00  0.00    +0.024 HD
ATOM     88  H   UNL     1     128.825 166.413 207.928  0.00  0.00    +0.024 HD
ENDBRANCH  83  85
BRANCH  83  89
ATOM     89  C   UNL     1     131.254 167.451 210.227  0.00  0.00    +0.118 C 
ATOM     90  H   UNL     1     132.329 167.574 210.035  0.00  0.00    +0.075 HD
BRANCH  89  91
ATOM     91  C   UNL     1     131.055 166.177 211.111  0.00  0.00    +0.014 C 
ATOM     92  H   UNL     1     129.984 165.965 211.137  0.00  0.00    +0.038 HD
BRANCH  91  93
ATOM     93  C   UNL     1     131.457 166.466 212.566  0.00  0.00    -0.056 C 
ATOM     94  H   UNL     1     131.274 167.515 212.831  0.00  0.00    +0.024 HD
ATOM     95  H   UNL     1     132.523 166.261 212.727  0.00  0.00    +0.024 HD
ATOM     96  H   UNL     1     130.895 165.841 213.266  0.00  0.00    +0.024 HD
ENDBRANCH  91  93
BRANCH  91  97
ATOM     97  C   UNL     1     131.832 164.977 210.634  0.00  0.00    -0.064 C 
ATOM     98  C   UNL     1     131.816 163.711 211.068  0.00  0.00    -0.010 C 
ATOM     99  H   UNL     1     132.470 165.176 209.770  0.00  0.00    +0.059 HD
ATOM    100  H   UNL     1     132.419 163.007 210.485  0.00  0.00    +0.078 HD
BRANCH  98 101
ATOM    101  N   UNL     1     131.176 163.068 212.112  0.00  0.00    -0.317 N 
BRANCH 101 102
ATOM    102  C   UNL     1     129.727 162.971 212.265  0.00  0.00    +0.002 C 
ATOM    103  H   UNL     1     129.463 162.277 213.072  0.00  0.00    +0.043 HD
ATOM    104  H   UNL     1     129.253 162.584 211.356  0.00  0.00    +0.043 HD
ATOM    105  H   UNL     1     129.296 163.955 212.468  0.00  0.00    +0.043 HD
ENDBRANCH 101 102
BRANCH 101 106
ATOM    106  C   UNL     1     131.936 162.443 213.183  0.00  0.00    +0.110 C 
ATOM    107  H   UNL     1     131.317 161.778 213.793  0.00  0.00    +0.077 HD
ATOM    108  H   UNL     1     132.381 163.190 213.849  0.00  0.00    +0.077 HD
BRANCH 106 109
ATOM    109  O   UNL     1     132.955 161.691 212.568  0.00  0.00    -0.377 OA
ATOM    110  H   UNL     1     133.570 162.394 212.298  0.00  0.00    +0.211 HD
ENDBRANCH 106 109
ENDBRANCH 101 106
ENDBRANCH  98 101
ENDBRANCH  91  97
ENDBRANCH  89  91
BRANCH  89 111
ATOM    111  O   UNL     1     130.793 168.571 211.043  0.00  0.00    -0.460 OA
BRANCH 111 112
ATOM    112  C   UNL     1     131.423 169.762 210.872  0.00  0.00    +0.304 C 
ATOM    113  O   UNL     1     131.082 170.645 210.099  0.00  0.00    -0.251 OA
BRANCH 112 114
ATOM    114  C   UNL     1     132.582 169.875 211.818  0.00  0.00    +0.033 C 
ATOM    115  H   UNL     1     132.663 170.896 212.207  0.00  0.00    +0.034 HD
ATOM    116  H   UNL     1     133.506 169.611 211.297  0.00  0.00    +0.034 HD
ATOM    117  H   UNL     1     132.421 169.206 212.668  0.00  0.00    +0.034 HD
ENDBRANCH 112 114
ENDBRANCH 111 112
ENDBRANCH  89 111
ENDBRANCH  83  89
ENDBRANCH  81  83
ENDBRANCH  78  81
ENDBRANCH  75  78
ENDBRANCH  69  75
ENDBRANCH  67  69
BRANCH  67 118
ATOM    118  O   UNL     1     132.707 166.526 203.193  0.00  0.00    -0.379 OA
BRANCH 118 119
ATOM    119  C   UNL     1     133.707 167.316 202.558  0.00  0.00    +0.037 C 
ATOM    120  H   UNL     1     134.123 168.000 203.303  0.00  0.00    +0.052 HD
ATOM    121  H   UNL     1     133.275 167.905 201.744  0.00  0.00    +0.052 HD
ATOM    122  H   UNL     1     134.519 166.696 202.179  0.00  0.00    +0.052 HD
ENDBRANCH 118 119
ENDBRANCH  67 118
ENDBRANCH  64  67
ENDBRANCH  13  64
BRANCH   8 123
ATOM    123  O   UNL     1     134.871 164.203 202.443  0.00  0.00    -0.391 OA
ATOM    124  H   UNL     1     134.157 164.828 202.226  0.00  0.00    +0.210 HD
ENDBRANCH   8 123
BRANCH  15 125
ATOM    125  O   UNL     1     131.864 165.382 198.132  0.00  0.00    -0.379 OA
BRANCH 125 126
ATOM    126  C   UNL     1     132.149 164.800 196.863  0.00  0.00    +0.037 C 
ATOM    127  H   UNL     1     131.400 164.046 196.598  0.00  0.00    +0.052 HD
ATOM    128  H   UNL     1     133.147 164.358 196.851  0.00  0.00    +0.052 HD
ATOM    129  H   UNL     1     132.114 165.592 196.113  0.00  0.00    +0.052 HD
ENDBRANCH 125 126
ENDBRANCH  15 125
TORSDOF 27
ENDMDL
