MODEL 1
REMARK VINA RESULT:      -5.1      0.000      0.000
REMARK  Name = 2a_conf3
REMARK  32 active torsions:
REMARK  status: ('A' for Active; 'I' for Inactive)
REMARK    1  A    between atoms: C_2  and  C_3
REMARK    2  A    between atoms: C_2  and  O_8
REMARK    3  A    between atoms: O_8  and  C_9
REMARK    4  A    between atoms: C_9  and  C_10
REMARK    5  A    between atoms: C_9  and  C_29
REMARK    6  A    between atoms: C_10  and  C_11
REMARK    7  A    between atoms: C_11  and  C_12
REMARK    8  A    between atoms: C_12  and  C_13
REMARK    9  A    between atoms: C_12  and  C_14
REMARK   10  A    between atoms: C_14  and  O_15
REMARK   11  A    between atoms: C_14  and  C_17
REMARK   12  A    between atoms: O_15  and  C_16
REMARK   13  A    between atoms: C_17  and  C_18
REMARK   14  A    between atoms: C_18  and  O_19
REMARK   15  A    between atoms: C_18  and  C_26
REMARK   16  A    between atoms: O_19  and  C_20
REMARK   17  A    between atoms: C_20  and  C_21
REMARK   18  A    between atoms: C_21  and  C_22
REMARK   19  A    between atoms: C_22  and  C_23
REMARK   20  A    between atoms: C_23  and  N_24
REMARK   21  A    between atoms: C_26  and  C_27
REMARK   22  A    between atoms: C_26  and  C_28
REMARK   23  A    between atoms: C_29  and  C_30
REMARK   24  A    between atoms: C_29  and  C_31
REMARK   25  A    between atoms: C_31  and  O_32
REMARK   26  A    between atoms: C_31  and  C_34
REMARK   27  A    between atoms: O_32  and  C_33
REMARK   28  A    between atoms: C_34  and  C_35
REMARK   29  A    between atoms: C_34  and  C_36
REMARK   30  A    between atoms: C_37  and  N_38
REMARK   31  A    between atoms: N_38  and  C_39
REMARK   32  A    between atoms: C_39  and  C_40
REMARK                            x       y       z     vdW  Elec       q    Type
REMARK                         _______ _______ _______ _____ _____    ______ ____
ROOT
ATOM      1  C   UNL     1     149.452 168.503 192.260  0.00  0.00    +0.108 C 
ATOM      2  H   UNL     1     149.192 168.015 191.322  0.00  0.00    +0.074 HD
ENDROOT
BRANCH   1   3
ATOM      3  C   UNL     1     148.703 167.738 193.368  0.00  0.00    -0.015 C 
ATOM      4  H   UNL     1     148.020 168.446 193.848  0.00  0.00    +0.030 HD
ATOM      5  H   UNL     1     149.391 167.440 194.170  0.00  0.00    +0.030 HD
BRANCH   3   6
ATOM      6  C   UNL     1     147.948 166.509 192.848  0.00  0.00    -0.045 C 
ATOM      7  H   UNL     1     148.197 165.661 193.500  0.00  0.00    +0.027 HD
ATOM      8  H   UNL     1     148.301 166.245 191.844  0.00  0.00    +0.027 HD
BRANCH   6   9
ATOM      9  C   UNL     1     146.408 166.696 192.819  0.00  0.00    -0.017 C 
ATOM     10  H   UNL     1     146.184 167.608 193.379  0.00  0.00    +0.032 HD
BRANCH   9  11
ATOM     11  C   UNL     1     145.763 165.521 193.568  0.00  0.00    -0.060 C 
ATOM     12  H   UNL     1     144.672 165.613 193.605  0.00  0.00    +0.023 HD
ATOM     13  H   UNL     1     145.998 164.572 193.073  0.00  0.00    +0.023 HD
ATOM     14  H   UNL     1     146.141 165.444 194.592  0.00  0.00    +0.023 HD
ENDBRANCH   9  11
BRANCH   9  15
ATOM     15  C   UNL     1     145.881 166.833 191.361  0.00  0.00    +0.064 C 
ATOM     16  H   UNL     1     145.813 167.897 191.107  0.00  0.00    +0.060 HD
BRANCH  15  17
ATOM     17  C   UNL     1     144.504 166.197 191.064  0.00  0.00    +0.011 C 
ATOM     18  H   UNL     1     144.566 165.749 190.065  0.00  0.00    +0.033 HD
ATOM     19  H   UNL     1     144.314 165.361 191.747  0.00  0.00    +0.033 HD
BRANCH  17  20
ATOM     20  C   UNL     1     143.325 167.191 191.094  0.00  0.00    +0.108 C 
ATOM     21  H   UNL     1     142.756 167.071 190.161  0.00  0.00    +0.074 HD
BRANCH  20  22
ATOM     22  C   UNL     1     142.375 166.957 192.301  0.00  0.00    -0.009 C 
ATOM     23  H   UNL     1     141.371 167.312 192.030  0.00  0.00    +0.033 HD
BRANCH  22  24
ATOM     24  C   UNL     1     142.819 167.694 193.569  0.00  0.00    -0.059 C 
ATOM     25  H   UNL     1     142.383 168.698 193.617  0.00  0.00    +0.023 HD
ATOM     26  H   UNL     1     143.909 167.798 193.602  0.00  0.00    +0.023 HD
ATOM     27  H   UNL     1     142.530 167.147 194.472  0.00  0.00    +0.023 HD
ENDBRANCH  22  24
BRANCH  22  28
ATOM     28  C   UNL     1     142.243 165.460 192.627  0.00  0.00    -0.059 C 
ATOM     29  H   UNL     1     142.606 165.229 193.632  0.00  0.00    +0.023 HD
ATOM     30  H   UNL     1     141.200 165.132 192.560  0.00  0.00    +0.023 HD
ATOM     31  H   UNL     1     142.832 164.861 191.926  0.00  0.00    +0.023 HD
ENDBRANCH  22  28
ENDBRANCH  20  22
BRANCH  20  32
ATOM     32  O   UNL     1     143.876 168.523 191.203  0.00  0.00    -0.461 OA
BRANCH  32  33
ATOM     33  C   UNL     1     143.413 169.468 190.344  0.00  0.00    +0.307 C 
ATOM     34  O   UNL     1     142.531 169.286 189.513  0.00  0.00    -0.251 OA
BRANCH  33  35
ATOM     35  C   UNL     1     144.172 170.769 190.464  0.00  0.00    +0.046 C 
ATOM     36  H   UNL     1     143.500 171.491 190.947  0.00  0.00    +0.038 HD
ATOM     37  H   UNL     1     145.018 170.602 191.140  0.00  0.00    +0.038 HD
BRANCH  35  38
ATOM     38  C   UNL     1     144.672 171.362 189.148  0.00  0.00    -0.031 C 
ATOM     39  H   UNL     1     144.740 170.550 188.413  0.00  0.00    +0.028 HD
ATOM     40  H   UNL     1     145.697 171.737 189.279  0.00  0.00    +0.028 HD
BRANCH  38  41
ATOM     41  C   UNL     1     143.814 172.487 188.564  0.00  0.00    -0.006 C 
ATOM     42  H   UNL     1     143.519 173.199 189.341  0.00  0.00    +0.042 HD
ATOM     43  H   UNL     1     144.422 173.042 187.842  0.00  0.00    +0.042 HD
BRANCH  41  44
ATOM     44  N   UNL     1     142.628 171.986 187.882  0.00  0.00    -0.330 NA
ATOM     45  H   UNL     1     142.273 171.167 188.376  0.00  0.00    +0.118 HD
ATOM     46  H   UNL     1     142.867 171.660 186.946  0.00  0.00    +0.118 HD
ENDBRANCH  41  44
ENDBRANCH  38  41
ENDBRANCH  35  38
ENDBRANCH  33  35
ENDBRANCH  32  33
ENDBRANCH  20  32
ENDBRANCH  17  20
ENDBRANCH  15  17
BRANCH  15  47
ATOM     47  O   UNL     1     146.847 166.204 190.495  0.00  0.00    -0.379 OA
BRANCH  47  48
ATOM     48  C   UNL     1     146.325 165.056 189.832  0.00  0.00    +0.037 C 
ATOM     49  H   UNL     1     146.118 165.267 188.777  0.00  0.00    +0.052 HD
ATOM     50  H   UNL     1     145.388 164.774 190.321  0.00  0.00    +0.052 HD
ATOM     51  H   UNL     1     147.027 164.219 189.917  0.00  0.00    +0.052 HD
ENDBRANCH  47  48
ENDBRANCH  15  47
ENDBRANCH   9  15
ENDBRANCH   6   9
ENDBRANCH   3   6
ENDBRANCH   1   3
BRANCH   1  52
ATOM     52  C   UNL     1     150.996 168.507 192.399  0.00  0.00    +0.020 C 
ATOM     53  H   UNL     1     151.255 168.332 193.447  0.00  0.00    +0.036 HD
BRANCH  52  54
ATOM     54  C   UNL     1     151.578 169.887 192.033  0.00  0.00    -0.057 C 
ATOM     55  H   UNL     1     152.314 170.230 192.768  0.00  0.00    +0.023 HD
ATOM     56  H   UNL     1     150.781 170.638 191.982  0.00  0.00    +0.023 HD
ATOM     57  H   UNL     1     152.059 169.864 191.051  0.00  0.00    +0.023 HD
ENDBRANCH  52  54
BRANCH  52  58
ATOM     58  C   UNL     1     151.723 167.409 191.550  0.00  0.00    +0.070 C 
ATOM     59  H   UNL     1     152.289 167.958 190.783  0.00  0.00    +0.061 HD
BRANCH  58  60
ATOM     60  C   UNL     1     152.776 166.523 192.304  0.00  0.00    +0.002 C 
ATOM     61  H   UNL     1     153.647 167.177 192.458  0.00  0.00    +0.037 HD
BRANCH  60  62
ATOM     62  C   UNL     1     152.323 166.175 193.713  0.00  0.00    -0.065 C 
ATOM     63  C   UNL     1     151.361 165.308 194.057  0.00  0.00    -0.005 C 
ATOM     64  H   UNL     1     152.852 166.732 194.483  0.00  0.00    +0.059 HD
ATOM     65  H   UNL     1     150.813 164.783 193.277  0.00  0.00    +0.078 HD
BRANCH  63  66
ATOM     66  N   UNL     1     150.950 165.020 195.351  0.00  0.00    -0.281 N 
ATOM     67  C   UNL     1     151.111 163.733 195.867  0.00  0.00    +0.206 C 
ATOM     68  O   UNL     1     150.767 163.357 196.983  0.00  0.00    -0.279 OA
ATOM     69  H   UNL     1     151.589 163.039 195.155  0.00  0.00    +0.126 HD
BRANCH  66  70
ATOM     70  C   UNL     1     150.314 166.012 196.218  0.00  0.00    +0.016 C 
ATOM     71  H   UNL     1     150.522 167.019 195.846  0.00  0.00    +0.047 HD
ATOM     72  H   UNL     1     150.766 165.962 197.215  0.00  0.00    +0.047 HD
BRANCH  70  73
ATOM     73  C   UNL     1     148.817 165.777 196.360  0.00  0.00    -0.049 C 
ATOM     74  H   UNL     1     148.313 165.803 195.386  0.00  0.00    +0.024 HD
ATOM     75  H   UNL     1     148.612 164.802 196.814  0.00  0.00    +0.024 HD
ATOM     76  H   UNL     1     148.371 166.551 196.994  0.00  0.00    +0.024 HD
ENDBRANCH  70  73
ENDBRANCH  66  70
ENDBRANCH  63  66
ENDBRANCH  60  62
BRANCH  60  77
ATOM     77  C   UNL     1     153.357 165.355 191.499  0.00  0.00    -0.057 C 
ATOM     78  H   UNL     1     154.394 165.504 191.193  0.00  0.00    +0.024 HD
ATOM     79  H   UNL     1     152.779 165.211 190.580  0.00  0.00    +0.024 HD
ATOM     80  H   UNL     1     153.301 164.418 192.059  0.00  0.00    +0.024 HD
ENDBRANCH  60  77
ENDBRANCH  58  60
BRANCH  58  81
ATOM     81  O   UNL     1     150.742 166.617 190.865  0.00  0.00    -0.379 OA
BRANCH  81  82
ATOM     82  C   UNL     1     150.722 166.798 189.455  0.00  0.00    +0.037 C 
ATOM     83  H   UNL     1     151.256 167.725 189.223  0.00  0.00    +0.052 HD
ATOM     84  H   UNL     1     151.229 165.971 188.950  0.00  0.00    +0.052 HD
ATOM     85  H   UNL     1     149.698 166.902 189.091  0.00  0.00    +0.052 HD
ENDBRANCH  81  82
ENDBRANCH  58  81
ENDBRANCH  52  58
ENDBRANCH   1  52
BRANCH   1  86
ATOM     86  O   UNL     1     148.950 169.856 192.280  0.00  0.00    -0.459 OA
BRANCH  86  88
ATOM     87  O   UNL     1     147.864 169.521 190.283  0.00  0.00    -0.248 OA
ATOM     88  C   UNL     1     148.112 170.214 191.263  0.00  0.00    +0.337 C 
BRANCH  88  89
ATOM     89  C   UNL     1     147.505 171.594 191.551  0.00  0.00    +0.155 C 
ATOM     90  O   UNL     1     147.868 172.560 190.549  0.00  0.00    -0.365 OA
ATOM     91  C   UNL     1     148.844 173.454 191.100  0.00  0.00    +0.049 C 
ATOM     92  C   UNL     1     149.244 172.898 192.447  0.00  0.00    -0.027 C 
ATOM     93  C   UNL     1     147.991 172.170 192.870  0.00  0.00    -0.014 C 
ATOM     94  H   UNL     1     146.415 171.482 191.530  0.00  0.00    +0.071 HD
ATOM     95  H   UNL     1     149.690 173.549 190.414  0.00  0.00    +0.056 HD
ATOM     96  H   UNL     1     148.367 174.436 191.205  0.00  0.00    +0.056 HD
ATOM     97  H   UNL     1     150.071 172.186 192.330  0.00  0.00    +0.029 HD
ATOM     98  H   UNL     1     149.563 173.672 193.149  0.00  0.00    +0.029 HD
ATOM     99  H   UNL     1     148.170 171.429 193.652  0.00  0.00    +0.030 HD
ATOM    100  H   UNL     1     147.263 172.897 193.249  0.00  0.00    +0.030 HD
ENDBRANCH  88  89
ENDBRANCH  86  88
ENDBRANCH   1  86
TORSDOF 32
ENDMDL
MODEL 2
REMARK VINA RESULT:      -5.0      2.926      7.318
REMARK  Name = 2a_conf3
REMARK  32 active torsions:
REMARK  status: ('A' for Active; 'I' for Inactive)
REMARK    1  A    between atoms: C_2  and  C_3
REMARK    2  A    between atoms: C_2  and  O_8
REMARK    3  A    between atoms: O_8  and  C_9
REMARK    4  A    between atoms: C_9  and  C_10
REMARK    5  A    between atoms: C_9  and  C_29
REMARK    6  A    between atoms: C_10  and  C_11
REMARK    7  A    between atoms: C_11  and  C_12
REMARK    8  A    between atoms: C_12  and  C_13
REMARK    9  A    between atoms: C_12  and  C_14
REMARK   10  A    between atoms: C_14  and  O_15
REMARK   11  A    between atoms: C_14  and  C_17
REMARK   12  A    between atoms: O_15  and  C_16
REMARK   13  A    between atoms: C_17  and  C_18
REMARK   14  A    between atoms: C_18  and  O_19
REMARK   15  A    between atoms: C_18  and  C_26
REMARK   16  A    between atoms: O_19  and  C_20
REMARK   17  A    between atoms: C_20  and  C_21
REMARK   18  A    between atoms: C_21  and  C_22
REMARK   19  A    between atoms: C_22  and  C_23
REMARK   20  A    between atoms: C_23  and  N_24
REMARK   21  A    between atoms: C_26  and  C_27
REMARK   22  A    between atoms: C_26  and  C_28
REMARK   23  A    between atoms: C_29  and  C_30
REMARK   24  A    between atoms: C_29  and  C_31
REMARK   25  A    between atoms: C_31  and  O_32
REMARK   26  A    between atoms: C_31  and  C_34
REMARK   27  A    between atoms: O_32  and  C_33
REMARK   28  A    between atoms: C_34  and  C_35
REMARK   29  A    between atoms: C_34  and  C_36
REMARK   30  A    between atoms: C_37  and  N_38
REMARK   31  A    between atoms: N_38  and  C_39
REMARK   32  A    between atoms: C_39  and  C_40
REMARK                            x       y       z     vdW  Elec       q    Type
REMARK                         _______ _______ _______ _____ _____    ______ ____
ROOT
ATOM      1  C   UNL     1     147.089 168.983 190.700  0.00  0.00    +0.108 C 
ATOM      2  H   UNL     1     146.396 169.110 191.530  0.00  0.00    +0.074 HD
ENDROOT
BRANCH   1   3
ATOM      3  C   UNL     1     148.375 168.380 191.298  0.00  0.00    -0.015 C 
ATOM      4  H   UNL     1     149.172 169.119 191.165  0.00  0.00    +0.030 HD
ATOM      5  H   UNL     1     148.708 167.513 190.714  0.00  0.00    +0.030 HD
BRANCH   3   6
ATOM      6  C   UNL     1     148.228 167.989 192.773  0.00  0.00    -0.045 C 
ATOM      7  H   UNL     1     147.207 168.244 193.087  0.00  0.00    +0.027 HD
ATOM      8  H   UNL     1     148.905 168.588 193.393  0.00  0.00    +0.027 HD
BRANCH   6   9
ATOM      9  C   UNL     1     148.483 166.483 193.042  0.00  0.00    -0.017 C 
ATOM     10  H   UNL     1     148.767 166.029 192.088  0.00  0.00    +0.032 HD
BRANCH   9  11
ATOM     11  C   UNL     1     147.162 165.839 193.488  0.00  0.00    -0.060 C 
ATOM     12  H   UNL     1     147.314 165.129 194.309  0.00  0.00    +0.023 HD
ATOM     13  H   UNL     1     146.459 166.603 193.837  0.00  0.00    +0.023 HD
ATOM     14  H   UNL     1     146.674 165.314 192.661  0.00  0.00    +0.023 HD
ENDBRANCH   9  11
BRANCH   9  15
ATOM     15  C   UNL     1     149.626 166.277 194.079  0.00  0.00    +0.064 C 
ATOM     16  H   UNL     1     149.845 167.236 194.560  0.00  0.00    +0.060 HD
BRANCH  15  17
ATOM     17  C   UNL     1     150.958 165.716 193.534  0.00  0.00    +0.011 C 
ATOM     18  H   UNL     1     151.742 166.004 194.245  0.00  0.00    +0.033 HD
ATOM     19  H   UNL     1     150.944 164.619 193.544  0.00  0.00    +0.033 HD
BRANCH  17  20
ATOM     20  C   UNL     1     151.339 166.234 192.133  0.00  0.00    +0.108 C 
ATOM     21  H   UNL     1     150.446 166.690 191.683  0.00  0.00    +0.074 HD
BRANCH  20  22
ATOM     22  C   UNL     1     152.480 167.289 192.175  0.00  0.00    -0.009 C 
ATOM     23  H   UNL     1     153.008 167.271 191.212  0.00  0.00    +0.033 HD
BRANCH  22  24
ATOM     24  C   UNL     1     153.502 167.028 193.287  0.00  0.00    -0.059 C 
ATOM     25  H   UNL     1     153.182 166.204 193.934  0.00  0.00    +0.023 HD
ATOM     26  H   UNL     1     153.635 167.916 193.914  0.00  0.00    +0.023 HD
ATOM     27  H   UNL     1     154.487 166.784 192.876  0.00  0.00    +0.023 HD
ENDBRANCH  22  24
BRANCH  22  28
ATOM     28  C   UNL     1     151.920 168.710 192.348  0.00  0.00    -0.059 C 
ATOM     29  H   UNL     1     151.555 168.882 193.365  0.00  0.00    +0.023 HD
ATOM     30  H   UNL     1     152.685 169.465 192.132  0.00  0.00    +0.023 HD
ATOM     31  H   UNL     1     151.078 168.877 191.670  0.00  0.00    +0.023 HD
ENDBRANCH  22  28
ENDBRANCH  20  22
BRANCH  20  32
ATOM     32  O   UNL     1     151.797 165.104 191.356  0.00  0.00    -0.461 OA
BRANCH  32  33
ATOM     33  C   UNL     1     151.720 165.197 190.003  0.00  0.00    +0.307 C 
ATOM     34  O   UNL     1     152.606 164.860 189.226  0.00  0.00    -0.251 OA
BRANCH  33  35
ATOM     35  C   UNL     1     150.436 165.852 189.549  0.00  0.00    +0.046 C 
ATOM     36  H   UNL     1     149.700 165.050 189.402  0.00  0.00    +0.038 HD
ATOM     37  H   UNL     1     150.076 166.485 190.368  0.00  0.00    +0.038 HD
BRANCH  35  38
ATOM     38  C   UNL     1     150.535 166.674 188.266  0.00  0.00    -0.031 C 
ATOM     39  H   UNL     1     151.308 166.221 187.631  0.00  0.00    +0.028 HD
ATOM     40  H   UNL     1     150.894 167.685 188.502  0.00  0.00    +0.028 HD
BRANCH  38  41
ATOM     41  C   UNL     1     149.240 166.795 187.459  0.00  0.00    -0.006 C 
ATOM     42  H   UNL     1     149.139 165.966 186.752  0.00  0.00    +0.042 HD
ATOM     43  H   UNL     1     148.396 166.721 188.154  0.00  0.00    +0.042 HD
BRANCH  41  44
ATOM     44  N   UNL     1     149.143 168.062 186.747  0.00  0.00    -0.330 NA
ATOM     45  H   UNL     1     148.227 168.132 186.303  0.00  0.00    +0.118 HD
ATOM     46  H   UNL     1     149.820 168.097 185.986  0.00  0.00    +0.118 HD
ENDBRANCH  41  44
ENDBRANCH  38  41
ENDBRANCH  35  38
ENDBRANCH  33  35
ENDBRANCH  32  33
ENDBRANCH  20  32
ENDBRANCH  17  20
ENDBRANCH  15  17
BRANCH  15  47
ATOM     47  O   UNL     1     149.139 165.353 195.074  0.00  0.00    -0.379 OA
BRANCH  47  48
ATOM     48  C   UNL     1     149.720 165.570 196.357  0.00  0.00    +0.037 C 
ATOM     49  H   UNL     1     149.107 166.249 196.960  0.00  0.00    +0.052 HD
ATOM     50  H   UNL     1     150.705 166.023 196.214  0.00  0.00    +0.052 HD
ATOM     51  H   UNL     1     149.849 164.616 196.879  0.00  0.00    +0.052 HD
ENDBRANCH  47  48
ENDBRANCH  15  47
ENDBRANCH   9  15
ENDBRANCH   6   9
ENDBRANCH   3   6
ENDBRANCH   1   3
BRANCH   1  52
ATOM     52  C   UNL     1     146.402 168.110 189.618  0.00  0.00    +0.020 C 
ATOM     53  H   UNL     1     147.133 167.397 189.225  0.00  0.00    +0.036 HD
BRANCH  52  54
ATOM     54  C   UNL     1     145.950 168.971 188.422  0.00  0.00    -0.057 C 
ATOM     55  H   UNL     1     145.461 168.371 187.646  0.00  0.00    +0.023 HD
ATOM     56  H   UNL     1     146.809 169.474 187.964  0.00  0.00    +0.023 HD
ATOM     57  H   UNL     1     145.253 169.753 188.740  0.00  0.00    +0.023 HD
ENDBRANCH  52  54
BRANCH  52  58
ATOM     58  C   UNL     1     145.178 167.282 190.138  0.00  0.00    +0.070 C 
ATOM     59  H   UNL     1     144.401 167.393 189.368  0.00  0.00    +0.061 HD
BRANCH  58  60
ATOM     60  C   UNL     1     145.397 165.737 190.305  0.00  0.00    +0.002 C 
ATOM     61  H   UNL     1     145.437 165.568 191.392  0.00  0.00    +0.037 HD
BRANCH  60  62
ATOM     62  C   UNL     1     144.187 164.937 189.851  0.00  0.00    -0.065 C 
ATOM     63  C   UNL     1     144.193 163.728 189.274  0.00  0.00    -0.005 C 
ATOM     64  H   UNL     1     143.244 165.455 190.014  0.00  0.00    +0.059 HD
ATOM     65  H   UNL     1     145.144 163.234 189.083  0.00  0.00    +0.078 HD
BRANCH  63  66
ATOM     66  N   UNL     1     143.077 163.023 188.849  0.00  0.00    -0.281 N 
ATOM     67  C   UNL     1     142.627 161.918 189.573  0.00  0.00    +0.206 C 
ATOM     68  O   UNL     1     141.670 161.208 189.283  0.00  0.00    -0.279 OA
ATOM     69  H   UNL     1     143.236 161.714 190.471  0.00  0.00    +0.126 HD
BRANCH  66  70
ATOM     70  C   UNL     1     142.340 163.368 187.633  0.00  0.00    +0.016 C 
ATOM     71  H   UNL     1     141.981 162.457 187.144  0.00  0.00    +0.047 HD
ATOM     72  H   UNL     1     143.024 163.840 186.918  0.00  0.00    +0.047 HD
BRANCH  70  73
ATOM     73  C   UNL     1     141.194 164.331 187.907  0.00  0.00    -0.049 C 
ATOM     74  H   UNL     1     141.564 165.316 188.217  0.00  0.00    +0.024 HD
ATOM     75  H   UNL     1     140.577 164.474 187.014  0.00  0.00    +0.024 HD
ATOM     76  H   UNL     1     140.555 163.941 188.707  0.00  0.00    +0.024 HD
ENDBRANCH  70  73
ENDBRANCH  66  70
ENDBRANCH  63  66
ENDBRANCH  60  62
BRANCH  60  77
ATOM     77  C   UNL     1     146.750 165.204 189.821  0.00  0.00    -0.057 C 
ATOM     78  H   UNL     1     146.722 164.163 189.498  0.00  0.00    +0.024 HD
ATOM     79  H   UNL     1     147.485 165.260 190.631  0.00  0.00    +0.024 HD
ATOM     80  H   UNL     1     147.142 165.804 188.996  0.00  0.00    +0.024 HD
ENDBRANCH  60  77
ENDBRANCH  58  60
BRANCH  58  81
ATOM     81  O   UNL     1     144.674 167.888 191.337  0.00  0.00    -0.379 OA
BRANCH  81  82
ATOM     82  C   UNL     1     143.272 168.124 191.330  0.00  0.00    +0.037 C 
ATOM     83  H   UNL     1     143.063 168.960 192.005  0.00  0.00    +0.052 HD
ATOM     84  H   UNL     1     142.929 168.395 190.327  0.00  0.00    +0.052 HD
ATOM     85  H   UNL     1     142.729 167.251 191.699  0.00  0.00    +0.052 HD
ENDBRANCH  81  82
ENDBRANCH  58  81
ENDBRANCH  52  58
ENDBRANCH   1  52
BRANCH   1  86
ATOM     86  O   UNL     1     147.451 170.264 190.145  0.00  0.00    -0.459 OA
BRANCH  86  88
ATOM     87  O   UNL     1     145.855 171.545 191.189  0.00  0.00    -0.248 OA
ATOM     88  C   UNL     1     147.008 171.370 190.814  0.00  0.00    +0.337 C 
BRANCH  88  89
ATOM     89  C   UNL     1     148.176 172.337 191.052  0.00  0.00    +0.155 C 
ATOM     90  O   UNL     1     149.422 171.641 191.223  0.00  0.00    -0.365 OA
ATOM     91  C   UNL     1     149.791 171.685 192.609  0.00  0.00    +0.049 C 
ATOM     92  C   UNL     1     148.618 172.273 193.360  0.00  0.00    -0.027 C 
ATOM     93  C   UNL     1     147.989 173.161 192.315  0.00  0.00    -0.014 C 
ATOM     94  H   UNL     1     148.263 172.968 190.160  0.00  0.00    +0.071 HD
ATOM     95  H   UNL     1     150.054 170.682 192.955  0.00  0.00    +0.056 HD
ATOM     96  H   UNL     1     150.675 172.328 192.693  0.00  0.00    +0.056 HD
ATOM     97  H   UNL     1     147.918 171.478 193.647  0.00  0.00    +0.029 HD
ATOM     98  H   UNL     1     148.917 172.803 194.268  0.00  0.00    +0.029 HD
ATOM     99  H   UNL     1     146.953 173.421 192.540  0.00  0.00    +0.030 HD
ATOM    100  H   UNL     1     148.565 174.091 192.239  0.00  0.00    +0.030 HD
ENDBRANCH  88  89
ENDBRANCH  86  88
ENDBRANCH   1  86
TORSDOF 32
ENDMDL
MODEL 3
REMARK VINA RESULT:      -5.0      1.263      2.025
REMARK  Name = 2a_conf3
REMARK  32 active torsions:
REMARK  status: ('A' for Active; 'I' for Inactive)
REMARK    1  A    between atoms: C_2  and  C_3
REMARK    2  A    between atoms: C_2  and  O_8
REMARK    3  A    between atoms: O_8  and  C_9
REMARK    4  A    between atoms: C_9  and  C_10
REMARK    5  A    between atoms: C_9  and  C_29
REMARK    6  A    between atoms: C_10  and  C_11
REMARK    7  A    between atoms: C_11  and  C_12
REMARK    8  A    between atoms: C_12  and  C_13
REMARK    9  A    between atoms: C_12  and  C_14
REMARK   10  A    between atoms: C_14  and  O_15
REMARK   11  A    between atoms: C_14  and  C_17
REMARK   12  A    between atoms: O_15  and  C_16
REMARK   13  A    between atoms: C_17  and  C_18
REMARK   14  A    between atoms: C_18  and  O_19
REMARK   15  A    between atoms: C_18  and  C_26
REMARK   16  A    between atoms: O_19  and  C_20
REMARK   17  A    between atoms: C_20  and  C_21
REMARK   18  A    between atoms: C_21  and  C_22
REMARK   19  A    between atoms: C_22  and  C_23
REMARK   20  A    between atoms: C_23  and  N_24
REMARK   21  A    between atoms: C_26  and  C_27
REMARK   22  A    between atoms: C_26  and  C_28
REMARK   23  A    between atoms: C_29  and  C_30
REMARK   24  A    between atoms: C_29  and  C_31
REMARK   25  A    between atoms: C_31  and  O_32
REMARK   26  A    between atoms: C_31  and  C_34
REMARK   27  A    between atoms: O_32  and  C_33
REMARK   28  A    between atoms: C_34  and  C_35
REMARK   29  A    between atoms: C_34  and  C_36
REMARK   30  A    between atoms: C_37  and  N_38
REMARK   31  A    between atoms: N_38  and  C_39
REMARK   32  A    between atoms: C_39  and  C_40
REMARK                            x       y       z     vdW  Elec       q    Type
REMARK                         _______ _______ _______ _____ _____    ______ ____
ROOT
ATOM      1  C   UNL     1     148.769 168.336 192.336  0.00  0.00    +0.108 C 
ATOM      2  H   UNL     1     148.570 167.875 191.371  0.00  0.00    +0.074 HD
ENDROOT
BRANCH   1   3
ATOM      3  C   UNL     1     147.982 167.520 193.379  0.00  0.00    -0.015 C 
ATOM      4  H   UNL     1     147.411 168.231 193.986  0.00  0.00    +0.030 HD
ATOM      5  H   UNL     1     148.662 167.039 194.093  0.00  0.00    +0.030 HD
BRANCH   3   6
ATOM      6  C   UNL     1     147.060 166.469 192.750  0.00  0.00    -0.045 C 
ATOM      7  H   UNL     1     147.566 165.496 192.817  0.00  0.00    +0.027 HD
ATOM      8  H   UNL     1     146.924 166.676 191.681  0.00  0.00    +0.027 HD
BRANCH   6   9
ATOM      9  C   UNL     1     145.673 166.371 193.436  0.00  0.00    -0.017 C 
ATOM     10  H   UNL     1     145.500 167.321 193.949  0.00  0.00    +0.032 HD
BRANCH   9  11
ATOM     11  C   UNL     1     145.737 165.271 194.505  0.00  0.00    -0.060 C 
ATOM     12  H   UNL     1     145.995 165.676 195.490  0.00  0.00    +0.023 HD
ATOM     13  H   UNL     1     144.768 164.767 194.598  0.00  0.00    +0.023 HD
ATOM     14  H   UNL     1     146.469 164.501 194.242  0.00  0.00    +0.023 HD
ENDBRANCH   9  11
BRANCH   9  15
ATOM     15  C   UNL     1     144.541 166.125 192.396  0.00  0.00    +0.064 C 
ATOM     16  H   UNL     1     144.888 165.391 191.661  0.00  0.00    +0.060 HD
BRANCH  15  17
ATOM     17  C   UNL     1     144.042 167.361 191.616  0.00  0.00    +0.011 C 
ATOM     18  H   UNL     1     142.976 167.479 191.849  0.00  0.00    +0.033 HD
ATOM     19  H   UNL     1     144.525 168.271 191.991  0.00  0.00    +0.033 HD
BRANCH  17  20
ATOM     20  C   UNL     1     144.209 167.258 190.087  0.00  0.00    +0.108 C 
ATOM     21  H   UNL     1     144.681 168.185 189.732  0.00  0.00    +0.074 HD
BRANCH  20  22
ATOM     22  C   UNL     1     145.088 166.048 189.661  0.00  0.00    -0.009 C 
ATOM     23  H   UNL     1     145.309 165.446 190.553  0.00  0.00    +0.033 HD
BRANCH  22  24
ATOM     24  C   UNL     1     146.416 166.465 189.021  0.00  0.00    -0.059 C 
ATOM     25  H   UNL     1     146.807 167.380 189.478  0.00  0.00    +0.023 HD
ATOM     26  H   UNL     1     146.295 166.649 187.948  0.00  0.00    +0.023 HD
ATOM     27  H   UNL     1     147.171 165.678 189.119  0.00  0.00    +0.023 HD
ENDBRANCH  22  24
BRANCH  22  28
ATOM     28  C   UNL     1     144.338 165.131 188.681  0.00  0.00    -0.059 C 
ATOM     29  H   UNL     1     145.021 164.474 188.135  0.00  0.00    +0.023 HD
ATOM     30  H   UNL     1     143.612 164.502 189.206  0.00  0.00    +0.023 HD
ATOM     31  H   UNL     1     143.797 165.724 187.936  0.00  0.00    +0.023 HD
ENDBRANCH  22  28
ENDBRANCH  20  22
BRANCH  20  32
ATOM     32  O   UNL     1     142.894 167.087 189.511  0.00  0.00    -0.461 OA
BRANCH  32  33
ATOM     33  C   UNL     1     142.176 168.207 189.238  0.00  0.00    +0.307 C 
ATOM     34  O   UNL     1     141.038 168.423 189.636  0.00  0.00    -0.251 OA
BRANCH  33  35
ATOM     35  C   UNL     1     142.909 169.140 188.302  0.00  0.00    +0.046 C 
ATOM     36  H   UNL     1     143.911 168.719 188.147  0.00  0.00    +0.038 HD
ATOM     37  H   UNL     1     142.390 169.122 187.337  0.00  0.00    +0.038 HD
BRANCH  35  38
ATOM     38  C   UNL     1     143.048 170.582 188.787  0.00  0.00    -0.031 C 
ATOM     39  H   UNL     1     142.491 170.679 189.729  0.00  0.00    +0.028 HD
ATOM     40  H   UNL     1     142.556 171.259 188.075  0.00  0.00    +0.028 HD
BRANCH  38  41
ATOM     41  C   UNL     1     144.482 171.068 189.008  0.00  0.00    -0.006 C 
ATOM     42  H   UNL     1     144.605 172.099 188.665  0.00  0.00    +0.042 HD
ATOM     43  H   UNL     1     144.682 171.066 190.085  0.00  0.00    +0.042 HD
BRANCH  41  44
ATOM     44  N   UNL     1     145.466 170.214 188.355  0.00  0.00    -0.330 NA
ATOM     45  H   UNL     1     145.723 170.619 187.455  0.00  0.00    +0.118 HD
ATOM     46  H   UNL     1     145.061 169.303 188.140  0.00  0.00    +0.118 HD
ENDBRANCH  41  44
ENDBRANCH  38  41
ENDBRANCH  35  38
ENDBRANCH  33  35
ENDBRANCH  32  33
ENDBRANCH  20  32
ENDBRANCH  17  20
ENDBRANCH  15  17
BRANCH  15  47
ATOM     47  O   UNL     1     143.414 165.577 193.111  0.00  0.00    -0.379 OA
BRANCH  47  48
ATOM     48  C   UNL     1     142.237 166.367 192.969  0.00  0.00    +0.037 C 
ATOM     49  H   UNL     1     142.306 167.289 193.555  0.00  0.00    +0.052 HD
ATOM     50  H   UNL     1     141.387 165.783 193.335  0.00  0.00    +0.052 HD
ATOM     51  H   UNL     1     142.066 166.603 191.913  0.00  0.00    +0.052 HD
ENDBRANCH  47  48
ENDBRANCH  15  47
ENDBRANCH   9  15
ENDBRANCH   6   9
ENDBRANCH   3   6
ENDBRANCH   1   3
BRANCH   1  52
ATOM     52  C   UNL     1     150.304 168.368 192.557  0.00  0.00    +0.020 C 
ATOM     53  H   UNL     1     150.516 168.094 193.594  0.00  0.00    +0.036 HD
BRANCH  52  54
ATOM     54  C   UNL     1     150.859 169.792 192.362  0.00  0.00    -0.057 C 
ATOM     55  H   UNL     1     151.126 170.263 193.315  0.00  0.00    +0.023 HD
ATOM     56  H   UNL     1     150.115 170.431 191.871  0.00  0.00    +0.023 HD
ATOM     57  H   UNL     1     151.747 169.786 191.723  0.00  0.00    +0.023 HD
ENDBRANCH  52  54
BRANCH  52  58
ATOM     58  C   UNL     1     151.107 167.381 191.642  0.00  0.00    +0.070 C 
ATOM     59  H   UNL     1     151.541 168.005 190.848  0.00  0.00    +0.061 HD
BRANCH  58  60
ATOM     60  C   UNL     1     152.317 166.636 192.309  0.00  0.00    +0.002 C 
ATOM     61  H   UNL     1     153.105 167.399 192.411  0.00  0.00    +0.037 HD
BRANCH  60  62
ATOM     62  C   UNL     1     152.015 166.224 193.740  0.00  0.00    -0.065 C 
ATOM     63  C   UNL     1     151.083 165.351 194.144  0.00  0.00    -0.005 C 
ATOM     64  H   UNL     1     152.633 166.736 194.473  0.00  0.00    +0.059 HD
ATOM     65  H   UNL     1     150.445 164.870 193.405  0.00  0.00    +0.078 HD
BRANCH  63  66
ATOM     66  N   UNL     1     150.810 165.002 195.460  0.00  0.00    -0.281 N 
ATOM     67  C   UNL     1     151.026 163.695 195.898  0.00  0.00    +0.206 C 
ATOM     68  O   UNL     1     150.801 163.268 197.025  0.00  0.00    -0.279 OA
ATOM     69  H   UNL     1     151.427 163.036 195.109  0.00  0.00    +0.126 HD
BRANCH  66  70
ATOM     70  C   UNL     1     150.267 165.951 196.432  0.00  0.00    +0.016 C 
ATOM     71  H   UNL     1     150.630 166.959 196.212  0.00  0.00    +0.047 HD
ATOM     72  H   UNL     1     150.652 165.706 197.429  0.00  0.00    +0.047 HD
BRANCH  70  73
ATOM     73  C   UNL     1     148.746 165.914 196.485  0.00  0.00    -0.049 C 
ATOM     74  H   UNL     1     148.338 165.187 195.775  0.00  0.00    +0.024 HD
ATOM     75  H   UNL     1     148.394 165.637 197.484  0.00  0.00    +0.024 HD
ATOM     76  H   UNL     1     148.336 166.899 196.238  0.00  0.00    +0.024 HD
ENDBRANCH  70  73
ENDBRANCH  66  70
ENDBRANCH  63  66
ENDBRANCH  60  62
BRANCH  60  77
ATOM     77  C   UNL     1     152.988 165.560 191.447  0.00  0.00    -0.057 C 
ATOM     78  H   UNL     1     152.306 165.066 190.752  0.00  0.00    +0.024 HD
ATOM     79  H   UNL     1     153.403 164.774 192.087  0.00  0.00    +0.024 HD
ATOM     80  H   UNL     1     153.818 165.972 190.869  0.00  0.00    +0.024 HD
ENDBRANCH  60  77
ENDBRANCH  58  60
BRANCH  58  81
ATOM     81  O   UNL     1     150.194 166.471 191.014  0.00  0.00    -0.379 OA
BRANCH  81  82
ATOM     82  C   UNL     1     150.104 166.612 189.602  0.00  0.00    +0.037 C 
ATOM     83  H   UNL     1     150.361 167.644 189.345  0.00  0.00    +0.052 HD
ATOM     84  H   UNL     1     150.810 165.944 189.099  0.00  0.00    +0.052 HD
ATOM     85  H   UNL     1     149.086 166.424 189.256  0.00  0.00    +0.052 HD
ENDBRANCH  81  82
ENDBRANCH  58  81
ENDBRANCH  52  58
ENDBRANCH   1  52
BRANCH   1  86
ATOM     86  O   UNL     1     148.237 169.677 192.373  0.00  0.00    -0.459 OA
BRANCH  86  88
ATOM     87  O   UNL     1     147.804 169.599 190.119  0.00  0.00    -0.248 OA
ATOM     88  C   UNL     1     147.808 170.199 191.186  0.00  0.00    +0.337 C 
BRANCH  88  89
ATOM     89  C   UNL     1     147.303 171.633 191.401  0.00  0.00    +0.155 C 
ATOM     90  O   UNL     1     147.754 172.522 190.365  0.00  0.00    -0.365 OA
ATOM     91  C   UNL     1     148.786 173.365 190.894  0.00  0.00    +0.049 C 
ATOM     92  C   UNL     1     149.122 172.842 192.272  0.00  0.00    -0.027 C 
ATOM     93  C   UNL     1     147.811 172.230 192.703  0.00  0.00    -0.014 C 
ATOM     94  H   UNL     1     146.208 171.602 191.365  0.00  0.00    +0.071 HD
ATOM     95  H   UNL     1     149.647 173.365 190.220  0.00  0.00    +0.056 HD
ATOM     96  H   UNL     1     148.383 174.383 190.946  0.00  0.00    +0.056 HD
ATOM     97  H   UNL     1     149.894 172.066 192.202  0.00  0.00    +0.029 HD
ATOM     98  H   UNL     1     149.488 173.622 192.945  0.00  0.00    +0.029 HD
ATOM     99  H   UNL     1     147.921 171.515 193.520  0.00  0.00    +0.030 HD
ATOM    100  H   UNL     1     147.135 173.026 193.035  0.00  0.00    +0.030 HD
ENDBRANCH  88  89
ENDBRANCH  86  88
ENDBRANCH   1  86
TORSDOF 32
ENDMDL
MODEL 4
REMARK VINA RESULT:      -4.9      2.217      3.634
REMARK  Name = 2a_conf3
REMARK  32 active torsions:
REMARK  status: ('A' for Active; 'I' for Inactive)
REMARK    1  A    between atoms: C_2  and  C_3
REMARK    2  A    between atoms: C_2  and  O_8
REMARK    3  A    between atoms: O_8  and  C_9
REMARK    4  A    between atoms: C_9  and  C_10
REMARK    5  A    between atoms: C_9  and  C_29
REMARK    6  A    between atoms: C_10  and  C_11
REMARK    7  A    between atoms: C_11  and  C_12
REMARK    8  A    between atoms: C_12  and  C_13
REMARK    9  A    between atoms: C_12  and  C_14
REMARK   10  A    between atoms: C_14  and  O_15
REMARK   11  A    between atoms: C_14  and  C_17
REMARK   12  A    between atoms: O_15  and  C_16
REMARK   13  A    between atoms: C_17  and  C_18
REMARK   14  A    between atoms: C_18  and  O_19
REMARK   15  A    between atoms: C_18  and  C_26
REMARK   16  A    between atoms: O_19  and  C_20
REMARK   17  A    between atoms: C_20  and  C_21
REMARK   18  A    between atoms: C_21  and  C_22
REMARK   19  A    between atoms: C_22  and  C_23
REMARK   20  A    between atoms: C_23  and  N_24
REMARK   21  A    between atoms: C_26  and  C_27
REMARK   22  A    between atoms: C_26  and  C_28
REMARK   23  A    between atoms: C_29  and  C_30
REMARK   24  A    between atoms: C_29  and  C_31
REMARK   25  A    between atoms: C_31  and  O_32
REMARK   26  A    between atoms: C_31  and  C_34
REMARK   27  A    between atoms: O_32  and  C_33
REMARK   28  A    between atoms: C_34  and  C_35
REMARK   29  A    between atoms: C_34  and  C_36
REMARK   30  A    between atoms: C_37  and  N_38
REMARK   31  A    between atoms: N_38  and  C_39
REMARK   32  A    between atoms: C_39  and  C_40
REMARK                            x       y       z     vdW  Elec       q    Type
REMARK                         _______ _______ _______ _____ _____    ______ ____
ROOT
ATOM      1  C   UNL     1     149.646 168.055 192.374  0.00  0.00    +0.108 C 
ATOM      2  H   UNL     1     149.282 167.518 191.500  0.00  0.00    +0.074 HD
ENDROOT
BRANCH   1   3
ATOM      3  C   UNL     1     149.201 167.237 193.602  0.00  0.00    -0.015 C 
ATOM      4  H   UNL     1     148.695 167.927 194.286  0.00  0.00    +0.030 HD
ATOM      5  H   UNL     1     150.070 166.882 194.170  0.00  0.00    +0.030 HD
BRANCH   3   6
ATOM      6  C   UNL     1     148.296 166.054 193.242  0.00  0.00    -0.045 C 
ATOM      7  H   UNL     1     148.434 165.281 194.010  0.00  0.00    +0.027 HD
ATOM      8  H   UNL     1     148.613 165.610 192.291  0.00  0.00    +0.027 HD
BRANCH   6   9
ATOM      9  C   UNL     1     146.793 166.428 193.159  0.00  0.00    -0.017 C 
ATOM     10  H   UNL     1     146.677 167.405 193.635  0.00  0.00    +0.032 HD
BRANCH   9  11
ATOM     11  C   UNL     1     145.993 165.410 193.985  0.00  0.00    -0.060 C 
ATOM     12  H   UNL     1     145.933 165.702 195.040  0.00  0.00    +0.023 HD
ATOM     13  H   UNL     1     144.969 165.325 193.606  0.00  0.00    +0.023 HD
ATOM     14  H   UNL     1     146.436 164.411 193.925  0.00  0.00    +0.023 HD
ENDBRANCH   9  11
BRANCH   9  15
ATOM     15  C   UNL     1     146.308 166.505 191.681  0.00  0.00    +0.064 C 
ATOM     16  H   UNL     1     146.282 167.556 191.371  0.00  0.00    +0.060 HD
BRANCH  15  17
ATOM     17  C   UNL     1     144.920 165.898 191.379  0.00  0.00    +0.011 C 
ATOM     18  H   UNL     1     145.019 165.315 190.455  0.00  0.00    +0.033 HD
ATOM     19  H   UNL     1     144.643 165.172 192.153  0.00  0.00    +0.033 HD
BRANCH  17  20
ATOM     20  C   UNL     1     143.797 166.938 191.195  0.00  0.00    +0.108 C 
ATOM     21  H   UNL     1     143.376 166.811 190.188  0.00  0.00    +0.074 HD
BRANCH  20  22
ATOM     22  C   UNL     1     142.659 166.782 192.243  0.00  0.00    -0.009 C 
ATOM     23  H   UNL     1     141.739 167.212 191.825  0.00  0.00    +0.033 HD
BRANCH  22  24
ATOM     24  C   UNL     1     142.960 167.487 193.569  0.00  0.00    -0.059 C 
ATOM     25  H   UNL     1     144.037 167.635 193.704  0.00  0.00    +0.023 HD
ATOM     26  H   UNL     1     142.590 166.902 194.418  0.00  0.00    +0.023 HD
ATOM     27  H   UNL     1     142.466 168.463 193.624  0.00  0.00    +0.023 HD
ENDBRANCH  22  24
BRANCH  22  28
ATOM     28  C   UNL     1     142.365 165.301 192.532  0.00  0.00    -0.059 C 
ATOM     29  H   UNL     1     141.624 165.181 193.327  0.00  0.00    +0.023 HD
ATOM     30  H   UNL     1     141.987 164.792 191.638  0.00  0.00    +0.023 HD
ATOM     31  H   UNL     1     143.274 164.785 192.857  0.00  0.00    +0.023 HD
ENDBRANCH  22  28
ENDBRANCH  20  22
BRANCH  20  32
ATOM     32  O   UNL     1     144.383 168.250 191.356  0.00  0.00    -0.461 OA
BRANCH  32  33
ATOM     33  C   UNL     1     143.910 169.251 190.570  0.00  0.00    +0.307 C 
ATOM     34  O   UNL     1     143.714 170.402 190.943  0.00  0.00    -0.251 OA
BRANCH  33  35
ATOM     35  C   UNL     1     143.563 168.769 189.181  0.00  0.00    +0.046 C 
ATOM     36  H   UNL     1     143.126 167.766 189.287  0.00  0.00    +0.038 HD
ATOM     37  H   UNL     1     142.783 169.428 188.782  0.00  0.00    +0.038 HD
BRANCH  35  38
ATOM     38  C   UNL     1     144.731 168.698 188.198  0.00  0.00    -0.031 C 
ATOM     39  H   UNL     1     144.432 168.052 187.362  0.00  0.00    +0.028 HD
ATOM     40  H   UNL     1     145.584 168.198 188.676  0.00  0.00    +0.028 HD
BRANCH  38  41
ATOM     41  C   UNL     1     145.205 170.042 187.640  0.00  0.00    -0.006 C 
ATOM     42  H   UNL     1     145.339 169.992 186.556  0.00  0.00    +0.042 HD
ATOM     43  H   UNL     1     144.422 170.785 187.827  0.00  0.00    +0.042 HD
BRANCH  41  44
ATOM     44  N   UNL     1     146.437 170.502 188.267  0.00  0.00    -0.330 NA
ATOM     45  H   UNL     1     146.217 171.206 188.971  0.00  0.00    +0.118 HD
ATOM     46  H   UNL     1     147.031 170.973 187.585  0.00  0.00    +0.118 HD
ENDBRANCH  41  44
ENDBRANCH  38  41
ENDBRANCH  35  38
ENDBRANCH  33  35
ENDBRANCH  32  33
ENDBRANCH  20  32
ENDBRANCH  17  20
ENDBRANCH  15  17
BRANCH  15  47
ATOM     47  O   UNL     1     147.276 165.802 190.876  0.00  0.00    -0.379 OA
BRANCH  47  48
ATOM     48  C   UNL     1     147.007 165.904 189.480  0.00  0.00    +0.037 C 
ATOM     49  H   UNL     1     145.954 165.695 189.263  0.00  0.00    +0.052 HD
ATOM     50  H   UNL     1     147.624 165.166 188.958  0.00  0.00    +0.052 HD
ATOM     51  H   UNL     1     147.277 166.901 189.116  0.00  0.00    +0.052 HD
ENDBRANCH  47  48
ENDBRANCH  15  47
ENDBRANCH   9  15
ENDBRANCH   6   9
ENDBRANCH   3   6
ENDBRANCH   1   3
BRANCH   1  52
ATOM     52  C   UNL     1     151.179 168.237 192.233  0.00  0.00    +0.020 C 
ATOM     53  H   UNL     1     151.647 168.047 193.203  0.00  0.00    +0.036 HD
BRANCH  52  54
ATOM     54  C   UNL     1     151.528 169.692 191.861  0.00  0.00    -0.057 C 
ATOM     55  H   UNL     1     150.677 170.368 192.004  0.00  0.00    +0.023 HD
ATOM     56  H   UNL     1     151.833 169.757 190.810  0.00  0.00    +0.023 HD
ATOM     57  H   UNL     1     152.364 170.063 192.461  0.00  0.00    +0.023 HD
ENDBRANCH  52  54
BRANCH  52  58
ATOM     58  C   UNL     1     151.852 167.274 191.196  0.00  0.00    +0.070 C 
ATOM     59  H   UNL     1     152.320 167.930 190.448  0.00  0.00    +0.061 HD
BRANCH  58  60
ATOM     60  C   UNL     1     153.001 166.354 191.738  0.00  0.00    +0.002 C 
ATOM     61  H   UNL     1     152.524 165.382 191.935  0.00  0.00    +0.037 HD
BRANCH  60  62
ATOM     62  C   UNL     1     154.037 166.046 190.669  0.00  0.00    -0.065 C 
ATOM     63  C   UNL     1     154.236 164.872 190.056  0.00  0.00    -0.005 C 
ATOM     64  H   UNL     1     154.672 166.897 190.429  0.00  0.00    +0.059 HD
ATOM     65  H   UNL     1     153.619 164.017 190.330  0.00  0.00    +0.078 HD
BRANCH  63  66
ATOM     66  N   UNL     1     155.202 164.607 189.096  0.00  0.00    -0.281 N 
ATOM     67  C   UNL     1     154.888 163.827 187.982  0.00  0.00    +0.206 C 
ATOM     68  O   UNL     1     155.661 163.510 187.085  0.00  0.00    -0.279 OA
ATOM     69  H   UNL     1     153.837 163.490 187.974  0.00  0.00    +0.126 HD
BRANCH  66  70
ATOM     70  C   UNL     1     156.578 165.093 189.203  0.00  0.00    +0.016 C 
ATOM     71  H   UNL     1     156.579 166.137 189.530  0.00  0.00    +0.047 HD
ATOM     72  H   UNL     1     157.040 165.090 188.210  0.00  0.00    +0.047 HD
BRANCH  70  73
ATOM     73  C   UNL     1     157.423 164.227 190.126  0.00  0.00    -0.049 C 
ATOM     74  H   UNL     1     157.983 164.835 190.846  0.00  0.00    +0.024 HD
ATOM     75  H   UNL     1     156.798 163.531 190.696  0.00  0.00    +0.024 HD
ATOM     76  H   UNL     1     158.143 163.642 189.543  0.00  0.00    +0.024 HD
ENDBRANCH  70  73
ENDBRANCH  66  70
ENDBRANCH  63  66
ENDBRANCH  60  62
BRANCH  60  77
ATOM     77  C   UNL     1     153.572 166.744 193.107  0.00  0.00    -0.057 C 
ATOM     78  H   UNL     1     152.828 166.757 193.905  0.00  0.00    +0.024 HD
ATOM     79  H   UNL     1     153.998 167.751 193.060  0.00  0.00    +0.024 HD
ATOM     80  H   UNL     1     154.379 166.071 193.408  0.00  0.00    +0.024 HD
ENDBRANCH  60  77
ENDBRANCH  58  60
BRANCH  58  81
ATOM     81  O   UNL     1     150.832 166.523 190.521  0.00  0.00    -0.379 OA
BRANCH  81  82
ATOM     82  C   UNL     1     150.776 166.742 189.117  0.00  0.00    +0.037 C 
ATOM     83  H   UNL     1     151.758 167.092 188.787  0.00  0.00    +0.052 HD
ATOM     84  H   UNL     1     150.543 165.814 188.588  0.00  0.00    +0.052 HD
ATOM     85  H   UNL     1     150.045 167.517 188.874  0.00  0.00    +0.052 HD
ENDBRANCH  81  82
ENDBRANCH  58  81
ENDBRANCH  52  58
ENDBRANCH   1  52
BRANCH   1  86
ATOM     86  O   UNL     1     149.002 169.342 192.478  0.00  0.00    -0.459 OA
BRANCH  86  88
ATOM     87  O   UNL     1     148.217 169.157 190.328  0.00  0.00    -0.248 OA
ATOM     88  C   UNL     1     148.294 169.763 191.389  0.00  0.00    +0.337 C 
BRANCH  88  89
ATOM     89  C   UNL     1     147.588 171.088 191.709  0.00  0.00    +0.155 C 
ATOM     90  O   UNL     1     147.626 171.999 190.597  0.00  0.00    -0.365 OA
ATOM     91  C   UNL     1     148.570 173.039 190.882  0.00  0.00    +0.049 C 
ATOM     92  C   UNL     1     149.292 172.647 192.152  0.00  0.00    -0.027 C 
ATOM     93  C   UNL     1     148.246 171.823 192.864  0.00  0.00    -0.014 C 
ATOM     94  H   UNL     1     146.537 170.855 191.917  0.00  0.00    +0.071 HD
ATOM     95  H   UNL     1     149.248 173.167 190.034  0.00  0.00    +0.056 HD
ATOM     96  H   UNL     1     148.005 173.968 191.021  0.00  0.00    +0.056 HD
ATOM     97  H   UNL     1     150.162 172.023 191.913  0.00  0.00    +0.029 HD
ATOM     98  H   UNL     1     149.642 173.508 192.725  0.00  0.00    +0.029 HD
ATOM     99  H   UNL     1     148.664 171.176 193.638  0.00  0.00    +0.030 HD
ATOM    100  H   UNL     1     147.521 172.496 193.338  0.00  0.00    +0.030 HD
ENDBRANCH  88  89
ENDBRANCH  86  88
ENDBRANCH   1  86
TORSDOF 32
ENDMDL
MODEL 5
REMARK VINA RESULT:      -4.8      2.758      6.817
REMARK  Name = 2a_conf3
REMARK  32 active torsions:
REMARK  status: ('A' for Active; 'I' for Inactive)
REMARK    1  A    between atoms: C_2  and  C_3
REMARK    2  A    between atoms: C_2  and  O_8
REMARK    3  A    between atoms: O_8  and  C_9
REMARK    4  A    between atoms: C_9  and  C_10
REMARK    5  A    between atoms: C_9  and  C_29
REMARK    6  A    between atoms: C_10  and  C_11
REMARK    7  A    between atoms: C_11  and  C_12
REMARK    8  A    between atoms: C_12  and  C_13
REMARK    9  A    between atoms: C_12  and  C_14
REMARK   10  A    between atoms: C_14  and  O_15
REMARK   11  A    between atoms: C_14  and  C_17
REMARK   12  A    between atoms: O_15  and  C_16
REMARK   13  A    between atoms: C_17  and  C_18
REMARK   14  A    between atoms: C_18  and  O_19
REMARK   15  A    between atoms: C_18  and  C_26
REMARK   16  A    between atoms: O_19  and  C_20
REMARK   17  A    between atoms: C_20  and  C_21
REMARK   18  A    between atoms: C_21  and  C_22
REMARK   19  A    between atoms: C_22  and  C_23
REMARK   20  A    between atoms: C_23  and  N_24
REMARK   21  A    between atoms: C_26  and  C_27
REMARK   22  A    between atoms: C_26  and  C_28
REMARK   23  A    between atoms: C_29  and  C_30
REMARK   24  A    between atoms: C_29  and  C_31
REMARK   25  A    between atoms: C_31  and  O_32
REMARK   26  A    between atoms: C_31  and  C_34
REMARK   27  A    between atoms: O_32  and  C_33
REMARK   28  A    between atoms: C_34  and  C_35
REMARK   29  A    between atoms: C_34  and  C_36
REMARK   30  A    between atoms: C_37  and  N_38
REMARK   31  A    between atoms: N_38  and  C_39
REMARK   32  A    between atoms: C_39  and  C_40
REMARK                            x       y       z     vdW  Elec       q    Type
REMARK                         _______ _______ _______ _____ _____    ______ ____
ROOT
ATOM      1  C   UNL     1     146.652 169.185 190.277  0.00  0.00    +0.108 C 
ATOM      2  H   UNL     1     145.657 169.385 190.670  0.00  0.00    +0.074 HD
ENDROOT
BRANCH   1   3
ATOM      3  C   UNL     1     147.372 168.327 191.335  0.00  0.00    -0.015 C 
ATOM      4  H   UNL     1     146.752 168.336 192.238  0.00  0.00    +0.030 HD
ATOM      5  H   UNL     1     148.312 168.799 191.647  0.00  0.00    +0.030 HD
BRANCH   3   6
ATOM      6  C   UNL     1     147.641 166.893 190.866  0.00  0.00    -0.045 C 
ATOM      7  H   UNL     1     148.729 166.756 190.814  0.00  0.00    +0.027 HD
ATOM      8  H   UNL     1     147.259 166.750 189.848  0.00  0.00    +0.027 HD
BRANCH   6   9
ATOM      9  C   UNL     1     147.034 165.812 191.800  0.00  0.00    -0.017 C 
ATOM     10  H   UNL     1     147.564 164.878 191.597  0.00  0.00    +0.032 HD
BRANCH   9  11
ATOM     11  C   UNL     1     145.562 165.606 191.410  0.00  0.00    -0.060 C 
ATOM     12  H   UNL     1     145.284 164.547 191.424  0.00  0.00    +0.023 HD
ATOM     13  H   UNL     1     144.901 166.132 192.108  0.00  0.00    +0.023 HD
ATOM     14  H   UNL     1     145.353 166.008 190.414  0.00  0.00    +0.023 HD
ENDBRANCH   9  11
BRANCH   9  15
ATOM     15  C   UNL     1     147.204 166.197 193.299  0.00  0.00    +0.064 C 
ATOM     16  H   UNL     1     147.542 167.236 193.362  0.00  0.00    +0.060 HD
BRANCH  15  17
ATOM     17  C   UNL     1     148.190 165.337 194.122  0.00  0.00    +0.011 C 
ATOM     18  H   UNL     1     147.679 165.069 195.055  0.00  0.00    +0.033 HD
ATOM     19  H   UNL     1     148.386 164.386 193.613  0.00  0.00    +0.033 HD
BRANCH  17  20
ATOM     20  C   UNL     1     149.516 166.045 194.464  0.00  0.00    +0.108 C 
ATOM     21  H   UNL     1     149.423 167.102 194.178  0.00  0.00    +0.074 HD
BRANCH  20  22
ATOM     22  C   UNL     1     149.867 165.960 195.977  0.00  0.00    -0.009 C 
ATOM     23  H   UNL     1     150.556 166.779 196.221  0.00  0.00    +0.033 HD
BRANCH  22  24
ATOM     24  C   UNL     1     150.536 164.637 196.366  0.00  0.00    -0.059 C 
ATOM     25  H   UNL     1     151.351 164.387 195.678  0.00  0.00    +0.023 HD
ATOM     26  H   UNL     1     149.816 163.812 196.348  0.00  0.00    +0.023 HD
ATOM     27  H   UNL     1     150.940 164.678 197.382  0.00  0.00    +0.023 HD
ENDBRANCH  22  24
BRANCH  22  28
ATOM     28  C   UNL     1     148.618 166.152 196.851  0.00  0.00    -0.059 C 
ATOM     29  H   UNL     1     148.565 165.411 197.654  0.00  0.00    +0.023 HD
ATOM     30  H   UNL     1     148.607 167.148 197.310  0.00  0.00    +0.023 HD
ATOM     31  H   UNL     1     147.708 166.045 196.252  0.00  0.00    +0.023 HD
ENDBRANCH  22  28
ENDBRANCH  20  22
BRANCH  20  32
ATOM     32  O   UNL     1     150.568 165.391 193.718  0.00  0.00    -0.461 OA
BRANCH  32  33
ATOM     33  C   UNL     1     151.561 166.171 193.216  0.00  0.00    +0.307 C 
ATOM     34  O   UNL     1     152.690 166.254 193.685  0.00  0.00    -0.251 OA
BRANCH  33  35
ATOM     35  C   UNL     1     151.094 167.005 192.047  0.00  0.00    +0.046 C 
ATOM     36  H   UNL     1     151.873 166.942 191.274  0.00  0.00    +0.038 HD
ATOM     37  H   UNL     1     150.189 166.539 191.642  0.00  0.00    +0.038 HD
BRANCH  35  38
ATOM     38  C   UNL     1     150.823 168.477 192.356  0.00  0.00    -0.031 C 
ATOM     39  H   UNL     1     150.513 168.552 193.406  0.00  0.00    +0.028 HD
ATOM     40  H   UNL     1     149.967 168.826 191.763  0.00  0.00    +0.028 HD
BRANCH  38  41
ATOM     41  C   UNL     1     151.999 169.428 192.118  0.00  0.00    -0.006 C 
ATOM     42  H   UNL     1     152.191 170.043 193.002  0.00  0.00    +0.042 HD
ATOM     43  H   UNL     1     152.898 168.825 191.952  0.00  0.00    +0.042 HD
BRANCH  41  44
ATOM     44  N   UNL     1     151.797 170.285 190.958  0.00  0.00    -0.330 NA
ATOM     45  H   UNL     1     152.642 170.831 190.788  0.00  0.00    +0.118 HD
ATOM     46  H   UNL     1     151.062 170.967 191.142  0.00  0.00    +0.118 HD
ENDBRANCH  41  44
ENDBRANCH  38  41
ENDBRANCH  35  38
ENDBRANCH  33  35
ENDBRANCH  32  33
ENDBRANCH  20  32
ENDBRANCH  17  20
ENDBRANCH  15  17
BRANCH  15  47
ATOM     47  O   UNL     1     145.907 166.085 193.919  0.00  0.00    -0.379 OA
BRANCH  47  48
ATOM     48  C   UNL     1     145.853 165.052 194.899  0.00  0.00    +0.037 C 
ATOM     49  H   UNL     1     146.087 165.440 195.896  0.00  0.00    +0.052 HD
ATOM     50  H   UNL     1     146.594 164.292 194.637  0.00  0.00    +0.052 HD
ATOM     51  H   UNL     1     144.862 164.585 194.900  0.00  0.00    +0.052 HD
ENDBRANCH  47  48
ENDBRANCH  15  47
ENDBRANCH   9  15
ENDBRANCH   6   9
ENDBRANCH   3   6
ENDBRANCH   1   3
BRANCH   1  52
ATOM     52  C   UNL     1     146.505 168.517 188.886  0.00  0.00    +0.020 C 
ATOM     53  H   UNL     1     147.023 167.553 188.902  0.00  0.00    +0.036 HD
BRANCH  52  54
ATOM     54  C   UNL     1     147.192 169.361 187.794  0.00  0.00    -0.057 C 
ATOM     55  H   UNL     1     147.099 168.904 186.803  0.00  0.00    +0.023 HD
ATOM     56  H   UNL     1     148.261 169.472 188.011  0.00  0.00    +0.023 HD
ATOM     57  H   UNL     1     146.768 170.368 187.748  0.00  0.00    +0.023 HD
ENDBRANCH  52  54
BRANCH  52  58
ATOM     58  C   UNL     1     145.024 168.242 188.456  0.00  0.00    +0.070 C 
ATOM     59  H   UNL     1     144.778 169.029 187.729  0.00  0.00    +0.061 HD
BRANCH  58  60
ATOM     60  C   UNL     1     144.749 166.882 187.720  0.00  0.00    +0.002 C 
ATOM     61  H   UNL     1     144.272 167.161 186.768  0.00  0.00    +0.037 HD
BRANCH  60  62
ATOM     62  C   UNL     1     146.035 166.190 187.301  0.00  0.00    -0.065 C 
ATOM     63  C   UNL     1     146.554 165.072 187.825  0.00  0.00    -0.005 C 
ATOM     64  H   UNL     1     146.561 166.710 186.504  0.00  0.00    +0.059 HD
ATOM     65  H   UNL     1     146.038 164.579 188.647  0.00  0.00    +0.078 HD
BRANCH  63  66
ATOM     66  N   UNL     1     147.742 164.467 187.439  0.00  0.00    -0.281 N 
ATOM     67  C   UNL     1     147.865 163.078 187.477  0.00  0.00    +0.206 C 
ATOM     68  O   UNL     1     148.868 162.436 187.182  0.00  0.00    -0.279 OA
ATOM     69  H   UNL     1     146.945 162.572 187.818  0.00  0.00    +0.126 HD
BRANCH  66  70
ATOM     70  C   UNL     1     148.914 165.229 187.010  0.00  0.00    +0.016 C 
ATOM     71  H   UNL     1     148.618 165.987 186.278  0.00  0.00    +0.047 HD
ATOM     72  H   UNL     1     149.606 164.561 186.485  0.00  0.00    +0.047 HD
BRANCH  70  73
ATOM     73  C   UNL     1     149.653 165.858 188.182  0.00  0.00    -0.049 C 
ATOM     74  H   UNL     1     150.118 165.096 188.819  0.00  0.00    +0.024 HD
ATOM     75  H   UNL     1     150.446 166.529 187.835  0.00  0.00    +0.024 HD
ATOM     76  H   UNL     1     148.959 166.439 188.799  0.00  0.00    +0.024 HD
ENDBRANCH  70  73
ENDBRANCH  66  70
ENDBRANCH  63  66
ENDBRANCH  60  62
BRANCH  60  77
ATOM     77  C   UNL     1     143.703 165.974 188.378  0.00  0.00    -0.057 C 
ATOM     78  H   UNL     1     143.442 166.270 189.396  0.00  0.00    +0.024 HD
ATOM     79  H   UNL     1     144.085 164.949 188.440  0.00  0.00    +0.024 HD
ATOM     80  H   UNL     1     142.783 165.936 187.791  0.00  0.00    +0.024 HD
ENDBRANCH  60  77
ENDBRANCH  58  60
BRANCH  58  81
ATOM     81  O   UNL     1     144.162 168.426 189.588  0.00  0.00    -0.379 OA
BRANCH  81  82
ATOM     82  C   UNL     1     143.123 169.375 189.385  0.00  0.00    +0.037 C 
ATOM     83  H   UNL     1     142.842 169.787 190.359  0.00  0.00    +0.052 HD
ATOM     84  H   UNL     1     143.466 170.196 188.748  0.00  0.00    +0.052 HD
ATOM     85  H   UNL     1     142.239 168.898 188.955  0.00  0.00    +0.052 HD
ENDBRANCH  81  82
ENDBRANCH  58  81
ENDBRANCH  52  58
ENDBRANCH   1  52
BRANCH   1  86
ATOM     86  O   UNL     1     147.402 170.412 190.160  0.00  0.00    -0.459 OA
BRANCH  86  88
ATOM     87  O   UNL     1     145.715 171.647 191.111  0.00  0.00    -0.248 OA
ATOM     88  C   UNL     1     146.890 171.507 190.796  0.00  0.00    +0.337 C 
BRANCH  88  89
ATOM     89  C   UNL     1     148.014 172.513 191.084  0.00  0.00    +0.155 C 
ATOM     90  O   UNL     1     149.240 171.858 191.451  0.00  0.00    -0.365 OA
ATOM     91  C   UNL     1     149.448 172.019 192.860  0.00  0.00    +0.049 C 
ATOM     92  C   UNL     1     148.191 172.642 193.425  0.00  0.00    -0.027 C 
ATOM     93  C   UNL     1     147.676 173.432 192.246  0.00  0.00    -0.014 C 
ATOM     94  H   UNL     1     148.195 173.072 190.159  0.00  0.00    +0.071 HD
ATOM     95  H   UNL     1     149.681 171.052 193.315  0.00  0.00    +0.056 HD
ATOM     96  H   UNL     1     150.310 172.684 192.991  0.00  0.00    +0.056 HD
ATOM     97  H   UNL     1     147.472 171.859 193.695  0.00  0.00    +0.029 HD
ATOM     98  H   UNL     1     148.380 173.248 194.314  0.00  0.00    +0.029 HD
ATOM     99  H   UNL     1     146.618 173.689 192.332  0.00  0.00    +0.030 HD
ATOM    100  H   UNL     1     148.247 174.364 192.161  0.00  0.00    +0.030 HD
ENDBRANCH  88  89
ENDBRANCH  86  88
ENDBRANCH   1  86
TORSDOF 32
ENDMDL
MODEL 6
REMARK VINA RESULT:      -4.8      2.676      6.972
REMARK  Name = 2a_conf3
REMARK  32 active torsions:
REMARK  status: ('A' for Active; 'I' for Inactive)
REMARK    1  A    between atoms: C_2  and  C_3
REMARK    2  A    between atoms: C_2  and  O_8
REMARK    3  A    between atoms: O_8  and  C_9
REMARK    4  A    between atoms: C_9  and  C_10
REMARK    5  A    between atoms: C_9  and  C_29
REMARK    6  A    between atoms: C_10  and  C_11
REMARK    7  A    between atoms: C_11  and  C_12
REMARK    8  A    between atoms: C_12  and  C_13
REMARK    9  A    between atoms: C_12  and  C_14
REMARK   10  A    between atoms: C_14  and  O_15
REMARK   11  A    between atoms: C_14  and  C_17
REMARK   12  A    between atoms: O_15  and  C_16
REMARK   13  A    between atoms: C_17  and  C_18
REMARK   14  A    between atoms: C_18  and  O_19
REMARK   15  A    between atoms: C_18  and  C_26
REMARK   16  A    between atoms: O_19  and  C_20
REMARK   17  A    between atoms: C_20  and  C_21
REMARK   18  A    between atoms: C_21  and  C_22
REMARK   19  A    between atoms: C_22  and  C_23
REMARK   20  A    between atoms: C_23  and  N_24
REMARK   21  A    between atoms: C_26  and  C_27
REMARK   22  A    between atoms: C_26  and  C_28
REMARK   23  A    between atoms: C_29  and  C_30
REMARK   24  A    between atoms: C_29  and  C_31
REMARK   25  A    between atoms: C_31  and  O_32
REMARK   26  A    between atoms: C_31  and  C_34
REMARK   27  A    between atoms: O_32  and  C_33
REMARK   28  A    between atoms: C_34  and  C_35
REMARK   29  A    between atoms: C_34  and  C_36
REMARK   30  A    between atoms: C_37  and  N_38
REMARK   31  A    between atoms: N_38  and  C_39
REMARK   32  A    between atoms: C_39  and  C_40
REMARK                            x       y       z     vdW  Elec       q    Type
REMARK                         _______ _______ _______ _____ _____    ______ ____
ROOT
ATOM      1  C   UNL     1     147.507 169.426 191.066  0.00  0.00    +0.108 C 
ATOM      2  H   UNL     1     146.597 169.365 191.660  0.00  0.00    +0.074 HD
ENDROOT
BRANCH   1   3
ATOM      3  C   UNL     1     148.679 169.225 192.045  0.00  0.00    -0.015 C 
ATOM      4  H   UNL     1     148.277 168.736 192.939  0.00  0.00    +0.030 HD
ATOM      5  H   UNL     1     149.054 170.190 192.409  0.00  0.00    +0.030 HD
BRANCH   3   6
ATOM      6  C   UNL     1     149.832 168.412 191.445  0.00  0.00    -0.045 C 
ATOM      7  H   UNL     1     149.999 168.772 190.421  0.00  0.00    +0.027 HD
ATOM      8  H   UNL     1     149.548 167.356 191.363  0.00  0.00    +0.027 HD
BRANCH   6   9
ATOM      9  C   UNL     1     151.154 168.528 192.248  0.00  0.00    -0.017 C 
ATOM     10  H   UNL     1     150.884 168.590 193.306  0.00  0.00    +0.032 HD
BRANCH   9  11
ATOM     11  C   UNL     1     151.841 169.847 191.865  0.00  0.00    -0.060 C 
ATOM     12  H   UNL     1     151.223 170.443 191.184  0.00  0.00    +0.023 HD
ATOM     13  H   UNL     1     152.033 170.455 192.756  0.00  0.00    +0.023 HD
ATOM     14  H   UNL     1     152.810 169.669 191.390  0.00  0.00    +0.023 HD
ENDBRANCH   9  11
BRANCH   9  15
ATOM     15  C   UNL     1     152.071 167.291 192.015  0.00  0.00    +0.064 C 
ATOM     16  H   UNL     1     152.939 167.600 191.423  0.00  0.00    +0.060 HD
BRANCH  15  17
ATOM     17  C   UNL     1     151.427 166.083 191.297  0.00  0.00    +0.011 C 
ATOM     18  H   UNL     1     151.053 165.409 192.077  0.00  0.00    +0.033 HD
ATOM     19  H   UNL     1     150.540 166.400 190.735  0.00  0.00    +0.033 HD
BRANCH  17  20
ATOM     20  C   UNL     1     152.390 165.302 190.380  0.00  0.00    +0.108 C 
ATOM     21  H   UNL     1     152.623 164.345 190.868  0.00  0.00    +0.074 HD
BRANCH  20  22
ATOM     22  C   UNL     1     151.784 165.021 188.976  0.00  0.00    -0.009 C 
ATOM     23  H   UNL     1     152.387 165.548 188.224  0.00  0.00    +0.033 HD
BRANCH  22  24
ATOM     24  C   UNL     1     150.332 165.491 188.842  0.00  0.00    -0.059 C 
ATOM     25  H   UNL     1     149.876 165.114 187.919  0.00  0.00    +0.023 HD
ATOM     26  H   UNL     1     150.272 166.584 188.825  0.00  0.00    +0.023 HD
ATOM     27  H   UNL     1     149.724 165.157 189.690  0.00  0.00    +0.023 HD
ENDBRANCH  22  24
BRANCH  22  28
ATOM     28  C   UNL     1     151.849 163.525 188.629  0.00  0.00    -0.059 C 
ATOM     29  H   UNL     1     151.721 162.896 189.515  0.00  0.00    +0.023 HD
ATOM     30  H   UNL     1     151.071 163.253 187.907  0.00  0.00    +0.023 HD
ATOM     31  H   UNL     1     152.820 163.273 188.192  0.00  0.00    +0.023 HD
ENDBRANCH  22  28
ENDBRANCH  20  22
BRANCH  20  32
ATOM     32  O   UNL     1     153.580 166.104 190.207  0.00  0.00    -0.461 OA
BRANCH  32  33
ATOM     33  C   UNL     1     153.890 166.506 188.947  0.00  0.00    +0.307 C 
ATOM     34  O   UNL     1     153.305 167.388 188.331  0.00  0.00    -0.251 OA
BRANCH  33  35
ATOM     35  C   UNL     1     154.999 165.678 188.341  0.00  0.00    +0.046 C 
ATOM     36  H   UNL     1     155.940 166.017 188.797  0.00  0.00    +0.038 HD
ATOM     37  H   UNL     1     154.842 164.637 188.643  0.00  0.00    +0.038 HD
BRANCH  35  38
ATOM     38  C   UNL     1     155.127 165.762 186.821  0.00  0.00    -0.031 C 
ATOM     39  H   UNL     1     156.164 165.518 186.554  0.00  0.00    +0.028 HD
ATOM     40  H   UNL     1     154.967 166.799 186.494  0.00  0.00    +0.028 HD
BRANCH  38  41
ATOM     41  C   UNL     1     154.185 164.852 186.029  0.00  0.00    -0.006 C 
ATOM     42  H   UNL     1     154.680 164.454 185.139  0.00  0.00    +0.042 HD
ATOM     43  H   UNL     1     153.930 163.993 186.659  0.00  0.00    +0.042 HD
BRANCH  41  44
ATOM     44  N   UNL     1     152.952 165.525 185.646  0.00  0.00    -0.330 NA
ATOM     45  H   UNL     1     153.158 166.235 184.942  0.00  0.00    +0.118 HD
ATOM     46  H   UNL     1     152.560 166.031 186.439  0.00  0.00    +0.118 HD
ENDBRANCH  41  44
ENDBRANCH  38  41
ENDBRANCH  35  38
ENDBRANCH  33  35
ENDBRANCH  32  33
ENDBRANCH  20  32
ENDBRANCH  17  20
ENDBRANCH  15  17
BRANCH  15  47
ATOM     47  O   UNL     1     152.519 166.840 193.309  0.00  0.00    -0.379 OA
BRANCH  47  48
ATOM     48  C   UNL     1     153.873 167.195 193.576  0.00  0.00    +0.037 C 
ATOM     49  H   UNL     1     153.931 168.080 194.217  0.00  0.00    +0.052 HD
ATOM     50  H   UNL     1     154.362 167.421 192.624  0.00  0.00    +0.052 HD
ATOM     51  H   UNL     1     154.397 166.355 194.045  0.00  0.00    +0.052 HD
ENDBRANCH  47  48
ENDBRANCH  15  47
ENDBRANCH   9  15
ENDBRANCH   6   9
ENDBRANCH   3   6
ENDBRANCH   1   3
BRANCH   1  52
ATOM     52  C   UNL     1     147.419 168.375 189.929  0.00  0.00    +0.020 C 
ATOM     53  H   UNL     1     148.350 167.801 189.909  0.00  0.00    +0.036 HD
BRANCH  52  54
ATOM     54  C   UNL     1     147.303 169.061 188.553  0.00  0.00    -0.057 C 
ATOM     55  H   UNL     1     146.281 169.400 188.348  0.00  0.00    +0.023 HD
ATOM     56  H   UNL     1     147.593 168.370 187.754  0.00  0.00    +0.023 HD
ATOM     57  H   UNL     1     147.969 169.926 188.486  0.00  0.00    +0.023 HD
ENDBRANCH  52  54
BRANCH  52  58
ATOM     58  C   UNL     1     146.244 167.351 190.085  0.00  0.00    +0.070 C 
ATOM     59  H   UNL     1     145.786 167.277 189.088  0.00  0.00    +0.061 HD
BRANCH  58  60
ATOM     60  C   UNL     1     146.639 165.886 190.484  0.00  0.00    +0.002 C 
ATOM     61  H   UNL     1     147.652 165.740 190.079  0.00  0.00    +0.037 HD
BRANCH  60  62
ATOM     62  C   UNL     1     146.816 165.731 191.985  0.00  0.00    -0.065 C 
ATOM     63  C   UNL     1     147.957 165.848 192.677  0.00  0.00    -0.005 C 
ATOM     64  H   UNL     1     145.892 165.478 192.502  0.00  0.00    +0.059 HD
ATOM     65  H   UNL     1     148.882 166.066 192.146  0.00  0.00    +0.078 HD
BRANCH  63  66
ATOM     66  N   UNL     1     148.099 165.684 194.047  0.00  0.00    -0.281 N 
ATOM     67  C   UNL     1     149.278 165.151 194.571  0.00  0.00    +0.206 C 
ATOM     68  O   UNL     1     149.508 164.940 195.757  0.00  0.00    -0.279 OA
ATOM     69  H   UNL     1     150.025 164.913 193.795  0.00  0.00    +0.126 HD
BRANCH  66  70
ATOM     70  C   UNL     1     147.040 166.022 194.998  0.00  0.00    +0.016 C 
ATOM     71  H   UNL     1     146.614 166.999 194.749  0.00  0.00    +0.047 HD
ATOM     72  H   UNL     1     147.475 166.132 195.998  0.00  0.00    +0.047 HD
BRANCH  70  73
ATOM     73  C   UNL     1     145.960 164.952 195.062  0.00  0.00    -0.049 C 
ATOM     74  H   UNL     1     145.772 164.512 194.076  0.00  0.00    +0.024 HD
ATOM     75  H   UNL     1     146.249 164.140 195.738  0.00  0.00    +0.024 HD
ATOM     76  H   UNL     1     145.021 165.384 195.426  0.00  0.00    +0.024 HD
ENDBRANCH  70  73
ENDBRANCH  66  70
ENDBRANCH  63  66
ENDBRANCH  60  62
BRANCH  60  77
ATOM     77  C   UNL     1     145.832 164.774 189.804  0.00  0.00    -0.057 C 
ATOM     78  H   UNL     1     146.314 163.796 189.839  0.00  0.00    +0.024 HD
ATOM     79  H   UNL     1     145.687 165.012 188.745  0.00  0.00    +0.024 HD
ATOM     80  H   UNL     1     144.838 164.676 190.247  0.00  0.00    +0.024 HD
ENDBRANCH  60  77
ENDBRANCH  58  60
BRANCH  58  81
ATOM     81  O   UNL     1     145.254 167.901 190.966  0.00  0.00    -0.379 OA
BRANCH  81  82
ATOM     82  C   UNL     1     144.020 168.219 190.335  0.00  0.00    +0.037 C 
ATOM     83  H   UNL     1     144.222 168.446 189.284  0.00  0.00    +0.052 HD
ATOM     84  H   UNL     1     143.331 167.370 190.379  0.00  0.00    +0.052 HD
ATOM     85  H   UNL     1     143.568 169.104 190.788  0.00  0.00    +0.052 HD
ENDBRANCH  81  82
ENDBRANCH  58  81
ENDBRANCH  52  58
ENDBRANCH   1  52
BRANCH   1  86
ATOM     86  O   UNL     1     147.656 170.748 190.507  0.00  0.00    -0.459 OA
BRANCH  86  88
ATOM     87  O   UNL     1     145.600 171.587 191.096  0.00  0.00    -0.248 OA
ATOM     88  C   UNL     1     146.813 171.712 190.981  0.00  0.00    +0.337 C 
BRANCH  88  89
ATOM     89  C   UNL     1     147.619 172.958 191.378  0.00  0.00    +0.155 C 
ATOM     90  O   UNL     1     149.035 172.708 191.361  0.00  0.00    -0.365 OA
ATOM     91  C   UNL     1     149.505 172.618 192.713  0.00  0.00    +0.049 C 
ATOM     92  C   UNL     1     148.286 172.621 193.607  0.00  0.00    -0.027 C 
ATOM     93  C   UNL     1     147.300 173.420 192.790  0.00  0.00    -0.014 C 
ATOM     94  H   UNL     1     147.405 173.734 190.635  0.00  0.00    +0.071 HD
ATOM     95  H   UNL     1     150.115 171.718 192.834  0.00  0.00    +0.056 HD
ATOM     96  H   UNL     1     150.134 173.495 192.901  0.00  0.00    +0.056 HD
ATOM     97  H   UNL     1     147.917 171.597 193.745  0.00  0.00    +0.029 HD
ATOM     98  H   UNL     1     148.485 173.043 194.595  0.00  0.00    +0.029 HD
ATOM     99  H   UNL     1     146.264 173.266 193.097  0.00  0.00    +0.030 HD
ATOM    100  H   UNL     1     147.531 174.487 192.891  0.00  0.00    +0.030 HD
ENDBRANCH  88  89
ENDBRANCH  86  88
ENDBRANCH   1  86
TORSDOF 32
ENDMDL
MODEL 7
REMARK VINA RESULT:      -4.8      2.125      7.709
REMARK  Name = 2a_conf3
REMARK  32 active torsions:
REMARK  status: ('A' for Active; 'I' for Inactive)
REMARK    1  A    between atoms: C_2  and  C_3
REMARK    2  A    between atoms: C_2  and  O_8
REMARK    3  A    between atoms: O_8  and  C_9
REMARK    4  A    between atoms: C_9  and  C_10
REMARK    5  A    between atoms: C_9  and  C_29
REMARK    6  A    between atoms: C_10  and  C_11
REMARK    7  A    between atoms: C_11  and  C_12
REMARK    8  A    between atoms: C_12  and  C_13
REMARK    9  A    between atoms: C_12  and  C_14
REMARK   10  A    between atoms: C_14  and  O_15
REMARK   11  A    between atoms: C_14  and  C_17
REMARK   12  A    between atoms: O_15  and  C_16
REMARK   13  A    between atoms: C_17  and  C_18
REMARK   14  A    between atoms: C_18  and  O_19
REMARK   15  A    between atoms: C_18  and  C_26
REMARK   16  A    between atoms: O_19  and  C_20
REMARK   17  A    between atoms: C_20  and  C_21
REMARK   18  A    between atoms: C_21  and  C_22
REMARK   19  A    between atoms: C_22  and  C_23
REMARK   20  A    between atoms: C_23  and  N_24
REMARK   21  A    between atoms: C_26  and  C_27
REMARK   22  A    between atoms: C_26  and  C_28
REMARK   23  A    between atoms: C_29  and  C_30
REMARK   24  A    between atoms: C_29  and  C_31
REMARK   25  A    between atoms: C_31  and  O_32
REMARK   26  A    between atoms: C_31  and  C_34
REMARK   27  A    between atoms: O_32  and  C_33
REMARK   28  A    between atoms: C_34  and  C_35
REMARK   29  A    between atoms: C_34  and  C_36
REMARK   30  A    between atoms: C_37  and  N_38
REMARK   31  A    between atoms: N_38  and  C_39
REMARK   32  A    between atoms: C_39  and  C_40
REMARK                            x       y       z     vdW  Elec       q    Type
REMARK                         _______ _______ _______ _____ _____    ______ ____
ROOT
ATOM      1  C   UNL     1     146.007 170.010 190.187  0.00  0.00    +0.108 C 
ATOM      2  H   UNL     1     145.309 170.322 190.962  0.00  0.00    +0.074 HD
ENDROOT
BRANCH   1   3
ATOM      3  C   UNL     1     146.635 168.690 190.675  0.00  0.00    -0.015 C 
ATOM      4  H   UNL     1     145.951 167.882 190.396  0.00  0.00    +0.030 HD
ATOM      5  H   UNL     1     146.665 168.654 191.771  0.00  0.00    +0.030 HD
BRANCH   3   6
ATOM      6  C   UNL     1     148.038 168.445 190.108  0.00  0.00    -0.045 C 
ATOM      7  H   UNL     1     148.764 168.672 190.899  0.00  0.00    +0.027 HD
ATOM      8  H   UNL     1     148.242 169.144 189.287  0.00  0.00    +0.027 HD
BRANCH   6   9
ATOM      9  C   UNL     1     148.260 166.992 189.612  0.00  0.00    -0.017 C 
ATOM     10  H   UNL     1     148.029 166.978 188.544  0.00  0.00    +0.032 HD
BRANCH   9  11
ATOM     11  C   UNL     1     147.249 166.079 190.320  0.00  0.00    -0.060 C 
ATOM     12  H   UNL     1     146.570 165.596 189.607  0.00  0.00    +0.023 HD
ATOM     13  H   UNL     1     147.766 165.287 190.873  0.00  0.00    +0.023 HD
ATOM     14  H   UNL     1     146.651 166.634 191.049  0.00  0.00    +0.023 HD
ENDBRANCH   9  11
BRANCH   9  15
ATOM     15  C   UNL     1     149.732 166.535 189.835  0.00  0.00    +0.064 C 
ATOM     16  H   UNL     1     149.748 165.449 189.978  0.00  0.00    +0.060 HD
BRANCH  15  17
ATOM     17  C   UNL     1     150.477 167.172 191.030  0.00  0.00    +0.011 C 
ATOM     18  H   UNL     1     151.453 167.507 190.657  0.00  0.00    +0.033 HD
ATOM     19  H   UNL     1     149.962 168.082 191.361  0.00  0.00    +0.033 HD
BRANCH  17  20
ATOM     20  C   UNL     1     150.698 166.219 192.221  0.00  0.00    +0.108 C 
ATOM     21  H   UNL     1     150.102 165.311 192.047  0.00  0.00    +0.074 HD
BRANCH  20  22
ATOM     22  C   UNL     1     152.190 165.818 192.399  0.00  0.00    -0.009 C 
ATOM     23  H   UNL     1     152.237 164.917 193.024  0.00  0.00    +0.033 HD
BRANCH  22  24
ATOM     24  C   UNL     1     153.031 166.911 193.067  0.00  0.00    -0.059 C 
ATOM     25  H   UNL     1     153.841 167.246 192.410  0.00  0.00    +0.023 HD
ATOM     26  H   UNL     1     153.480 166.548 193.998  0.00  0.00    +0.023 HD
ATOM     27  H   UNL     1     152.419 167.780 193.333  0.00  0.00    +0.023 HD
ENDBRANCH  22  24
BRANCH  22  28
ATOM     28  C   UNL     1     152.836 165.459 191.051  0.00  0.00    -0.059 C 
ATOM     29  H   UNL     1     153.868 165.814 190.987  0.00  0.00    +0.023 HD
ATOM     30  H   UNL     1     152.842 164.375 190.893  0.00  0.00    +0.023 HD
ATOM     31  H   UNL     1     152.285 165.919 190.225  0.00  0.00    +0.023 HD
ENDBRANCH  22  28
ENDBRANCH  20  22
BRANCH  20  32
ATOM     32  O   UNL     1     150.268 166.905 193.419  0.00  0.00    -0.461 OA
BRANCH  32  33
ATOM     33  C   UNL     1     148.974 166.751 193.802  0.00  0.00    +0.307 C 
ATOM     34  O   UNL     1     148.053 167.488 193.470  0.00  0.00    -0.251 OA
BRANCH  33  35
ATOM     35  C   UNL     1     148.798 165.603 194.769  0.00  0.00    +0.046 C 
ATOM     36  H   UNL     1     147.718 165.483 194.933  0.00  0.00    +0.038 HD
ATOM     37  H   UNL     1     149.160 164.693 194.277  0.00  0.00    +0.038 HD
BRANCH  35  38
ATOM     38  C   UNL     1     149.489 165.770 196.121  0.00  0.00    -0.031 C 
ATOM     39  H   UNL     1     148.716 165.761 196.901  0.00  0.00    +0.028 HD
ATOM     40  H   UNL     1     149.960 166.761 196.174  0.00  0.00    +0.028 HD
BRANCH  38  41
ATOM     41  C   UNL     1     150.544 164.712 196.457  0.00  0.00    -0.006 C 
ATOM     42  H   UNL     1     151.243 165.081 197.212  0.00  0.00    +0.042 HD
ATOM     43  H   UNL     1     150.033 163.848 196.894  0.00  0.00    +0.042 HD
BRANCH  41  44
ATOM     44  N   UNL     1     151.280 164.267 195.281  0.00  0.00    -0.330 NA
ATOM     45  H   UNL     1     152.264 164.147 195.523  0.00  0.00    +0.118 HD
ATOM     46  H   UNL     1     151.261 164.983 194.556  0.00  0.00    +0.118 HD
ENDBRANCH  41  44
ENDBRANCH  38  41
ENDBRANCH  35  38
ENDBRANCH  33  35
ENDBRANCH  32  33
ENDBRANCH  20  32
ENDBRANCH  17  20
ENDBRANCH  15  17
BRANCH  15  47
ATOM     47  O   UNL     1     150.468 166.862 188.639  0.00  0.00    -0.379 OA
BRANCH  47  48
ATOM     48  C   UNL     1     149.837 166.380 187.456  0.00  0.00    +0.037 C 
ATOM     49  H   UNL     1     150.399 166.668 186.561  0.00  0.00    +0.052 HD
ATOM     50  H   UNL     1     148.838 166.820 187.396  0.00  0.00    +0.052 HD
ATOM     51  H   UNL     1     149.734 165.290 187.501  0.00  0.00    +0.052 HD
ENDBRANCH  47  48
ENDBRANCH  15  47
ENDBRANCH   9  15
ENDBRANCH   6   9
ENDBRANCH   3   6
ENDBRANCH   1   3
BRANCH   1  52
ATOM     52  C   UNL     1     145.236 169.909 188.846  0.00  0.00    +0.020 C 
ATOM     53  H   UNL     1     144.944 168.867 188.686  0.00  0.00    +0.036 HD
BRANCH  52  54
ATOM     54  C   UNL     1     146.143 170.292 187.660  0.00  0.00    -0.057 C 
ATOM     55  H   UNL     1     146.126 171.369 187.461  0.00  0.00    +0.023 HD
ATOM     56  H   UNL     1     145.819 169.778 186.747  0.00  0.00    +0.023 HD
ATOM     57  H   UNL     1     147.180 169.994 187.843  0.00  0.00    +0.023 HD
ENDBRANCH  52  54
BRANCH  52  58
ATOM     58  C   UNL     1     143.931 170.773 188.785  0.00  0.00    +0.070 C 
ATOM     59  H   UNL     1     143.502 170.586 187.790  0.00  0.00    +0.061 HD
BRANCH  58  60
ATOM     60  C   UNL     1     142.801 170.410 189.812  0.00  0.00    +0.002 C 
ATOM     61  H   UNL     1     141.859 170.676 189.310  0.00  0.00    +0.037 HD
BRANCH  60  62
ATOM     62  C   UNL     1     142.692 168.911 190.034  0.00  0.00    -0.065 C 
ATOM     63  C   UNL     1     142.612 168.276 191.211  0.00  0.00    -0.005 C 
ATOM     64  H   UNL     1     142.706 168.338 189.109  0.00  0.00    +0.059 HD
ATOM     65  H   UNL     1     142.635 168.856 192.132  0.00  0.00    +0.078 HD
BRANCH  63  66
ATOM     66  N   UNL     1     142.533 166.902 191.391  0.00  0.00    -0.281 N 
ATOM     67  C   UNL     1     142.891 166.037 190.357  0.00  0.00    +0.206 C 
ATOM     68  O   UNL     1     142.841 164.812 190.393  0.00  0.00    -0.279 OA
ATOM     69  H   UNL     1     143.233 166.567 189.451  0.00  0.00    +0.126 HD
BRANCH  66  70
ATOM     70  C   UNL     1     142.054 166.295 192.633  0.00  0.00    +0.016 C 
ATOM     71  H   UNL     1     141.759 165.257 192.451  0.00  0.00    +0.047 HD
ATOM     72  H   UNL     1     141.145 166.811 192.961  0.00  0.00    +0.047 HD
BRANCH  70  73
ATOM     73  C   UNL     1     143.083 166.384 193.751  0.00  0.00    -0.049 C 
ATOM     74  H   UNL     1     143.318 167.426 193.999  0.00  0.00    +0.024 HD
ATOM     75  H   UNL     1     142.717 165.900 194.663  0.00  0.00    +0.024 HD
ATOM     76  H   UNL     1     144.013 165.889 193.450  0.00  0.00    +0.024 HD
ENDBRANCH  70  73
ENDBRANCH  66  70
ENDBRANCH  63  66
ENDBRANCH  60  62
BRANCH  60  77
ATOM     77  C   UNL     1     142.767 171.263 191.086  0.00  0.00    -0.057 C 
ATOM     78  H   UNL     1     143.347 172.184 191.014  0.00  0.00    +0.024 HD
ATOM     79  H   UNL     1     143.185 170.696 191.925  0.00  0.00    +0.024 HD
ATOM     80  H   UNL     1     141.743 171.528 191.360  0.00  0.00    +0.024 HD
ENDBRANCH  60  77
ENDBRANCH  58  60
BRANCH  58  81
ATOM     81  O   UNL     1     144.283 172.163 188.839  0.00  0.00    -0.379 OA
BRANCH  81  82
ATOM     82  C   UNL     1     143.574 172.983 187.920  0.00  0.00    +0.037 C 
ATOM     83  H   UNL     1     143.302 172.371 187.055  0.00  0.00    +0.052 HD
ATOM     84  H   UNL     1     142.656 173.371 188.373  0.00  0.00    +0.052 HD
ATOM     85  H   UNL     1     144.202 173.803 187.565  0.00  0.00    +0.052 HD
ENDBRANCH  81  82
ENDBRANCH  58  81
ENDBRANCH  52  58
ENDBRANCH   1  52
BRANCH   1  86
ATOM     86  O   UNL     1     147.085 170.962 190.068  0.00  0.00    -0.459 OA
BRANCH  86  88
ATOM     87  O   UNL     1     146.169 172.346 191.656  0.00  0.00    -0.248 OA
ATOM     88  C   UNL     1     147.128 171.959 191.000  0.00  0.00    +0.337 C 
BRANCH  88  89
ATOM     89  C   UNL     1     148.562 172.494 191.123  0.00  0.00    +0.155 C 
ATOM     90  O   UNL     1     149.521 171.431 191.256  0.00  0.00    -0.365 OA
ATOM     91  C   UNL     1     149.980 171.388 192.614  0.00  0.00    +0.049 C 
ATOM     92  C   UNL     1     149.119 172.349 193.403  0.00  0.00    -0.027 C 
ATOM     93  C   UNL     1     148.744 173.367 192.354  0.00  0.00    -0.014 C 
ATOM     94  H   UNL     1     148.788 173.037 190.199  0.00  0.00    +0.071 HD
ATOM     95  H   UNL     1     149.924 170.363 192.993  0.00  0.00    +0.056 HD
ATOM     96  H   UNL     1     151.029 171.705 192.617  0.00  0.00    +0.056 HD
ATOM     97  H   UNL     1     148.220 171.837 193.768  0.00  0.00    +0.029 HD
ATOM     98  H   UNL     1     149.639 172.774 194.265  0.00  0.00    +0.029 HD
ATOM     99  H   UNL     1     147.869 173.960 192.626  0.00  0.00    +0.030 HD
ATOM    100  H   UNL     1     149.586 174.052 192.201  0.00  0.00    +0.030 HD
ENDBRANCH  88  89
ENDBRANCH  86  88
ENDBRANCH   1  86
TORSDOF 32
ENDMDL
MODEL 8
REMARK VINA RESULT:      -4.8      2.255      3.898
REMARK  Name = 2a_conf3
REMARK  32 active torsions:
REMARK  status: ('A' for Active; 'I' for Inactive)
REMARK    1  A    between atoms: C_2  and  C_3
REMARK    2  A    between atoms: C_2  and  O_8
REMARK    3  A    between atoms: O_8  and  C_9
REMARK    4  A    between atoms: C_9  and  C_10
REMARK    5  A    between atoms: C_9  and  C_29
REMARK    6  A    between atoms: C_10  and  C_11
REMARK    7  A    between atoms: C_11  and  C_12
REMARK    8  A    between atoms: C_12  and  C_13
REMARK    9  A    between atoms: C_12  and  C_14
REMARK   10  A    between atoms: C_14  and  O_15
REMARK   11  A    between atoms: C_14  and  C_17
REMARK   12  A    between atoms: O_15  and  C_16
REMARK   13  A    between atoms: C_17  and  C_18
REMARK   14  A    between atoms: C_18  and  O_19
REMARK   15  A    between atoms: C_18  and  C_26
REMARK   16  A    between atoms: O_19  and  C_20
REMARK   17  A    between atoms: C_20  and  C_21
REMARK   18  A    between atoms: C_21  and  C_22
REMARK   19  A    between atoms: C_22  and  C_23
REMARK   20  A    between atoms: C_23  and  N_24
REMARK   21  A    between atoms: C_26  and  C_27
REMARK   22  A    between atoms: C_26  and  C_28
REMARK   23  A    between atoms: C_29  and  C_30
REMARK   24  A    between atoms: C_29  and  C_31
REMARK   25  A    between atoms: C_31  and  O_32
REMARK   26  A    between atoms: C_31  and  C_34
REMARK   27  A    between atoms: O_32  and  C_33
REMARK   28  A    between atoms: C_34  and  C_35
REMARK   29  A    between atoms: C_34  and  C_36
REMARK   30  A    between atoms: C_37  and  N_38
REMARK   31  A    between atoms: N_38  and  C_39
REMARK   32  A    between atoms: C_39  and  C_40
REMARK                            x       y       z     vdW  Elec       q    Type
REMARK                         _______ _______ _______ _____ _____    ______ ____
ROOT
ATOM      1  C   UNL     1     148.806 168.060 192.516  0.00  0.00    +0.108 C 
ATOM      2  H   UNL     1     148.426 167.659 191.578  0.00  0.00    +0.074 HD
ENDROOT
BRANCH   1   3
ATOM      3  C   UNL     1     147.873 167.530 193.622  0.00  0.00    -0.015 C 
ATOM      4  H   UNL     1     147.182 168.339 193.880  0.00  0.00    +0.030 HD
ATOM      5  H   UNL     1     148.432 167.345 194.548  0.00  0.00    +0.030 HD
BRANCH   3   6
ATOM      6  C   UNL     1     147.111 166.264 193.213  0.00  0.00    -0.045 C 
ATOM      7  H   UNL     1     147.722 165.398 193.499  0.00  0.00    +0.027 HD
ATOM      8  H   UNL     1     147.003 166.223 192.122  0.00  0.00    +0.027 HD
BRANCH   6   9
ATOM      9  C   UNL     1     145.712 166.143 193.872  0.00  0.00    -0.017 C 
ATOM     10  H   UNL     1     145.539 167.067 194.431  0.00  0.00    +0.032 HD
BRANCH   9  11
ATOM     11  C   UNL     1     145.751 164.988 194.884  0.00  0.00    -0.060 C 
ATOM     12  H   UNL     1     144.815 164.911 195.448  0.00  0.00    +0.023 HD
ATOM     13  H   UNL     1     145.910 164.033 194.372  0.00  0.00    +0.023 HD
ATOM     14  H   UNL     1     146.576 165.107 195.594  0.00  0.00    +0.023 HD
ENDBRANCH   9  11
BRANCH   9  15
ATOM     15  C   UNL     1     144.595 165.960 192.804  0.00  0.00    +0.064 C 
ATOM     16  H   UNL     1     144.753 165.008 192.285  0.00  0.00    +0.060 HD
BRANCH  15  17
ATOM     17  C   UNL     1     144.485 167.063 191.727  0.00  0.00    +0.011 C 
ATOM     18  H   UNL     1     143.420 167.304 191.622  0.00  0.00    +0.033 HD
ATOM     19  H   UNL     1     144.961 167.987 192.075  0.00  0.00    +0.033 HD
BRANCH  17  20
ATOM     20  C   UNL     1     145.044 166.661 190.347  0.00  0.00    +0.108 C 
ATOM     21  H   UNL     1     146.072 167.042 190.272  0.00  0.00    +0.074 HD
BRANCH  20  22
ATOM     22  C   UNL     1     145.058 165.121 190.132  0.00  0.00    -0.009 C 
ATOM     23  H   UNL     1     145.014 164.631 191.114  0.00  0.00    +0.033 HD
BRANCH  22  24
ATOM     24  C   UNL     1     146.312 164.626 189.404  0.00  0.00    -0.059 C 
ATOM     25  H   UNL     1     146.080 164.320 188.378  0.00  0.00    +0.023 HD
ATOM     26  H   UNL     1     146.753 163.767 189.920  0.00  0.00    +0.023 HD
ATOM     27  H   UNL     1     147.085 165.400 189.368  0.00  0.00    +0.023 HD
ENDBRANCH  22  24
BRANCH  22  28
ATOM     28  C   UNL     1     143.821 164.656 189.347  0.00  0.00    -0.059 C 
ATOM     29  H   UNL     1     143.251 165.500 188.948  0.00  0.00    +0.023 HD
ATOM     30  H   UNL     1     144.105 164.014 188.506  0.00  0.00    +0.023 HD
ATOM     31  H   UNL     1     143.145 164.088 189.994  0.00  0.00    +0.023 HD
ENDBRANCH  22  28
ENDBRANCH  20  22
BRANCH  20  32
ATOM     32  O   UNL     1     144.192 167.251 189.339  0.00  0.00    -0.461 OA
BRANCH  32  33
ATOM     33  C   UNL     1     144.749 168.163 188.500  0.00  0.00    +0.307 C 
ATOM     34  O   UNL     1     145.739 167.962 187.806  0.00  0.00    -0.251 OA
BRANCH  33  35
ATOM     35  C   UNL     1     144.058 169.504 188.575  0.00  0.00    +0.046 C 
ATOM     36  H   UNL     1     144.789 170.221 188.975  0.00  0.00    +0.038 HD
ATOM     37  H   UNL     1     143.817 169.814 187.553  0.00  0.00    +0.038 HD
BRANCH  35  38
ATOM     38  C   UNL     1     142.799 169.547 189.439  0.00  0.00    -0.031 C 
ATOM     39  H   UNL     1     142.506 168.514 189.665  0.00  0.00    +0.028 HD
ATOM     40  H   UNL     1     141.970 169.976 188.860  0.00  0.00    +0.028 HD
BRANCH  38  41
ATOM     41  C   UNL     1     142.928 170.323 190.753  0.00  0.00    -0.006 C 
ATOM     42  H   UNL     1     142.215 171.152 190.790  0.00  0.00    +0.042 HD
ATOM     43  H   UNL     1     142.670 169.647 191.576  0.00  0.00    +0.042 HD
BRANCH  41  44
ATOM     44  N   UNL     1     144.277 170.825 190.973  0.00  0.00    -0.330 NA
ATOM     45  H   UNL     1     144.800 170.788 190.097  0.00  0.00    +0.118 HD
ATOM     46  H   UNL     1     144.783 170.220 191.619  0.00  0.00    +0.118 HD
ENDBRANCH  41  44
ENDBRANCH  38  41
ENDBRANCH  35  38
ENDBRANCH  33  35
ENDBRANCH  32  33
ENDBRANCH  20  32
ENDBRANCH  17  20
ENDBRANCH  15  17
BRANCH  15  47
ATOM     47  O   UNL     1     143.336 165.910 193.505  0.00  0.00    -0.379 OA
BRANCH  47  48
ATOM     48  C   UNL     1     142.221 165.787 192.626  0.00  0.00    +0.037 C 
ATOM     49  H   UNL     1     141.387 165.271 193.113  0.00  0.00    +0.052 HD
ATOM     50  H   UNL     1     142.534 165.202 191.757  0.00  0.00    +0.052 HD
ATOM     51  H   UNL     1     141.902 166.777 192.282  0.00  0.00    +0.052 HD
ENDBRANCH  47  48
ENDBRANCH  15  47
ENDBRANCH   9  15
ENDBRANCH   6   9
ENDBRANCH   3   6
ENDBRANCH   1   3
BRANCH   1  52
ATOM     52  C   UNL     1     150.292 167.643 192.661  0.00  0.00    +0.020 C 
ATOM     53  H   UNL     1     150.562 167.667 193.721  0.00  0.00    +0.036 HD
BRANCH  52  54
ATOM     54  C   UNL     1     151.218 168.652 191.955  0.00  0.00    -0.057 C 
ATOM     55  H   UNL     1     151.622 168.253 191.017  0.00  0.00    +0.023 HD
ATOM     56  H   UNL     1     152.066 168.911 192.599  0.00  0.00    +0.023 HD
ATOM     57  H   UNL     1     150.690 169.583 191.730  0.00  0.00    +0.023 HD
ENDBRANCH  52  54
BRANCH  52  58
ATOM     58  C   UNL     1     150.613 166.204 192.131  0.00  0.00    +0.070 C 
ATOM     59  H   UNL     1     149.669 165.646 192.205  0.00  0.00    +0.061 HD
BRANCH  58  60
ATOM     60  C   UNL     1     151.059 166.092 190.631  0.00  0.00    +0.002 C 
ATOM     61  H   UNL     1     151.569 167.042 190.410  0.00  0.00    +0.037 HD
BRANCH  60  62
ATOM     62  C   UNL     1     152.137 165.040 190.432  0.00  0.00    -0.065 C 
ATOM     63  C   UNL     1     153.380 165.239 189.974  0.00  0.00    -0.005 C 
ATOM     64  H   UNL     1     151.807 164.035 190.683  0.00  0.00    +0.059 HD
ATOM     65  H   UNL     1     153.690 166.244 189.692  0.00  0.00    +0.078 HD
BRANCH  63  66
ATOM     66  N   UNL     1     154.344 164.260 189.782  0.00  0.00    -0.281 N 
ATOM     67  C   UNL     1     153.964 162.949 189.491  0.00  0.00    +0.206 C 
ATOM     68  O   UNL     1     154.722 162.000 189.324  0.00  0.00    -0.279 OA
ATOM     69  H   UNL     1     152.869 162.822 189.427  0.00  0.00    +0.126 HD
BRANCH  66  70
ATOM     70  C   UNL     1     155.778 164.528 189.899  0.00  0.00    +0.016 C 
ATOM     71  H   UNL     1     156.304 164.120 189.030  0.00  0.00    +0.047 HD
ATOM     72  H   UNL     1     156.176 163.991 190.768  0.00  0.00    +0.047 HD
BRANCH  70  73
ATOM     73  C   UNL     1     156.074 166.010 190.075  0.00  0.00    -0.049 C 
ATOM     74  H   UNL     1     156.861 166.346 189.390  0.00  0.00    +0.024 HD
ATOM     75  H   UNL     1     155.183 166.616 189.879  0.00  0.00    +0.024 HD
ATOM     76  H   UNL     1     156.406 166.210 191.099  0.00  0.00    +0.024 HD
ENDBRANCH  70  73
ENDBRANCH  66  70
ENDBRANCH  63  66
ENDBRANCH  60  62
BRANCH  60  77
ATOM     77  C   UNL     1     149.922 166.063 189.603  0.00  0.00    -0.057 C 
ATOM     78  H   UNL     1     149.026 166.599 189.923  0.00  0.00    +0.024 HD
ATOM     79  H   UNL     1     149.615 165.029 189.415  0.00  0.00    +0.024 HD
ATOM     80  H   UNL     1     150.240 166.480 188.645  0.00  0.00    +0.024 HD
ENDBRANCH  60  77
ENDBRANCH  58  60
BRANCH  58  81
ATOM     81  O   UNL     1     151.548 165.573 193.019  0.00  0.00    -0.379 OA
BRANCH  81  82
ATOM     82  C   UNL     1     151.194 165.653 194.394  0.00  0.00    +0.037 C 
ATOM     83  H   UNL     1     150.369 166.364 194.494  0.00  0.00    +0.052 HD
ATOM     84  H   UNL     1     150.859 164.680 194.766  0.00  0.00    +0.052 HD
ATOM     85  H   UNL     1     152.030 166.024 194.990  0.00  0.00    +0.052 HD
ENDBRANCH  81  82
ENDBRANCH  58  81
ENDBRANCH  52  58
ENDBRANCH   1  52
BRANCH   1  86
ATOM     86  O   UNL     1     148.691 169.498 192.532  0.00  0.00    -0.459 OA
BRANCH  86  88
ATOM     87  O   UNL     1     146.972 169.563 191.010  0.00  0.00    -0.248 OA
ATOM     88  C   UNL     1     147.962 170.067 191.527  0.00  0.00    +0.337 C 
BRANCH  88  89
ATOM     89  C   UNL     1     148.550 171.440 191.171  0.00  0.00    +0.155 C 
ATOM     90  O   UNL     1     149.556 171.853 192.112  0.00  0.00    -0.365 OA
ATOM     91  C   UNL     1     149.014 172.885 192.946  0.00  0.00    +0.049 C 
ATOM     92  C   UNL     1     147.538 172.981 192.631  0.00  0.00    -0.027 C 
ATOM     93  C   UNL     1     147.497 172.535 191.189  0.00  0.00    -0.014 C 
ATOM     94  H   UNL     1     149.026 171.346 190.189  0.00  0.00    +0.071 HD
ATOM     95  H   UNL     1     149.207 172.652 193.997  0.00  0.00    +0.056 HD
ATOM     96  H   UNL     1     149.532 173.817 192.694  0.00  0.00    +0.056 HD
ATOM     97  H   UNL     1     146.973 172.280 193.257  0.00  0.00    +0.029 HD
ATOM     98  H   UNL     1     147.133 173.982 192.796  0.00  0.00    +0.029 HD
ATOM     99  H   UNL     1     146.503 172.218 190.868  0.00  0.00    +0.030 HD
ATOM    100  H   UNL     1     147.814 173.365 190.547  0.00  0.00    +0.030 HD
ENDBRANCH  88  89
ENDBRANCH  86  88
ENDBRANCH   1  86
TORSDOF 32
ENDMDL
MODEL 9
REMARK VINA RESULT:      -4.7      2.919      4.886
REMARK  Name = 2a_conf3
REMARK  32 active torsions:
REMARK  status: ('A' for Active; 'I' for Inactive)
REMARK    1  A    between atoms: C_2  and  C_3
REMARK    2  A    between atoms: C_2  and  O_8
REMARK    3  A    between atoms: O_8  and  C_9
REMARK    4  A    between atoms: C_9  and  C_10
REMARK    5  A    between atoms: C_9  and  C_29
REMARK    6  A    between atoms: C_10  and  C_11
REMARK    7  A    between atoms: C_11  and  C_12
REMARK    8  A    between atoms: C_12  and  C_13
REMARK    9  A    between atoms: C_12  and  C_14
REMARK   10  A    between atoms: C_14  and  O_15
REMARK   11  A    between atoms: C_14  and  C_17
REMARK   12  A    between atoms: O_15  and  C_16
REMARK   13  A    between atoms: C_17  and  C_18
REMARK   14  A    between atoms: C_18  and  O_19
REMARK   15  A    between atoms: C_18  and  C_26
REMARK   16  A    between atoms: O_19  and  C_20
REMARK   17  A    between atoms: C_20  and  C_21
REMARK   18  A    between atoms: C_21  and  C_22
REMARK   19  A    between atoms: C_22  and  C_23
REMARK   20  A    between atoms: C_23  and  N_24
REMARK   21  A    between atoms: C_26  and  C_27
REMARK   22  A    between atoms: C_26  and  C_28
REMARK   23  A    between atoms: C_29  and  C_30
REMARK   24  A    between atoms: C_29  and  C_31
REMARK   25  A    between atoms: C_31  and  O_32
REMARK   26  A    between atoms: C_31  and  C_34
REMARK   27  A    between atoms: O_32  and  C_33
REMARK   28  A    between atoms: C_34  and  C_35
REMARK   29  A    between atoms: C_34  and  C_36
REMARK   30  A    between atoms: C_37  and  N_38
REMARK   31  A    between atoms: N_38  and  C_39
REMARK   32  A    between atoms: C_39  and  C_40
REMARK                            x       y       z     vdW  Elec       q    Type
REMARK                         _______ _______ _______ _____ _____    ______ ____
ROOT
ATOM      1  C   UNL     1     149.075 168.254 192.314  0.00  0.00    +0.108 C 
ATOM      2  H   UNL     1     148.719 167.802 191.390  0.00  0.00    +0.074 HD
ENDROOT
BRANCH   1   3
ATOM      3  C   UNL     1     148.237 167.636 193.450  0.00  0.00    -0.015 C 
ATOM      4  H   UNL     1     147.647 168.444 193.895  0.00  0.00    +0.030 HD
ATOM      5  H   UNL     1     148.883 167.291 194.267  0.00  0.00    +0.030 HD
BRANCH   3   6
ATOM      6  C   UNL     1     147.336 166.489 192.979  0.00  0.00    -0.045 C 
ATOM      7  H   UNL     1     147.866 165.546 193.169  0.00  0.00    +0.027 HD
ATOM      8  H   UNL     1     147.183 166.549 191.895  0.00  0.00    +0.027 HD
BRANCH   6   9
ATOM      9  C   UNL     1     145.958 166.453 193.691  0.00  0.00    -0.017 C 
ATOM     10  H   UNL     1     145.947 167.273 194.414  0.00  0.00    +0.032 HD
BRANCH   9  11
ATOM     11  C   UNL     1     145.853 165.138 194.477  0.00  0.00    -0.060 C 
ATOM     12  H   UNL     1     144.899 165.059 195.010  0.00  0.00    +0.023 HD
ATOM     13  H   UNL     1     145.928 164.278 193.803  0.00  0.00    +0.023 HD
ATOM     14  H   UNL     1     146.666 165.041 195.203  0.00  0.00    +0.023 HD
ENDBRANCH   9  11
BRANCH   9  15
ATOM     15  C   UNL     1     144.790 166.633 192.677  0.00  0.00    +0.064 C 
ATOM     16  H   UNL     1     144.447 165.645 192.351  0.00  0.00    +0.060 HD
BRANCH  15  17
ATOM     17  C   UNL     1     145.103 167.457 191.407  0.00  0.00    +0.011 C 
ATOM     18  H   UNL     1     144.436 168.328 191.418  0.00  0.00    +0.033 HD
ATOM     19  H   UNL     1     146.119 167.867 191.457  0.00  0.00    +0.033 HD
BRANCH  17  20
ATOM     20  C   UNL     1     144.899 166.690 190.086  0.00  0.00    +0.108 C 
ATOM     21  H   UNL     1     144.393 167.360 189.376  0.00  0.00    +0.074 HD
BRANCH  20  22
ATOM     22  C   UNL     1     146.239 166.209 189.460  0.00  0.00    -0.009 C 
ATOM     23  H   UNL     1     147.060 166.785 189.908  0.00  0.00    +0.033 HD
BRANCH  22  24
ATOM     24  C   UNL     1     146.295 166.397 187.940  0.00  0.00    -0.059 C 
ATOM     25  H   UNL     1     147.240 166.024 187.529  0.00  0.00    +0.023 HD
ATOM     26  H   UNL     1     146.204 167.454 187.671  0.00  0.00    +0.023 HD
ATOM     27  H   UNL     1     145.471 165.876 187.443  0.00  0.00    +0.023 HD
ENDBRANCH  22  24
BRANCH  22  28
ATOM     28  C   UNL     1     146.507 164.730 189.781  0.00  0.00    -0.059 C 
ATOM     29  H   UNL     1     145.923 164.063 189.141  0.00  0.00    +0.023 HD
ATOM     30  H   UNL     1     147.566 164.483 189.649  0.00  0.00    +0.023 HD
ATOM     31  H   UNL     1     146.233 164.505 190.816  0.00  0.00    +0.023 HD
ENDBRANCH  22  28
ENDBRANCH  20  22
BRANCH  20  32
ATOM     32  O   UNL     1     144.092 165.525 190.373  0.00  0.00    -0.461 OA
BRANCH  32  33
ATOM     33  C   UNL     1     142.901 165.411 189.729  0.00  0.00    +0.307 C 
ATOM     34  O   UNL     1     141.849 165.910 190.111  0.00  0.00    -0.251 OA
BRANCH  33  35
ATOM     35  C   UNL     1     142.993 164.517 188.515  0.00  0.00    +0.046 C 
ATOM     36  H   UNL     1     142.703 165.123 187.646  0.00  0.00    +0.038 HD
ATOM     37  H   UNL     1     144.044 164.236 188.385  0.00  0.00    +0.038 HD
BRANCH  35  38
ATOM     38  C   UNL     1     142.123 163.262 188.555  0.00  0.00    -0.031 C 
ATOM     39  H   UNL     1     141.981 162.914 187.523  0.00  0.00    +0.028 HD
ATOM     40  H   UNL     1     141.122 163.518 188.928  0.00  0.00    +0.028 HD
BRANCH  38  41
ATOM     41  C   UNL     1     142.673 162.106 189.395  0.00  0.00    -0.006 C 
ATOM     42  H   UNL     1     143.184 161.372 188.766  0.00  0.00    +0.042 HD
ATOM     43  H   UNL     1     143.424 162.510 190.083  0.00  0.00    +0.042 HD
BRANCH  41  44
ATOM     44  N   UNL     1     141.638 161.446 190.179  0.00  0.00    -0.330 NA
ATOM     45  H   UNL     1     141.827 160.444 190.216  0.00  0.00    +0.118 HD
ATOM     46  H   UNL     1     140.731 161.537 189.722  0.00  0.00    +0.118 HD
ENDBRANCH  41  44
ENDBRANCH  38  41
ENDBRANCH  35  38
ENDBRANCH  33  35
ENDBRANCH  32  33
ENDBRANCH  20  32
ENDBRANCH  17  20
ENDBRANCH  15  17
BRANCH  15  47
ATOM     47  O   UNL     1     143.717 167.298 193.374  0.00  0.00    -0.379 OA
BRANCH  47  48
ATOM     48  C   UNL     1     142.562 166.476 193.516  0.00  0.00    +0.037 C 
ATOM     49  H   UNL     1     142.689 165.751 194.327  0.00  0.00    +0.052 HD
ATOM     50  H   UNL     1     142.412 165.930 192.580  0.00  0.00    +0.052 HD
ATOM     51  H   UNL     1     141.678 167.097 193.701  0.00  0.00    +0.052 HD
ENDBRANCH  47  48
ENDBRANCH  15  47
ENDBRANCH   9  15
ENDBRANCH   6   9
ENDBRANCH   3   6
ENDBRANCH   1   3
BRANCH   1  52
ATOM     52  C   UNL     1     150.602 168.009 192.422  0.00  0.00    +0.020 C 
ATOM     53  H   UNL     1     150.841 167.731 193.453  0.00  0.00    +0.036 HD
BRANCH  52  54
ATOM     54  C   UNL     1     151.389 169.302 192.128  0.00  0.00    -0.057 C 
ATOM     55  H   UNL     1     151.093 169.754 191.175  0.00  0.00    +0.023 HD
ATOM     56  H   UNL     1     152.464 169.094 192.080  0.00  0.00    +0.023 HD
ATOM     57  H   UNL     1     151.240 170.043 192.919  0.00  0.00    +0.023 HD
ENDBRANCH  52  54
BRANCH  52  58
ATOM     58  C   UNL     1     151.140 166.867 191.495  0.00  0.00    +0.070 C 
ATOM     59  H   UNL     1     151.830 167.359 190.794  0.00  0.00    +0.061 HD
BRANCH  58  60
ATOM     60  C   UNL     1     151.974 165.734 192.190  0.00  0.00    +0.002 C 
ATOM     61  H   UNL     1     151.287 164.878 192.270  0.00  0.00    +0.037 HD
BRANCH  60  62
ATOM     62  C   UNL     1     153.097 165.225 191.301  0.00  0.00    -0.065 C 
ATOM     63  C   UNL     1     153.561 165.800 190.184  0.00  0.00    -0.005 C 
ATOM     64  H   UNL     1     153.518 164.281 191.640  0.00  0.00    +0.059 HD
ATOM     65  H   UNL     1     153.109 166.725 189.834  0.00  0.00    +0.078 HD
BRANCH  63  66
ATOM     66  N   UNL     1     154.576 165.307 189.376  0.00  0.00    -0.281 N 
ATOM     67  C   UNL     1     154.333 165.047 188.026  0.00  0.00    +0.206 C 
ATOM     68  O   UNL     1     155.142 164.591 187.224  0.00  0.00    -0.279 OA
ATOM     69  H   UNL     1     153.300 165.286 187.720  0.00  0.00    +0.126 HD
BRANCH  66  70
ATOM     70  C   UNL     1     155.916 165.010 189.881  0.00  0.00    +0.016 C 
ATOM     71  H   UNL     1     156.546 164.634 189.070  0.00  0.00    +0.047 HD
ATOM     72  H   UNL     1     155.854 164.197 190.613  0.00  0.00    +0.047 HD
BRANCH  70  73
ATOM     73  C   UNL     1     156.555 166.215 190.558  0.00  0.00    -0.049 C 
ATOM     74  H   UNL     1     156.302 167.147 190.041  0.00  0.00    +0.024 HD
ATOM     75  H   UNL     1     156.218 166.308 191.596  0.00  0.00    +0.024 HD
ATOM     76  H   UNL     1     157.646 166.112 190.561  0.00  0.00    +0.024 HD
ENDBRANCH  70  73
ENDBRANCH  66  70
ENDBRANCH  63  66
ENDBRANCH  60  62
BRANCH  60  77
ATOM     77  C   UNL     1     152.367 166.001 193.648  0.00  0.00    -0.057 C 
ATOM     78  H   UNL     1     152.219 165.144 194.307  0.00  0.00    +0.024 HD
ATOM     79  H   UNL     1     151.759 166.816 194.055  0.00  0.00    +0.024 HD
ATOM     80  H   UNL     1     153.411 166.312 193.729  0.00  0.00    +0.024 HD
ENDBRANCH  60  77
ENDBRANCH  58  60
BRANCH  58  81
ATOM     81  O   UNL     1     150.054 166.339 190.720  0.00  0.00    -0.379 OA
BRANCH  81  82
ATOM     82  C   UNL     1     150.084 166.703 189.346  0.00  0.00    +0.037 C 
ATOM     83  H   UNL     1     149.673 165.873 188.764  0.00  0.00    +0.052 HD
ATOM     84  H   UNL     1     149.469 167.590 189.166  0.00  0.00    +0.052 HD
ATOM     85  H   UNL     1     151.109 166.872 189.010  0.00  0.00    +0.052 HD
ENDBRANCH  81  82
ENDBRANCH  58  81
ENDBRANCH  52  58
ENDBRANCH   1  52
BRANCH   1  86
ATOM     86  O   UNL     1     148.799 169.670 192.320  0.00  0.00    -0.459 OA
BRANCH  86  88
ATOM     87  O   UNL     1     147.674 169.591 190.319  0.00  0.00    -0.248 OA
ATOM     88  C   UNL     1     148.318 170.206 191.159  0.00  0.00    +0.337 C 
BRANCH  88  89
ATOM     89  C   UNL     1     148.677 171.697 191.087  0.00  0.00    +0.155 C 
ATOM     90  O   UNL     1     149.177 172.190 192.342  0.00  0.00    -0.365 OA
ATOM     91  C   UNL     1     148.167 173.001 192.957  0.00  0.00    +0.049 C 
ATOM     92  C   UNL     1     146.911 172.845 192.131  0.00  0.00    -0.027 C 
ATOM     93  C   UNL     1     147.471 172.561 190.759  0.00  0.00    -0.014 C 
ATOM     94  H   UNL     1     149.473 171.805 190.342  0.00  0.00    +0.071 HD
ATOM     95  H   UNL     1     148.029 172.695 193.998  0.00  0.00    +0.056 HD
ATOM     96  H   UNL     1     148.523 174.037 192.942  0.00  0.00    +0.056 HD
ATOM     97  H   UNL     1     146.331 171.984 192.485  0.00  0.00    +0.029 HD
ATOM     98  H   UNL     1     146.264 173.726 192.171  0.00  0.00    +0.029 HD
ATOM     99  H   UNL     1     146.746 172.096 190.088  0.00  0.00    +0.030 HD
ATOM    100  H   UNL     1     147.802 173.502 190.304  0.00  0.00    +0.030 HD
ENDBRANCH  88  89
ENDBRANCH  86  88
ENDBRANCH   1  86
TORSDOF 32
ENDMDL
MODEL 10
REMARK VINA RESULT:      -4.7      2.896      4.599
REMARK  Name = 2a_conf3
REMARK  32 active torsions:
REMARK  status: ('A' for Active; 'I' for Inactive)
REMARK    1  A    between atoms: C_2  and  C_3
REMARK    2  A    between atoms: C_2  and  O_8
REMARK    3  A    between atoms: O_8  and  C_9
REMARK    4  A    between atoms: C_9  and  C_10
REMARK    5  A    between atoms: C_9  and  C_29
REMARK    6  A    between atoms: C_10  and  C_11
REMARK    7  A    between atoms: C_11  and  C_12
REMARK    8  A    between atoms: C_12  and  C_13
REMARK    9  A    between atoms: C_12  and  C_14
REMARK   10  A    between atoms: C_14  and  O_15
REMARK   11  A    between atoms: C_14  and  C_17
REMARK   12  A    between atoms: O_15  and  C_16
REMARK   13  A    between atoms: C_17  and  C_18
REMARK   14  A    between atoms: C_18  and  O_19
REMARK   15  A    between atoms: C_18  and  C_26
REMARK   16  A    between atoms: O_19  and  C_20
REMARK   17  A    between atoms: C_20  and  C_21
REMARK   18  A    between atoms: C_21  and  C_22
REMARK   19  A    between atoms: C_22  and  C_23
REMARK   20  A    between atoms: C_23  and  N_24
REMARK   21  A    between atoms: C_26  and  C_27
REMARK   22  A    between atoms: C_26  and  C_28
REMARK   23  A    between atoms: C_29  and  C_30
REMARK   24  A    between atoms: C_29  and  C_31
REMARK   25  A    between atoms: C_31  and  O_32
REMARK   26  A    between atoms: C_31  and  C_34
REMARK   27  A    between atoms: O_32  and  C_33
REMARK   28  A    between atoms: C_34  and  C_35
REMARK   29  A    between atoms: C_34  and  C_36
REMARK   30  A    between atoms: C_37  and  N_38
REMARK   31  A    between atoms: N_38  and  C_39
REMARK   32  A    between atoms: C_39  and  C_40
REMARK                            x       y       z     vdW  Elec       q    Type
REMARK                         _______ _______ _______ _____ _____    ______ ____
ROOT
ATOM      1  C   UNL     1     150.387 168.242 192.144  0.00  0.00    +0.108 C 
ATOM      2  H   UNL     1     149.793 167.887 191.304  0.00  0.00    +0.074 HD
ENDROOT
BRANCH   1   3
ATOM      3  C   UNL     1     150.292 167.156 193.232  0.00  0.00    -0.015 C 
ATOM      4  H   UNL     1     150.246 167.668 194.199  0.00  0.00    +0.030 HD
ATOM      5  H   UNL     1     151.218 166.570 193.280  0.00  0.00    +0.030 HD
BRANCH   3   6
ATOM      6  C   UNL     1     149.093 166.220 193.046  0.00  0.00    -0.045 C 
ATOM      7  H   UNL     1     149.432 165.196 193.253  0.00  0.00    +0.027 HD
ATOM      8  H   UNL     1     148.761 166.233 192.001  0.00  0.00    +0.027 HD
BRANCH   6   9
ATOM      9  C   UNL     1     147.894 166.558 193.971  0.00  0.00    -0.017 C 
ATOM     10  H   UNL     1     147.679 167.622 193.842  0.00  0.00    +0.032 HD
BRANCH   9  11
ATOM     11  C   UNL     1     148.330 166.344 195.428  0.00  0.00    -0.060 C 
ATOM     12  H   UNL     1     148.321 165.284 195.703  0.00  0.00    +0.023 HD
ATOM     13  H   UNL     1     149.348 166.718 195.585  0.00  0.00    +0.023 HD
ATOM     14  H   UNL     1     147.683 166.890 196.122  0.00  0.00    +0.023 HD
ENDBRANCH   9  11
BRANCH   9  15
ATOM     15  C   UNL     1     146.636 165.720 193.598  0.00  0.00    +0.064 C 
ATOM     16  H   UNL     1     146.763 165.320 192.587  0.00  0.00    +0.060 HD
BRANCH  15  17
ATOM     17  C   UNL     1     145.280 166.461 193.636  0.00  0.00    +0.011 C 
ATOM     18  H   UNL     1     144.653 165.944 194.373  0.00  0.00    +0.033 HD
ATOM     19  H   UNL     1     145.410 167.478 194.026  0.00  0.00    +0.033 HD
BRANCH  17  20
ATOM     20  C   UNL     1     144.538 166.497 192.286  0.00  0.00    +0.108 C 
ATOM     21  H   UNL     1     144.822 165.601 191.716  0.00  0.00    +0.074 HD
BRANCH  20  22
ATOM     22  C   UNL     1     142.992 166.521 192.453  0.00  0.00    -0.009 C 
ATOM     23  H   UNL     1     142.584 167.314 191.812  0.00  0.00    +0.033 HD
BRANCH  22  24
ATOM     24  C   UNL     1     142.546 166.791 193.894  0.00  0.00    -0.059 C 
ATOM     25  H   UNL     1     142.891 167.772 194.239  0.00  0.00    +0.023 HD
ATOM     26  H   UNL     1     142.946 166.034 194.577  0.00  0.00    +0.023 HD
ATOM     27  H   UNL     1     141.456 166.753 193.989  0.00  0.00    +0.023 HD
ENDBRANCH  22  24
BRANCH  22  28
ATOM     28  C   UNL     1     142.359 165.201 191.984  0.00  0.00    -0.059 C 
ATOM     29  H   UNL     1     141.500 164.920 192.599  0.00  0.00    +0.023 HD
ATOM     30  H   UNL     1     142.020 165.273 190.944  0.00  0.00    +0.023 HD
ATOM     31  H   UNL     1     143.083 164.383 192.048  0.00  0.00    +0.023 HD
ENDBRANCH  22  28
ENDBRANCH  20  22
BRANCH  20  32
ATOM     32  O   UNL     1     144.937 167.704 191.596  0.00  0.00    -0.461 OA
BRANCH  32  33
ATOM     33  C   UNL     1     145.116 167.630 190.252  0.00  0.00    +0.307 C 
ATOM     34  O   UNL     1     144.785 168.498 189.453  0.00  0.00    -0.251 OA
BRANCH  33  35
ATOM     35  C   UNL     1     145.702 166.304 189.827  0.00  0.00    +0.046 C 
ATOM     36  H   UNL     1     145.400 165.562 190.579  0.00  0.00    +0.038 HD
ATOM     37  H   UNL     1     145.234 166.020 188.877  0.00  0.00    +0.038 HD
BRANCH  35  38
ATOM     38  C   UNL     1     147.222 166.272 189.683  0.00  0.00    -0.031 C 
ATOM     39  H   UNL     1     147.545 165.223 189.728  0.00  0.00    +0.028 HD
ATOM     40  H   UNL     1     147.685 166.767 190.547  0.00  0.00    +0.028 HD
BRANCH  38  41
ATOM     41  C   UNL     1     147.777 166.906 188.405  0.00  0.00    -0.006 C 
ATOM     42  H   UNL     1     148.413 166.201 187.861  0.00  0.00    +0.042 HD
ATOM     43  H   UNL     1     146.934 167.142 187.747  0.00  0.00    +0.042 HD
BRANCH  41  44
ATOM     44  N   UNL     1     148.516 168.133 188.668  0.00  0.00    -0.330 NA
ATOM     45  H   UNL     1     149.474 168.030 188.332  0.00  0.00    +0.118 HD
ATOM     46  H   UNL     1     148.593 168.295 189.671  0.00  0.00    +0.118 HD
ENDBRANCH  41  44
ENDBRANCH  38  41
ENDBRANCH  35  38
ENDBRANCH  33  35
ENDBRANCH  32  33
ENDBRANCH  20  32
ENDBRANCH  17  20
ENDBRANCH  15  17
BRANCH  15  47
ATOM     47  O   UNL     1     146.559 164.624 194.532  0.00  0.00    -0.379 OA
BRANCH  47  48
ATOM     48  C   UNL     1     145.417 164.703 195.380  0.00  0.00    +0.037 C 
ATOM     49  H   UNL     1     144.554 165.113 194.845  0.00  0.00    +0.052 HD
ATOM     50  H   UNL     1     145.657 165.367 196.216  0.00  0.00    +0.052 HD
ATOM     51  H   UNL     1     145.176 163.712 195.781  0.00  0.00    +0.052 HD
ENDBRANCH  47  48
ENDBRANCH  15  47
ENDBRANCH   9  15
ENDBRANCH   6   9
ENDBRANCH   3   6
ENDBRANCH   1   3
BRANCH   1  52
ATOM     52  C   UNL     1     151.823 168.536 191.639  0.00  0.00    +0.020 C 
ATOM     53  H   UNL     1     152.519 168.426 192.475  0.00  0.00    +0.036 HD
BRANCH  52  54
ATOM     54  C   UNL     1     151.950 169.995 191.157  0.00  0.00    -0.057 C 
ATOM     55  H   UNL     1     151.975 170.066 190.064  0.00  0.00    +0.023 HD
ATOM     56  H   UNL     1     152.872 170.447 191.542  0.00  0.00    +0.023 HD
ATOM     57  H   UNL     1     151.118 170.604 191.521  0.00  0.00    +0.023 HD
ENDBRANCH  52  54
BRANCH  52  58
ATOM     58  C   UNL     1     152.314 167.581 190.497  0.00  0.00    +0.070 C 
ATOM     59  H   UNL     1     152.907 168.214 189.821  0.00  0.00    +0.061 HD
BRANCH  58  60
ATOM     60  C   UNL     1     153.262 166.407 190.925  0.00  0.00    +0.002 C 
ATOM     61  H   UNL     1     152.696 165.487 190.713  0.00  0.00    +0.037 HD
BRANCH  60  62
ATOM     62  C   UNL     1     154.483 166.303 190.026  0.00  0.00    -0.065 C 
ATOM     63  C   UNL     1     154.570 165.649 188.860  0.00  0.00    -0.005 C 
ATOM     64  H   UNL     1     155.356 166.812 190.427  0.00  0.00    +0.059 HD
ATOM     65  H   UNL     1     153.701 165.112 188.484  0.00  0.00    +0.078 HD
BRANCH  63  66
ATOM     66  N   UNL     1     155.702 165.550 188.063  0.00  0.00    -0.281 N 
ATOM     67  C   UNL     1     156.770 164.744 188.459  0.00  0.00    +0.206 C 
ATOM     68  O   UNL     1     157.825 164.597 187.851  0.00  0.00    -0.279 OA
ATOM     69  H   UNL     1     156.588 164.226 189.416  0.00  0.00    +0.126 HD
BRANCH  66  70
ATOM     70  C   UNL     1     155.852 166.289 186.809  0.00  0.00    +0.016 C 
ATOM     71  H   UNL     1     156.068 165.594 185.992  0.00  0.00    +0.047 HD
ATOM     72  H   UNL     1     156.726 166.947 186.880  0.00  0.00    +0.047 HD
BRANCH  70  73
ATOM     73  C   UNL     1     154.634 167.145 186.495  0.00  0.00    -0.049 C 
ATOM     74  H   UNL     1     154.000 166.676 185.734  0.00  0.00    +0.024 HD
ATOM     75  H   UNL     1     154.020 167.300 187.389  0.00  0.00    +0.024 HD
ATOM     76  H   UNL     1     154.947 168.125 186.120  0.00  0.00    +0.024 HD
ENDBRANCH  70  73
ENDBRANCH  66  70
ENDBRANCH  63  66
ENDBRANCH  60  62
BRANCH  60  77
ATOM     77  C   UNL     1     153.548 166.300 192.428  0.00  0.00    -0.057 C 
ATOM     78  H   UNL     1     152.941 165.550 192.938  0.00  0.00    +0.024 HD
ATOM     79  H   UNL     1     153.337 167.257 192.916  0.00  0.00    +0.024 HD
ATOM     80  H   UNL     1     154.599 166.070 192.618  0.00  0.00    +0.024 HD
ENDBRANCH  60  77
ENDBRANCH  58  60
BRANCH  58  81
ATOM     81  O   UNL     1     151.179 167.114 189.754  0.00  0.00    -0.379 OA
BRANCH  81  82
ATOM     82  C   UNL     1     151.012 165.702 189.766  0.00  0.00    +0.037 C 
ATOM     83  H   UNL     1     150.788 165.394 190.791  0.00  0.00    +0.052 HD
ATOM     84  H   UNL     1     150.177 165.404 189.125  0.00  0.00    +0.052 HD
ATOM     85  H   UNL     1     151.931 165.199 189.458  0.00  0.00    +0.052 HD
ENDBRANCH  81  82
ENDBRANCH  58  81
ENDBRANCH  52  58
ENDBRANCH   1  52
BRANCH   1  86
ATOM     86  O   UNL     1     149.805 169.439 192.702  0.00  0.00    -0.459 OA
BRANCH  86  88
ATOM     87  O   UNL     1     147.954 169.216 191.360  0.00  0.00    -0.248 OA
ATOM     88  C   UNL     1     148.629 169.863 192.151  0.00  0.00    +0.337 C 
BRANCH  88  89
ATOM     89  C   UNL     1     148.269 171.251 192.700  0.00  0.00    +0.155 C 
ATOM     90  O   UNL     1     147.116 171.805 192.044  0.00  0.00    -0.365 OA
ATOM     91  C   UNL     1     147.544 172.845 191.155  0.00  0.00    +0.049 C 
ATOM     92  C   UNL     1     149.055 172.803 191.119  0.00  0.00    -0.027 C 
ATOM     93  C   UNL     1     149.386 172.258 192.487  0.00  0.00    -0.014 C 
ATOM     94  H   UNL     1     148.025 171.128 193.761  0.00  0.00    +0.071 HD
ATOM     95  H   UNL     1     147.094 172.700 190.169  0.00  0.00    +0.056 HD
ATOM     96  H   UNL     1     147.186 173.796 191.566  0.00  0.00    +0.056 HD
ATOM     97  H   UNL     1     149.394 172.103 190.345  0.00  0.00    +0.029 HD
ATOM     98  H   UNL     1     149.503 173.778 190.911  0.00  0.00    +0.029 HD
ATOM     99  H   UNL     1     150.393 171.843 192.550  0.00  0.00    +0.030 HD
ATOM    100  H   UNL     1     149.303 173.066 193.225  0.00  0.00    +0.030 HD
ENDBRANCH  88  89
ENDBRANCH  86  88
ENDBRANCH   1  86
TORSDOF 32
ENDMDL
