MODEL 1
REMARK VINA RESULT:      -5.1      0.000      0.000
REMARK  Name = 2a_conf1
REMARK  32 active torsions:
REMARK  status: ('A' for Active; 'I' for Inactive)
REMARK    1  A    between atoms: C_2  and  C_3
REMARK    2  A    between atoms: C_2  and  O_8
REMARK    3  A    between atoms: O_8  and  C_9
REMARK    4  A    between atoms: C_9  and  C_10
REMARK    5  A    between atoms: C_9  and  C_29
REMARK    6  A    between atoms: C_10  and  C_11
REMARK    7  A    between atoms: C_11  and  C_12
REMARK    8  A    between atoms: C_12  and  C_13
REMARK    9  A    between atoms: C_12  and  C_14
REMARK   10  A    between atoms: C_14  and  O_15
REMARK   11  A    between atoms: C_14  and  C_17
REMARK   12  A    between atoms: O_15  and  C_16
REMARK   13  A    between atoms: C_17  and  C_18
REMARK   14  A    between atoms: C_18  and  O_19
REMARK   15  A    between atoms: C_18  and  C_26
REMARK   16  A    between atoms: O_19  and  C_20
REMARK   17  A    between atoms: C_20  and  C_21
REMARK   18  A    between atoms: C_21  and  C_22
REMARK   19  A    between atoms: C_22  and  C_23
REMARK   20  A    between atoms: C_23  and  N_24
REMARK   21  A    between atoms: C_26  and  C_27
REMARK   22  A    between atoms: C_26  and  C_28
REMARK   23  A    between atoms: C_29  and  C_30
REMARK   24  A    between atoms: C_29  and  C_31
REMARK   25  A    between atoms: C_31  and  O_32
REMARK   26  A    between atoms: C_31  and  C_34
REMARK   27  A    between atoms: O_32  and  C_33
REMARK   28  A    between atoms: C_34  and  C_35
REMARK   29  A    between atoms: C_34  and  C_36
REMARK   30  A    between atoms: C_37  and  N_38
REMARK   31  A    between atoms: N_38  and  C_39
REMARK   32  A    between atoms: C_39  and  C_40
REMARK                            x       y       z     vdW  Elec       q    Type
REMARK                         _______ _______ _______ _____ _____    ______ ____
ROOT
ATOM      1  C   UNL     1     147.448 169.391 191.041  0.00  0.00    +0.108 C 
ATOM      2  H   UNL     1     146.531 169.380 191.644  0.00  0.00    +0.074 HD
ENDROOT
BRANCH   1   3
ATOM      3  C   UNL     1     148.633 169.124 191.989  0.00  0.00    -0.015 C 
ATOM      4  H   UNL     1     149.105 170.064 192.294  0.00  0.00    +0.030 HD
ATOM      5  H   UNL     1     148.259 168.629 192.887  0.00  0.00    +0.030 HD
BRANCH   3   6
ATOM      6  C   UNL     1     149.701 168.229 191.349  0.00  0.00    -0.045 C 
ATOM      7  H   UNL     1     149.345 167.196 191.286  0.00  0.00    +0.027 HD
ATOM      8  H   UNL     1     149.836 168.562 190.310  0.00  0.00    +0.027 HD
BRANCH   6   9
ATOM      9  C   UNL     1     151.074 168.283 192.064  0.00  0.00    -0.017 C 
ATOM     10  H   UNL     1     150.894 168.033 193.116  0.00  0.00    +0.032 HD
BRANCH   9  11
ATOM     11  C   UNL     1     151.591 169.731 192.047  0.00  0.00    -0.060 C 
ATOM     12  H   UNL     1     150.973 170.360 191.396  0.00  0.00    +0.023 HD
ATOM     13  H   UNL     1     151.600 170.174 193.048  0.00  0.00    +0.023 HD
ATOM     14  H   UNL     1     152.615 169.772 191.657  0.00  0.00    +0.023 HD
ENDBRANCH   9  11
BRANCH   9  15
ATOM     15  C   UNL     1     152.164 167.311 191.516  0.00  0.00    +0.064 C 
ATOM     16  H   UNL     1     152.639 167.796 190.656  0.00  0.00    +0.060 HD
BRANCH  15  17
ATOM     17  C   UNL     1     151.587 165.954 191.056  0.00  0.00    +0.011 C 
ATOM     18  H   UNL     1     151.791 165.211 191.839  0.00  0.00    +0.033 HD
ATOM     19  H   UNL     1     150.499 166.025 190.957  0.00  0.00    +0.033 HD
BRANCH  17  20
ATOM     20  C   UNL     1     152.150 165.393 189.728  0.00  0.00    +0.108 C 
ATOM     21  H   UNL     1     152.294 164.312 189.856  0.00  0.00    +0.074 HD
BRANCH  20  22
ATOM     22  C   UNL     1     151.233 165.596 188.495  0.00  0.00    -0.009 C 
ATOM     23  H   UNL     1     151.382 164.766 187.793  0.00  0.00    +0.033 HD
BRANCH  22  24
ATOM     24  C   UNL     1     149.753 165.551 188.902  0.00  0.00    -0.059 C 
ATOM     25  H   UNL     1     149.645 165.294 189.962  0.00  0.00    +0.023 HD
ATOM     26  H   UNL     1     149.206 164.804 188.317  0.00  0.00    +0.023 HD
ATOM     27  H   UNL     1     149.273 166.523 188.751  0.00  0.00    +0.023 HD
ENDBRANCH  22  24
BRANCH  22  28
ATOM     28  C   UNL     1     151.510 166.912 187.767  0.00  0.00    -0.059 C 
ATOM     29  H   UNL     1     151.006 167.751 188.264  0.00  0.00    +0.023 HD
ATOM     30  H   UNL     1     152.580 167.137 187.723  0.00  0.00    +0.023 HD
ATOM     31  H   UNL     1     151.151 166.868 186.732  0.00  0.00    +0.023 HD
ENDBRANCH  22  28
ENDBRANCH  20  22
BRANCH  20  32
ATOM     32  O   UNL     1     153.431 165.986 189.420  0.00  0.00    -0.461 OA
BRANCH  32  33
ATOM     33  C   UNL     1     154.536 165.269 189.766  0.00  0.00    +0.307 C 
ATOM     34  O   UNL     1     154.530 164.118 190.183  0.00  0.00    -0.251 OA
BRANCH  33  35
ATOM     35  C   UNL     1     155.774 166.109 189.569  0.00  0.00    +0.046 C 
ATOM     36  H   UNL     1     156.420 165.972 190.440  0.00  0.00    +0.038 HD
ATOM     37  H   UNL     1     155.475 167.161 189.512  0.00  0.00    +0.038 HD
BRANCH  35  38
ATOM     38  C   UNL     1     156.498 165.722 188.277  0.00  0.00    -0.031 C 
ATOM     39  H   UNL     1     157.497 166.179 188.255  0.00  0.00    +0.028 HD
ATOM     40  H   UNL     1     156.661 164.638 188.268  0.00  0.00    +0.028 HD
BRANCH  38  41
ATOM     41  C   UNL     1     155.722 166.112 187.020  0.00  0.00    -0.006 C 
ATOM     42  H   UNL     1     154.982 165.342 186.780  0.00  0.00    +0.042 HD
ATOM     43  H   UNL     1     156.413 166.183 186.170  0.00  0.00    +0.042 HD
BRANCH  41  44
ATOM     44  N   UNL     1     155.048 167.395 187.192  0.00  0.00    -0.330 NA
ATOM     45  H   UNL     1     154.068 167.228 187.426  0.00  0.00    +0.118 HD
ATOM     46  H   UNL     1     155.444 167.876 188.000  0.00  0.00    +0.118 HD
ENDBRANCH  41  44
ENDBRANCH  38  41
ENDBRANCH  35  38
ENDBRANCH  33  35
ENDBRANCH  32  33
ENDBRANCH  20  32
ENDBRANCH  17  20
ENDBRANCH  15  17
BRANCH  15  47
ATOM     47  O   UNL     1     153.176 167.045 192.497  0.00  0.00    -0.379 OA
BRANCH  47  48
ATOM     48  C   UNL     1     152.775 166.137 193.512  0.00  0.00    +0.037 C 
ATOM     49  H   UNL     1     153.379 165.227 193.476  0.00  0.00    +0.052 HD
ATOM     50  H   UNL     1     151.714 165.896 193.425  0.00  0.00    +0.052 HD
ATOM     51  H   UNL     1     152.943 166.618 194.480  0.00  0.00    +0.052 HD
ENDBRANCH  47  48
ENDBRANCH  15  47
ENDBRANCH   9  15
ENDBRANCH   6   9
ENDBRANCH   3   6
ENDBRANCH   1   3
BRANCH   1  52
ATOM     52  C   UNL     1     147.310 168.330 189.904  0.00  0.00    +0.020 C 
ATOM     53  H   UNL     1     148.129 167.614 190.049  0.00  0.00    +0.036 HD
BRANCH  52  54
ATOM     54  C   UNL     1     147.536 169.022 188.549  0.00  0.00    -0.057 C 
ATOM     55  H   UNL     1     146.587 169.391 188.139  0.00  0.00    +0.023 HD
ATOM     56  H   UNL     1     147.983 168.344 187.812  0.00  0.00    +0.023 HD
ATOM     57  H   UNL     1     148.192 169.891 188.648  0.00  0.00    +0.023 HD
ENDBRANCH  52  54
BRANCH  52  58
ATOM     58  C   UNL     1     145.976 167.517 189.952  0.00  0.00    +0.070 C 
ATOM     59  H   UNL     1     145.489 167.583 188.972  0.00  0.00    +0.061 HD
BRANCH  58  60
ATOM     60  C   UNL     1     146.162 165.997 190.265  0.00  0.00    +0.002 C 
ATOM     61  H   UNL     1     146.567 165.517 189.364  0.00  0.00    +0.037 HD
BRANCH  60  62
ATOM     62  C   UNL     1     147.096 165.743 191.435  0.00  0.00    -0.065 C 
ATOM     63  C   UNL     1     146.694 165.758 192.715  0.00  0.00    -0.005 C 
ATOM     64  H   UNL     1     148.134 165.552 191.168  0.00  0.00    +0.059 HD
ATOM     65  H   UNL     1     145.645 165.970 192.925  0.00  0.00    +0.078 HD
BRANCH  63  66
ATOM     66  N   UNL     1     147.488 165.540 193.831  0.00  0.00    -0.281 N 
ATOM     67  C   UNL     1     148.851 165.299 193.683  0.00  0.00    +0.206 C 
ATOM     68  O   UNL     1     149.651 165.052 194.579  0.00  0.00    -0.279 OA
ATOM     69  H   UNL     1     149.182 165.341 192.636  0.00  0.00    +0.126 HD
BRANCH  66  70
ATOM     70  C   UNL     1     146.948 165.505 195.190  0.00  0.00    +0.016 C 
ATOM     71  H   UNL     1     146.994 166.503 195.636  0.00  0.00    +0.047 HD
ATOM     72  H   UNL     1     147.588 164.869 195.814  0.00  0.00    +0.047 HD
BRANCH  70  73
ATOM     73  C   UNL     1     145.533 164.950 195.230  0.00  0.00    -0.049 C 
ATOM     74  H   UNL     1     144.788 165.747 195.122  0.00  0.00    +0.024 HD
ATOM     75  H   UNL     1     145.357 164.435 196.179  0.00  0.00    +0.024 HD
ATOM     76  H   UNL     1     145.373 164.239 194.414  0.00  0.00    +0.024 HD
ENDBRANCH  70  73
ENDBRANCH  66  70
ENDBRANCH  63  66
ENDBRANCH  60  62
BRANCH  60  77
ATOM     77  C   UNL     1     144.821 165.310 190.552  0.00  0.00    -0.057 C 
ATOM     78  H   UNL     1     144.277 165.794 191.371  0.00  0.00    +0.024 HD
ATOM     79  H   UNL     1     144.184 165.320 189.660  0.00  0.00    +0.024 HD
ATOM     80  H   UNL     1     144.975 164.262 190.835  0.00  0.00    +0.024 HD
ENDBRANCH  60  77
ENDBRANCH  58  60
BRANCH  58  81
ATOM     81  O   UNL     1     145.127 168.082 190.968  0.00  0.00    -0.379 OA
BRANCH  81  82
ATOM     82  C   UNL     1     143.951 168.698 190.462  0.00  0.00    +0.037 C 
ATOM     83  H   UNL     1     143.103 168.013 190.512  0.00  0.00    +0.052 HD
ATOM     84  H   UNL     1     143.724 169.618 191.007  0.00  0.00    +0.052 HD
ATOM     85  H   UNL     1     144.128 168.948 189.413  0.00  0.00    +0.052 HD
ENDBRANCH  81  82
ENDBRANCH  58  81
ENDBRANCH  52  58
ENDBRANCH   1  52
BRANCH   1  86
ATOM     86  O   UNL     1     147.634 170.712 190.493  0.00  0.00    -0.459 OA
BRANCH  86  88
ATOM     87  O   UNL     1     145.609 171.618 191.078  0.00  0.00    -0.248 OA
ATOM     88  C   UNL     1     146.826 171.696 190.979  0.00  0.00    +0.337 C 
BRANCH  88  89
ATOM     89  C   UNL     1     147.679 172.918 191.359  0.00  0.00    +0.155 C 
ATOM     90  O   UNL     1     149.083 172.609 191.414  0.00  0.00    -0.365 OA
ATOM     91  C   UNL     1     149.494 172.537 192.782  0.00  0.00    +0.049 C 
ATOM     92  C   UNL     1     148.246 172.636 193.632  0.00  0.00    -0.027 C 
ATOM     93  C   UNL     1     147.300 173.413 192.746  0.00  0.00    -0.014 C 
ATOM     94  H   UNL     1     147.535 173.687 190.590  0.00  0.00    +0.071 HD
ATOM     95  H   UNL     1     150.171 173.375 192.977  0.00  0.00    +0.056 HD
ATOM     96  H   UNL     1     150.038 171.604 192.951  0.00  0.00    +0.056 HD
ATOM     97  H   UNL     1     148.429 173.111 194.599  0.00  0.00    +0.029 HD
ATOM     98  H   UNL     1     147.840 171.636 193.823  0.00  0.00    +0.029 HD
ATOM     99  H   UNL     1     146.252 173.251 193.017  0.00  0.00    +0.030 HD
ATOM    100  H   UNL     1     147.520 174.488 192.829  0.00  0.00    +0.030 HD
ENDBRANCH  88  89
ENDBRANCH  86  88
ENDBRANCH   1  86
TORSDOF 32
ENDMDL
MODEL 2
REMARK VINA RESULT:      -5.0      2.305      4.323
REMARK  Name = 2a_conf1
REMARK  32 active torsions:
REMARK  status: ('A' for Active; 'I' for Inactive)
REMARK    1  A    between atoms: C_2  and  C_3
REMARK    2  A    between atoms: C_2  and  O_8
REMARK    3  A    between atoms: O_8  and  C_9
REMARK    4  A    between atoms: C_9  and  C_10
REMARK    5  A    between atoms: C_9  and  C_29
REMARK    6  A    between atoms: C_10  and  C_11
REMARK    7  A    between atoms: C_11  and  C_12
REMARK    8  A    between atoms: C_12  and  C_13
REMARK    9  A    between atoms: C_12  and  C_14
REMARK   10  A    between atoms: C_14  and  O_15
REMARK   11  A    between atoms: C_14  and  C_17
REMARK   12  A    between atoms: O_15  and  C_16
REMARK   13  A    between atoms: C_17  and  C_18
REMARK   14  A    between atoms: C_18  and  O_19
REMARK   15  A    between atoms: C_18  and  C_26
REMARK   16  A    between atoms: O_19  and  C_20
REMARK   17  A    between atoms: C_20  and  C_21
REMARK   18  A    between atoms: C_21  and  C_22
REMARK   19  A    between atoms: C_22  and  C_23
REMARK   20  A    between atoms: C_23  and  N_24
REMARK   21  A    between atoms: C_26  and  C_27
REMARK   22  A    between atoms: C_26  and  C_28
REMARK   23  A    between atoms: C_29  and  C_30
REMARK   24  A    between atoms: C_29  and  C_31
REMARK   25  A    between atoms: C_31  and  O_32
REMARK   26  A    between atoms: C_31  and  C_34
REMARK   27  A    between atoms: O_32  and  C_33
REMARK   28  A    between atoms: C_34  and  C_35
REMARK   29  A    between atoms: C_34  and  C_36
REMARK   30  A    between atoms: C_37  and  N_38
REMARK   31  A    between atoms: N_38  and  C_39
REMARK   32  A    between atoms: C_39  and  C_40
REMARK                            x       y       z     vdW  Elec       q    Type
REMARK                         _______ _______ _______ _____ _____    ______ ____
ROOT
ATOM      1  C   UNL     1     147.155 168.933 190.875  0.00  0.00    +0.108 C 
ATOM      2  H   UNL     1     146.369 169.113 191.619  0.00  0.00    +0.074 HD
ENDROOT
BRANCH   1   3
ATOM      3  C   UNL     1     148.388 168.388 191.620  0.00  0.00    -0.015 C 
ATOM      4  H   UNL     1     148.900 167.630 191.018  0.00  0.00    +0.030 HD
ATOM      5  H   UNL     1     149.086 169.209 191.791  0.00  0.00    +0.030 HD
BRANCH   3   6
ATOM      6  C   UNL     1     148.024 167.767 192.974  0.00  0.00    -0.045 C 
ATOM      7  H   UNL     1     148.365 168.410 193.792  0.00  0.00    +0.027 HD
ATOM      8  H   UNL     1     146.927 167.747 193.048  0.00  0.00    +0.027 HD
BRANCH   6   9
ATOM      9  C   UNL     1     148.555 166.325 193.165  0.00  0.00    -0.017 C 
ATOM     10  H   UNL     1     148.957 166.004 192.196  0.00  0.00    +0.032 HD
BRANCH   9  11
ATOM     11  C   UNL     1     147.372 165.391 193.472  0.00  0.00    -0.060 C 
ATOM     12  H   UNL     1     147.168 165.359 194.548  0.00  0.00    +0.023 HD
ATOM     13  H   UNL     1     146.458 165.705 192.956  0.00  0.00    +0.023 HD
ATOM     14  H   UNL     1     147.596 164.366 193.155  0.00  0.00    +0.023 HD
ENDBRANCH   9  11
BRANCH   9  15
ATOM     15  C   UNL     1     149.676 166.150 194.235  0.00  0.00    +0.064 C 
ATOM     16  H   UNL     1     149.825 167.120 194.721  0.00  0.00    +0.060 HD
BRANCH  15  17
ATOM     17  C   UNL     1     151.022 165.693 193.630  0.00  0.00    +0.011 C 
ATOM     18  H   UNL     1     151.827 166.002 194.310  0.00  0.00    +0.033 HD
ATOM     19  H   UNL     1     151.053 164.600 193.571  0.00  0.00    +0.033 HD
BRANCH  17  20
ATOM     20  C   UNL     1     151.360 166.255 192.228  0.00  0.00    +0.108 C 
ATOM     21  H   UNL     1     150.458 166.745 191.838  0.00  0.00    +0.074 HD
BRANCH  20  22
ATOM     22  C   UNL     1     152.504 167.300 192.204  0.00  0.00    -0.009 C 
ATOM     23  H   UNL     1     152.993 167.279 191.223  0.00  0.00    +0.033 HD
BRANCH  22  24
ATOM     24  C   UNL     1     151.948 168.722 192.374  0.00  0.00    -0.059 C 
ATOM     25  H   UNL     1     150.956 168.702 192.840  0.00  0.00    +0.023 HD
ATOM     26  H   UNL     1     151.855 169.226 191.406  0.00  0.00    +0.023 HD
ATOM     27  H   UNL     1     152.598 169.325 193.014  0.00  0.00    +0.023 HD
ENDBRANCH  22  24
BRANCH  22  28
ATOM     28  C   UNL     1     153.556 167.044 193.285  0.00  0.00    -0.059 C 
ATOM     29  H   UNL     1     153.866 167.982 193.763  0.00  0.00    +0.023 HD
ATOM     30  H   UNL     1     153.186 166.372 194.064  0.00  0.00    +0.023 HD
ATOM     31  H   UNL     1     154.448 166.574 192.855  0.00  0.00    +0.023 HD
ENDBRANCH  22  28
ENDBRANCH  20  22
BRANCH  20  32
ATOM     32  O   UNL     1     151.724 165.191 191.321  0.00  0.00    -0.461 OA
BRANCH  32  33
ATOM     33  C   UNL     1     151.566 165.441 189.991  0.00  0.00    +0.307 C 
ATOM     34  O   UNL     1     152.427 165.290 189.135  0.00  0.00    -0.251 OA
BRANCH  33  35
ATOM     35  C   UNL     1     150.166 165.943 189.728  0.00  0.00    +0.046 C 
ATOM     36  H   UNL     1     150.151 167.020 189.916  0.00  0.00    +0.038 HD
ATOM     37  H   UNL     1     149.483 165.452 190.430  0.00  0.00    +0.038 HD
BRANCH  35  38
ATOM     38  C   UNL     1     149.730 165.624 188.296  0.00  0.00    -0.031 C 
ATOM     39  H   UNL     1     150.391 164.862 187.863  0.00  0.00    +0.028 HD
ATOM     40  H   UNL     1     148.728 165.179 188.318  0.00  0.00    +0.028 HD
BRANCH  38  41
ATOM     41  C   UNL     1     149.700 166.857 187.395  0.00  0.00    -0.006 C 
ATOM     42  H   UNL     1     149.014 167.607 187.804  0.00  0.00    +0.042 HD
ATOM     43  H   UNL     1     149.327 166.576 186.402  0.00  0.00    +0.042 HD
BRANCH  41  44
ATOM     44  N   UNL     1     151.030 167.443 187.255  0.00  0.00    -0.330 NA
ATOM     45  H   UNL     1     151.689 166.711 186.984  0.00  0.00    +0.118 HD
ATOM     46  H   UNL     1     151.022 168.106 186.478  0.00  0.00    +0.118 HD
ENDBRANCH  41  44
ENDBRANCH  38  41
ENDBRANCH  35  38
ENDBRANCH  33  35
ENDBRANCH  32  33
ENDBRANCH  20  32
ENDBRANCH  17  20
ENDBRANCH  15  17
BRANCH  15  47
ATOM     47  O   UNL     1     149.303 165.197 195.240  0.00  0.00    -0.379 OA
BRANCH  47  48
ATOM     48  C   UNL     1     149.748 165.528 196.546  0.00  0.00    +0.037 C 
ATOM     49  H   UNL     1     149.234 164.919 197.295  0.00  0.00    +0.052 HD
ATOM     50  H   UNL     1     149.604 166.590 196.752  0.00  0.00    +0.052 HD
ATOM     51  H   UNL     1     150.818 165.305 196.606  0.00  0.00    +0.052 HD
ENDBRANCH  47  48
ENDBRANCH  15  47
ENDBRANCH   9  15
ENDBRANCH   6   9
ENDBRANCH   3   6
ENDBRANCH   1   3
BRANCH   1  52
ATOM     52  C   UNL     1     146.601 167.957 189.790  0.00  0.00    +0.020 C 
ATOM     53  H   UNL     1     147.309 167.118 189.740  0.00  0.00    +0.036 HD
BRANCH  52  54
ATOM     54  C   UNL     1     146.626 168.664 188.424  0.00  0.00    -0.057 C 
ATOM     55  H   UNL     1     145.936 168.178 187.723  0.00  0.00    +0.023 HD
ATOM     56  H   UNL     1     147.628 168.655 187.977  0.00  0.00    +0.023 HD
ATOM     57  H   UNL     1     146.304 169.706 188.508  0.00  0.00    +0.023 HD
ENDBRANCH  52  54
BRANCH  52  58
ATOM     58  C   UNL     1     145.200 167.354 190.133  0.00  0.00    +0.070 C 
ATOM     59  H   UNL     1     144.573 167.390 189.234  0.00  0.00    +0.061 HD
BRANCH  58  60
ATOM     60  C   UNL     1     145.239 165.863 190.600  0.00  0.00    +0.002 C 
ATOM     61  H   UNL     1     145.416 165.856 191.683  0.00  0.00    +0.037 HD
BRANCH  60  62
ATOM     62  C   UNL     1     143.955 165.113 190.294  0.00  0.00    -0.065 C 
ATOM     63  C   UNL     1     143.880 164.114 189.400  0.00  0.00    -0.005 C 
ATOM     64  H   UNL     1     143.079 165.446 190.847  0.00  0.00    +0.059 HD
ATOM     65  H   UNL     1     144.786 163.833 188.863  0.00  0.00    +0.078 HD
BRANCH  63  66
ATOM     66  N   UNL     1     142.746 163.390 189.067  0.00  0.00    -0.281 N 
ATOM     67  C   UNL     1     141.739 163.978 188.307  0.00  0.00    +0.206 C 
ATOM     68  O   UNL     1     140.675 163.465 187.981  0.00  0.00    -0.279 OA
ATOM     69  H   UNL     1     141.977 165.008 188.005  0.00  0.00    +0.126 HD
BRANCH  66  70
ATOM     70  C   UNL     1     142.524 162.017 189.520  0.00  0.00    +0.016 C 
ATOM     71  H   UNL     1     141.583 161.637 189.112  0.00  0.00    +0.047 HD
ATOM     72  H   UNL     1     142.400 162.014 190.610  0.00  0.00    +0.047 HD
BRANCH  70  73
ATOM     73  C   UNL     1     143.686 161.103 189.166  0.00  0.00    -0.049 C 
ATOM     74  H   UNL     1     143.395 160.047 189.225  0.00  0.00    +0.024 HD
ATOM     75  H   UNL     1     144.521 161.272 189.851  0.00  0.00    +0.024 HD
ATOM     76  H   UNL     1     144.031 161.291 188.145  0.00  0.00    +0.024 HD
ENDBRANCH  70  73
ENDBRANCH  66  70
ENDBRANCH  63  66
ENDBRANCH  60  62
BRANCH  60  77
ATOM     77  C   UNL     1     146.412 165.103 189.968  0.00  0.00    -0.057 C 
ATOM     78  H   UNL     1     146.591 165.409 188.931  0.00  0.00    +0.024 HD
ATOM     79  H   UNL     1     147.332 165.267 190.541  0.00  0.00    +0.024 HD
ATOM     80  H   UNL     1     146.216 164.024 189.963  0.00  0.00    +0.024 HD
ENDBRANCH  60  77
ENDBRANCH  58  60
BRANCH  58  81
ATOM     81  O   UNL     1     144.606 168.137 191.184  0.00  0.00    -0.379 OA
BRANCH  81  82
ATOM     82  C   UNL     1     143.419 168.817 190.800  0.00  0.00    +0.037 C 
ATOM     83  H   UNL     1     142.772 168.983 191.663  0.00  0.00    +0.052 HD
ATOM     84  H   UNL     1     143.650 169.768 190.314  0.00  0.00    +0.052 HD
ATOM     85  H   UNL     1     142.884 168.182 190.089  0.00  0.00    +0.052 HD
ENDBRANCH  81  82
ENDBRANCH  58  81
ENDBRANCH  52  58
ENDBRANCH   1  52
BRANCH   1  86
ATOM     86  O   UNL     1     147.539 170.193 190.285  0.00  0.00    -0.459 OA
BRANCH  86  88
ATOM     87  O   UNL     1     145.877 171.506 191.167  0.00  0.00    -0.248 OA
ATOM     88  C   UNL     1     147.052 171.319 190.876  0.00  0.00    +0.337 C 
BRANCH  88  89
ATOM     89  C   UNL     1     148.198 172.320 191.095  0.00  0.00    +0.155 C 
ATOM     90  O   UNL     1     149.461 171.666 191.308  0.00  0.00    -0.365 OA
ATOM     91  C   UNL     1     149.805 171.750 192.694  0.00  0.00    +0.049 C 
ATOM     92  C   UNL     1     148.613 172.337 193.418  0.00  0.00    -0.027 C 
ATOM     93  C   UNL     1     147.937 173.154 192.340  0.00  0.00    -0.014 C 
ATOM     94  H   UNL     1     148.288 172.938 190.193  0.00  0.00    +0.071 HD
ATOM     95  H   UNL     1     150.681 172.400 192.787  0.00  0.00    +0.056 HD
ATOM     96  H   UNL     1     150.067 170.756 193.066  0.00  0.00    +0.056 HD
ATOM     97  H   UNL     1     148.897 172.922 194.296  0.00  0.00    +0.029 HD
ATOM     98  H   UNL     1     147.943 171.536 193.753  0.00  0.00    +0.029 HD
ATOM     99  H   UNL     1     146.879 173.330 192.556  0.00  0.00    +0.030 HD
ATOM    100  H   UNL     1     148.442 174.127 192.247  0.00  0.00    +0.030 HD
ENDBRANCH  88  89
ENDBRANCH  86  88
ENDBRANCH   1  86
TORSDOF 32
ENDMDL
MODEL 3
REMARK VINA RESULT:      -5.0      1.335      2.213
REMARK  Name = 2a_conf1
REMARK  32 active torsions:
REMARK  status: ('A' for Active; 'I' for Inactive)
REMARK    1  A    between atoms: C_2  and  C_3
REMARK    2  A    between atoms: C_2  and  O_8
REMARK    3  A    between atoms: O_8  and  C_9
REMARK    4  A    between atoms: C_9  and  C_10
REMARK    5  A    between atoms: C_9  and  C_29
REMARK    6  A    between atoms: C_10  and  C_11
REMARK    7  A    between atoms: C_11  and  C_12
REMARK    8  A    between atoms: C_12  and  C_13
REMARK    9  A    between atoms: C_12  and  C_14
REMARK   10  A    between atoms: C_14  and  O_15
REMARK   11  A    between atoms: C_14  and  C_17
REMARK   12  A    between atoms: O_15  and  C_16
REMARK   13  A    between atoms: C_17  and  C_18
REMARK   14  A    between atoms: C_18  and  O_19
REMARK   15  A    between atoms: C_18  and  C_26
REMARK   16  A    between atoms: O_19  and  C_20
REMARK   17  A    between atoms: C_20  and  C_21
REMARK   18  A    between atoms: C_21  and  C_22
REMARK   19  A    between atoms: C_22  and  C_23
REMARK   20  A    between atoms: C_23  and  N_24
REMARK   21  A    between atoms: C_26  and  C_27
REMARK   22  A    between atoms: C_26  and  C_28
REMARK   23  A    between atoms: C_29  and  C_30
REMARK   24  A    between atoms: C_29  and  C_31
REMARK   25  A    between atoms: C_31  and  O_32
REMARK   26  A    between atoms: C_31  and  C_34
REMARK   27  A    between atoms: O_32  and  C_33
REMARK   28  A    between atoms: C_34  and  C_35
REMARK   29  A    between atoms: C_34  and  C_36
REMARK   30  A    between atoms: C_37  and  N_38
REMARK   31  A    between atoms: N_38  and  C_39
REMARK   32  A    between atoms: C_39  and  C_40
REMARK                            x       y       z     vdW  Elec       q    Type
REMARK                         _______ _______ _______ _____ _____    ______ ____
ROOT
ATOM      1  C   UNL     1     147.385 169.323 190.828  0.00  0.00    +0.108 C 
ATOM      2  H   UNL     1     146.415 169.255 191.335  0.00  0.00    +0.074 HD
ENDROOT
BRANCH   1   3
ATOM      3  C   UNL     1     148.481 169.062 191.880  0.00  0.00    -0.015 C 
ATOM      4  H   UNL     1     148.828 170.003 192.318  0.00  0.00    +0.030 HD
ATOM      5  H   UNL     1     148.059 168.454 192.682  0.00  0.00    +0.030 HD
BRANCH   3   6
ATOM      6  C   UNL     1     149.690 168.324 191.292  0.00  0.00    -0.045 C 
ATOM      7  H   UNL     1     149.433 167.283 191.077  0.00  0.00    +0.027 HD
ATOM      8  H   UNL     1     149.920 168.782 190.320  0.00  0.00    +0.027 HD
BRANCH   6   9
ATOM      9  C   UNL     1     150.958 168.395 192.179  0.00  0.00    -0.017 C 
ATOM     10  H   UNL     1     150.617 168.397 193.221  0.00  0.00    +0.032 HD
BRANCH   9  11
ATOM     11  C   UNL     1     151.655 169.746 191.950  0.00  0.00    -0.060 C 
ATOM     12  H   UNL     1     150.954 170.577 192.087  0.00  0.00    +0.023 HD
ATOM     13  H   UNL     1     152.500 169.891 192.632  0.00  0.00    +0.023 HD
ATOM     14  H   UNL     1     152.041 169.815 190.927  0.00  0.00    +0.023 HD
ENDBRANCH   9  11
BRANCH   9  15
ATOM     15  C   UNL     1     151.974 167.224 192.006  0.00  0.00    +0.064 C 
ATOM     16  H   UNL     1     152.798 167.589 191.384  0.00  0.00    +0.060 HD
BRANCH  15  17
ATOM     17  C   UNL     1     151.355 165.985 191.322  0.00  0.00    +0.011 C 
ATOM     18  H   UNL     1     151.347 165.160 192.047  0.00  0.00    +0.033 HD
ATOM     19  H   UNL     1     150.314 166.187 191.053  0.00  0.00    +0.033 HD
BRANCH  17  20
ATOM     20  C   UNL     1     152.083 165.477 190.054  0.00  0.00    +0.108 C 
ATOM     21  H   UNL     1     152.627 166.325 189.617  0.00  0.00    +0.074 HD
BRANCH  20  22
ATOM     22  C   UNL     1     153.114 164.345 190.303  0.00  0.00    -0.009 C 
ATOM     23  H   UNL     1     152.888 163.855 191.258  0.00  0.00    +0.033 HD
BRANCH  22  24
ATOM     24  C   UNL     1     153.001 163.257 189.226  0.00  0.00    -0.059 C 
ATOM     25  H   UNL     1     152.157 163.455 188.555  0.00  0.00    +0.023 HD
ATOM     26  H   UNL     1     152.849 162.271 189.677  0.00  0.00    +0.023 HD
ATOM     27  H   UNL     1     153.905 163.217 188.611  0.00  0.00    +0.023 HD
ENDBRANCH  22  24
BRANCH  22  28
ATOM     28  C   UNL     1     154.554 164.861 190.343  0.00  0.00    -0.059 C 
ATOM     29  H   UNL     1     154.684 165.603 191.141  0.00  0.00    +0.023 HD
ATOM     30  H   UNL     1     155.272 164.053 190.510  0.00  0.00    +0.023 HD
ATOM     31  H   UNL     1     154.823 165.335 189.392  0.00  0.00    +0.023 HD
ENDBRANCH  22  28
ENDBRANCH  20  22
BRANCH  20  32
ATOM     32  O   UNL     1     151.137 164.994 189.074  0.00  0.00    -0.461 OA
BRANCH  32  33
ATOM     33  C   UNL     1     150.591 165.925 188.243  0.00  0.00    +0.307 C 
ATOM     34  O   UNL     1     149.408 165.991 187.935  0.00  0.00    -0.251 OA
BRANCH  33  35
ATOM     35  C   UNL     1     151.666 166.862 187.747  0.00  0.00    +0.046 C 
ATOM     36  H   UNL     1     152.220 167.232 188.614  0.00  0.00    +0.038 HD
ATOM     37  H   UNL     1     151.184 167.710 187.247  0.00  0.00    +0.038 HD
BRANCH  35  38
ATOM     38  C   UNL     1     152.594 166.156 186.756  0.00  0.00    -0.031 C 
ATOM     39  H   UNL     1     152.453 165.068 186.819  0.00  0.00    +0.028 HD
ATOM     40  H   UNL     1     152.311 166.440 185.736  0.00  0.00    +0.028 HD
BRANCH  38  41
ATOM     41  C   UNL     1     154.066 166.501 186.971  0.00  0.00    -0.006 C 
ATOM     42  H   UNL     1     154.223 166.870 187.990  0.00  0.00    +0.042 HD
ATOM     43  H   UNL     1     154.358 167.304 186.281  0.00  0.00    +0.042 HD
BRANCH  41  44
ATOM     44  N   UNL     1     154.921 165.341 186.739  0.00  0.00    -0.330 NA
ATOM     45  H   UNL     1     155.077 164.859 187.626  0.00  0.00    +0.118 HD
ATOM     46  H   UNL     1     154.425 164.673 186.148  0.00  0.00    +0.118 HD
ENDBRANCH  41  44
ENDBRANCH  38  41
ENDBRANCH  35  38
ENDBRANCH  33  35
ENDBRANCH  32  33
ENDBRANCH  20  32
ENDBRANCH  17  20
ENDBRANCH  15  17
BRANCH  15  47
ATOM     47  O   UNL     1     152.514 166.803 193.265  0.00  0.00    -0.379 OA
BRANCH  47  48
ATOM     48  C   UNL     1     153.878 167.145 193.455  0.00  0.00    +0.037 C 
ATOM     49  H   UNL     1     154.529 166.439 192.932  0.00  0.00    +0.052 HD
ATOM     50  H   UNL     1     154.129 167.182 194.517  0.00  0.00    +0.052 HD
ATOM     51  H   UNL     1     154.041 168.137 193.025  0.00  0.00    +0.052 HD
ENDBRANCH  47  48
ENDBRANCH  15  47
ENDBRANCH   9  15
ENDBRANCH   6   9
ENDBRANCH   3   6
ENDBRANCH   1   3
BRANCH   1  52
ATOM     52  C   UNL     1     147.403 168.303 189.646  0.00  0.00    +0.020 C 
ATOM     53  H   UNL     1     148.374 167.791 189.695  0.00  0.00    +0.036 HD
BRANCH  52  54
ATOM     54  C   UNL     1     147.358 169.080 188.319  0.00  0.00    -0.057 C 
ATOM     55  H   UNL     1     148.366 169.190 187.899  0.00  0.00    +0.023 HD
ATOM     56  H   UNL     1     146.931 170.083 188.445  0.00  0.00    +0.023 HD
ATOM     57  H   UNL     1     146.762 168.553 187.568  0.00  0.00    +0.023 HD
ENDBRANCH  52  54
BRANCH  52  58
ATOM     58  C   UNL     1     146.299 167.202 189.740  0.00  0.00    +0.070 C 
ATOM     59  H   UNL     1     145.902 167.016 188.734  0.00  0.00    +0.061 HD
BRANCH  58  60
ATOM     60  C   UNL     1     146.806 165.829 190.287  0.00  0.00    +0.002 C 
ATOM     61  H   UNL     1     147.891 165.785 190.130  0.00  0.00    +0.037 HD
BRANCH  60  62
ATOM     62  C   UNL     1     146.501 165.630 191.761  0.00  0.00    -0.065 C 
ATOM     63  C   UNL     1     147.413 165.797 192.731  0.00  0.00    -0.005 C 
ATOM     64  H   UNL     1     145.479 165.330 191.988  0.00  0.00    +0.059 HD
ATOM     65  H   UNL     1     148.425 166.082 192.445  0.00  0.00    +0.078 HD
BRANCH  63  66
ATOM     66  N   UNL     1     147.209 165.629 194.093  0.00  0.00    -0.281 N 
ATOM     67  C   UNL     1     146.021 165.070 194.558  0.00  0.00    +0.206 C 
ATOM     68  O   UNL     1     145.700 164.907 195.730  0.00  0.00    -0.279 OA
ATOM     69  H   UNL     1     145.341 164.773 193.747  0.00  0.00    +0.126 HD
BRANCH  66  70
ATOM     70  C   UNL     1     148.182 166.059 195.096  0.00  0.00    +0.016 C 
ATOM     71  H   UNL     1     147.929 165.628 196.070  0.00  0.00    +0.047 HD
ATOM     72  H   UNL     1     148.110 167.146 195.223  0.00  0.00    +0.047 HD
BRANCH  70  73
ATOM     73  C   UNL     1     149.607 165.714 194.696  0.00  0.00    -0.049 C 
ATOM     74  H   UNL     1     149.636 165.188 193.735  0.00  0.00    +0.024 HD
ATOM     75  H   UNL     1     150.068 165.076 195.456  0.00  0.00    +0.024 HD
ATOM     76  H   UNL     1     150.210 166.621 194.592  0.00  0.00    +0.024 HD
ENDBRANCH  70  73
ENDBRANCH  66  70
ENDBRANCH  63  66
ENDBRANCH  60  62
BRANCH  60  77
ATOM     77  C   UNL     1     146.212 164.652 189.502  0.00  0.00    -0.057 C 
ATOM     78  H   UNL     1     145.322 164.238 189.990  0.00  0.00    +0.024 HD
ATOM     79  H   UNL     1     145.937 164.965 188.488  0.00  0.00    +0.024 HD
ATOM     80  H   UNL     1     146.942 163.840 189.409  0.00  0.00    +0.024 HD
ENDBRANCH  60  77
ENDBRANCH  58  60
BRANCH  58  81
ATOM     81  O   UNL     1     145.252 167.671 190.608  0.00  0.00    -0.379 OA
BRANCH  81  82
ATOM     82  C   UNL     1     144.011 167.891 189.953  0.00  0.00    +0.037 C 
ATOM     83  H   UNL     1     143.226 167.274 190.393  0.00  0.00    +0.052 HD
ATOM     84  H   UNL     1     143.726 168.946 189.993  0.00  0.00    +0.052 HD
ATOM     85  H   UNL     1     144.128 167.600 188.905  0.00  0.00    +0.052 HD
ENDBRANCH  81  82
ENDBRANCH  58  81
ENDBRANCH  52  58
ENDBRANCH   1  52
BRANCH   1  86
ATOM     86  O   UNL     1     147.571 170.671 190.349  0.00  0.00    -0.459 OA
BRANCH  86  88
ATOM     87  O   UNL     1     145.572 171.532 191.075  0.00  0.00    -0.248 OA
ATOM     88  C   UNL     1     146.780 171.632 190.902  0.00  0.00    +0.337 C 
BRANCH  88  89
ATOM     89  C   UNL     1     147.635 172.861 191.251  0.00  0.00    +0.155 C 
ATOM     90  O   UNL     1     149.039 172.553 191.303  0.00  0.00    -0.365 OA
ATOM     91  C   UNL     1     149.460 172.508 192.669  0.00  0.00    +0.049 C 
ATOM     92  C   UNL     1     148.218 172.624 193.526  0.00  0.00    -0.027 C 
ATOM     93  C   UNL     1     147.266 173.383 192.631  0.00  0.00    -0.014 C 
ATOM     94  H   UNL     1     147.485 173.614 190.468  0.00  0.00    +0.071 HD
ATOM     95  H   UNL     1     150.138 173.349 192.842  0.00  0.00    +0.056 HD
ATOM     96  H   UNL     1     150.005 171.578 192.852  0.00  0.00    +0.056 HD
ATOM     97  H   UNL     1     148.408 173.118 194.482  0.00  0.00    +0.029 HD
ATOM     98  H   UNL     1     147.814 171.628 193.740  0.00  0.00    +0.029 HD
ATOM     99  H   UNL     1     146.220 173.227 192.912  0.00  0.00    +0.030 HD
ATOM    100  H   UNL     1     147.486 174.459 192.691  0.00  0.00    +0.030 HD
ENDBRANCH  88  89
ENDBRANCH  86  88
ENDBRANCH   1  86
TORSDOF 32
ENDMDL
MODEL 4
REMARK VINA RESULT:      -4.9      3.382      7.620
REMARK  Name = 2a_conf1
REMARK  32 active torsions:
REMARK  status: ('A' for Active; 'I' for Inactive)
REMARK    1  A    between atoms: C_2  and  C_3
REMARK    2  A    between atoms: C_2  and  O_8
REMARK    3  A    between atoms: O_8  and  C_9
REMARK    4  A    between atoms: C_9  and  C_10
REMARK    5  A    between atoms: C_9  and  C_29
REMARK    6  A    between atoms: C_10  and  C_11
REMARK    7  A    between atoms: C_11  and  C_12
REMARK    8  A    between atoms: C_12  and  C_13
REMARK    9  A    between atoms: C_12  and  C_14
REMARK   10  A    between atoms: C_14  and  O_15
REMARK   11  A    between atoms: C_14  and  C_17
REMARK   12  A    between atoms: O_15  and  C_16
REMARK   13  A    between atoms: C_17  and  C_18
REMARK   14  A    between atoms: C_18  and  O_19
REMARK   15  A    between atoms: C_18  and  C_26
REMARK   16  A    between atoms: O_19  and  C_20
REMARK   17  A    between atoms: C_20  and  C_21
REMARK   18  A    between atoms: C_21  and  C_22
REMARK   19  A    between atoms: C_22  and  C_23
REMARK   20  A    between atoms: C_23  and  N_24
REMARK   21  A    between atoms: C_26  and  C_27
REMARK   22  A    between atoms: C_26  and  C_28
REMARK   23  A    between atoms: C_29  and  C_30
REMARK   24  A    between atoms: C_29  and  C_31
REMARK   25  A    between atoms: C_31  and  O_32
REMARK   26  A    between atoms: C_31  and  C_34
REMARK   27  A    between atoms: O_32  and  C_33
REMARK   28  A    between atoms: C_34  and  C_35
REMARK   29  A    between atoms: C_34  and  C_36
REMARK   30  A    between atoms: C_37  and  N_38
REMARK   31  A    between atoms: N_38  and  C_39
REMARK   32  A    between atoms: C_39  and  C_40
REMARK                            x       y       z     vdW  Elec       q    Type
REMARK                         _______ _______ _______ _____ _____    ______ ____
ROOT
ATOM      1  C   UNL     1     147.015 168.878 190.047  0.00  0.00    +0.108 C 
ATOM      2  H   UNL     1     146.458 168.778 190.987  0.00  0.00    +0.074 HD
ENDROOT
BRANCH   1   3
ATOM      3  C   UNL     1     147.563 167.486 189.678  0.00  0.00    -0.015 C 
ATOM      4  H   UNL     1     146.834 166.928 189.082  0.00  0.00    +0.030 HD
ATOM      5  H   UNL     1     148.464 167.612 189.076  0.00  0.00    +0.030 HD
BRANCH   3   6
ATOM      6  C   UNL     1     147.918 166.652 190.917  0.00  0.00    -0.045 C 
ATOM      7  H   UNL     1     147.329 166.982 191.779  0.00  0.00    +0.027 HD
ATOM      8  H   UNL     1     147.606 165.616 190.721  0.00  0.00    +0.027 HD
BRANCH   6   9
ATOM      9  C   UNL     1     149.427 166.654 191.261  0.00  0.00    -0.017 C 
ATOM     10  H   UNL     1     149.717 167.700 191.414  0.00  0.00    +0.032 HD
BRANCH   9  11
ATOM     11  C   UNL     1     150.221 166.160 190.041  0.00  0.00    -0.060 C 
ATOM     12  H   UNL     1     150.802 166.976 189.595  0.00  0.00    +0.023 HD
ATOM     13  H   UNL     1     150.909 165.348 190.300  0.00  0.00    +0.023 HD
ATOM     14  H   UNL     1     149.545 165.785 189.264  0.00  0.00    +0.023 HD
ENDBRANCH   9  11
BRANCH   9  15
ATOM     15  C   UNL     1     149.834 165.849 192.534  0.00  0.00    +0.064 C 
ATOM     16  H   UNL     1     149.327 164.879 192.490  0.00  0.00    +0.060 HD
BRANCH  15  17
ATOM     17  C   UNL     1     149.430 166.554 193.848  0.00  0.00    +0.011 C 
ATOM     18  H   UNL     1     150.334 166.696 194.454  0.00  0.00    +0.033 HD
ATOM     19  H   UNL     1     149.029 167.549 193.631  0.00  0.00    +0.033 HD
BRANCH  17  20
ATOM     20  C   UNL     1     148.397 165.807 194.727  0.00  0.00    +0.108 C 
ATOM     21  H   UNL     1     148.315 164.780 194.348  0.00  0.00    +0.074 HD
BRANCH  20  22
ATOM     22  C   UNL     1     148.765 165.718 196.230  0.00  0.00    -0.009 C 
ATOM     23  H   UNL     1     148.457 164.740 196.620  0.00  0.00    +0.033 HD
BRANCH  22  24
ATOM     24  C   UNL     1     150.285 165.798 196.426  0.00  0.00    -0.059 C 
ATOM     25  H   UNL     1     150.643 166.827 196.308  0.00  0.00    +0.023 HD
ATOM     26  H   UNL     1     150.810 165.174 195.694  0.00  0.00    +0.023 HD
ATOM     27  H   UNL     1     150.572 165.465 197.428  0.00  0.00    +0.023 HD
ENDBRANCH  22  24
BRANCH  22  28
ATOM     28  C   UNL     1     148.097 166.813 197.064  0.00  0.00    -0.059 C 
ATOM     29  H   UNL     1     147.885 167.700 196.453  0.00  0.00    +0.023 HD
ATOM     30  H   UNL     1     147.156 166.473 197.506  0.00  0.00    +0.023 HD
ATOM     31  H   UNL     1     148.745 167.121 197.893  0.00  0.00    +0.023 HD
ENDBRANCH  22  28
ENDBRANCH  20  22
BRANCH  20  32
ATOM     32  O   UNL     1     147.096 166.429 194.633  0.00  0.00    -0.461 OA
BRANCH  32  33
ATOM     33  C   UNL     1     146.044 165.606 194.365  0.00  0.00    +0.307 C 
ATOM     34  O   UNL     1     145.839 164.523 194.897  0.00  0.00    -0.251 OA
BRANCH  33  35
ATOM     35  C   UNL     1     145.167 166.226 193.304  0.00  0.00    +0.046 C 
ATOM     36  H   UNL     1     145.370 165.719 192.357  0.00  0.00    +0.038 HD
ATOM     37  H   UNL     1     145.438 167.284 193.204  0.00  0.00    +0.038 HD
BRANCH  35  38
ATOM     38  C   UNL     1     143.689 166.120 193.683  0.00  0.00    -0.031 C 
ATOM     39  H   UNL     1     143.579 165.538 194.608  0.00  0.00    +0.028 HD
ATOM     40  H   UNL     1     143.303 167.121 193.908  0.00  0.00    +0.028 HD
BRANCH  38  41
ATOM     41  C   UNL     1     142.834 165.502 192.578  0.00  0.00    -0.006 C 
ATOM     42  H   UNL     1     142.699 164.431 192.759  0.00  0.00    +0.042 HD
ATOM     43  H   UNL     1     143.347 165.612 191.614  0.00  0.00    +0.042 HD
BRANCH  41  44
ATOM     44  N   UNL     1     141.527 166.148 192.497  0.00  0.00    -0.330 NA
ATOM     45  H   UNL     1     141.623 167.032 191.994  0.00  0.00    +0.118 HD
ATOM     46  H   UNL     1     140.906 165.574 191.925  0.00  0.00    +0.118 HD
ENDBRANCH  41  44
ENDBRANCH  38  41
ENDBRANCH  35  38
ENDBRANCH  33  35
ENDBRANCH  32  33
ENDBRANCH  20  32
ENDBRANCH  17  20
ENDBRANCH  15  17
BRANCH  15  47
ATOM     47  O   UNL     1     151.248 165.615 192.582  0.00  0.00    -0.379 OA
BRANCH  47  48
ATOM     48  C   UNL     1     151.980 166.625 193.260  0.00  0.00    +0.037 C 
ATOM     49  H   UNL     1     153.013 166.307 193.426  0.00  0.00    +0.052 HD
ATOM     50  H   UNL     1     151.504 166.885 194.207  0.00  0.00    +0.052 HD
ATOM     51  H   UNL     1     151.997 167.515 192.624  0.00  0.00    +0.052 HD
ENDBRANCH  47  48
ENDBRANCH  15  47
ENDBRANCH   9  15
ENDBRANCH   6   9
ENDBRANCH   3   6
ENDBRANCH   1   3
BRANCH   1  52
ATOM     52  C   UNL     1     146.064 169.478 188.965  0.00  0.00    +0.020 C 
ATOM     53  H   UNL     1     145.186 168.819 188.926  0.00  0.00    +0.036 HD
BRANCH  52  54
ATOM     54  C   UNL     1     146.759 169.403 187.595  0.00  0.00    -0.057 C 
ATOM     55  H   UNL     1     147.327 168.469 187.498  0.00  0.00    +0.023 HD
ATOM     56  H   UNL     1     147.452 170.239 187.440  0.00  0.00    +0.023 HD
ATOM     57  H   UNL     1     146.033 169.413 186.777  0.00  0.00    +0.023 HD
ENDBRANCH  52  54
BRANCH  52  58
ATOM     58  C   UNL     1     145.545 170.914 189.301  0.00  0.00    +0.070 C 
ATOM     59  H   UNL     1     146.294 171.644 188.971  0.00  0.00    +0.061 HD
BRANCH  58  60
ATOM     60  C   UNL     1     144.202 171.292 188.596  0.00  0.00    +0.002 C 
ATOM     61  H   UNL     1     143.595 171.858 189.314  0.00  0.00    +0.037 HD
BRANCH  60  62
ATOM     62  C   UNL     1     144.405 172.122 187.342  0.00  0.00    -0.065 C 
ATOM     63  C   UNL     1     145.557 172.747 187.050  0.00  0.00    -0.005 C 
ATOM     64  H   UNL     1     143.541 172.188 186.683  0.00  0.00    +0.059 HD
ATOM     65  H   UNL     1     146.385 172.659 187.753  0.00  0.00    +0.078 HD
BRANCH  63  66
ATOM     66  N   UNL     1     145.812 173.523 185.929  0.00  0.00    -0.281 N 
ATOM     67  C   UNL     1     146.165 174.862 186.072  0.00  0.00    +0.206 C 
ATOM     68  O   UNL     1     146.375 175.663 185.168  0.00  0.00    -0.279 OA
ATOM     69  H   UNL     1     146.240 175.175 187.123  0.00  0.00    +0.126 HD
BRANCH  66  70
ATOM     70  C   UNL     1     145.685 173.009 184.567  0.00  0.00    +0.016 C 
ATOM     71  H   UNL     1     145.912 173.800 183.846  0.00  0.00    +0.047 HD
ATOM     72  H   UNL     1     144.639 172.730 184.384  0.00  0.00    +0.047 HD
BRANCH  70  73
ATOM     73  C   UNL     1     146.556 171.785 184.332  0.00  0.00    -0.049 C 
ATOM     74  H   UNL     1     147.555 172.068 183.979  0.00  0.00    +0.024 HD
ATOM     75  H   UNL     1     146.095 171.131 183.586  0.00  0.00    +0.024 HD
ATOM     76  H   UNL     1     146.684 171.218 185.259  0.00  0.00    +0.024 HD
ENDBRANCH  70  73
ENDBRANCH  66  70
ENDBRANCH  63  66
ENDBRANCH  60  62
BRANCH  60  77
ATOM     77  C   UNL     1     143.384 170.047 188.231  0.00  0.00    -0.057 C 
ATOM     78  H   UNL     1     142.329 170.284 188.056  0.00  0.00    +0.024 HD
ATOM     79  H   UNL     1     143.786 169.572 187.329  0.00  0.00    +0.024 HD
ATOM     80  H   UNL     1     143.424 169.306 189.039  0.00  0.00    +0.024 HD
ENDBRANCH  60  77
ENDBRANCH  58  60
BRANCH  58  81
ATOM     81  O   UNL     1     145.347 171.012 190.723  0.00  0.00    -0.379 OA
BRANCH  81  82
ATOM     82  C   UNL     1     144.855 172.273 191.154  0.00  0.00    +0.037 C 
ATOM     83  H   UNL     1     145.650 173.021 191.150  0.00  0.00    +0.052 HD
ATOM     84  H   UNL     1     144.023 172.606 190.527  0.00  0.00    +0.052 HD
ATOM     85  H   UNL     1     144.496 172.161 192.180  0.00  0.00    +0.052 HD
ENDBRANCH  81  82
ENDBRANCH  58  81
ENDBRANCH  52  58
ENDBRANCH   1  52
BRANCH   1  86
ATOM     86  O   UNL     1     148.154 169.736 190.266  0.00  0.00    -0.459 OA
BRANCH  86  88
ATOM     87  O   UNL     1     147.866 169.628 192.540  0.00  0.00    -0.248 OA
ATOM     88  C   UNL     1     148.391 170.122 191.551  0.00  0.00    +0.337 C 
BRANCH  88  89
ATOM     89  C   UNL     1     149.399 171.283 191.559  0.00  0.00    +0.155 C 
ATOM     90  O   UNL     1     150.032 171.449 192.840  0.00  0.00    -0.365 OA
ATOM     91  C   UNL     1     149.481 172.596 193.492  0.00  0.00    +0.049 C 
ATOM     92  C   UNL     1     148.318 173.076 192.649  0.00  0.00    -0.027 C 
ATOM     93  C   UNL     1     148.690 172.597 191.265  0.00  0.00    -0.014 C 
ATOM     94  H   UNL     1     150.182 171.061 190.824  0.00  0.00    +0.071 HD
ATOM     95  H   UNL     1     150.263 173.359 193.555  0.00  0.00    +0.056 HD
ATOM     96  H   UNL     1     149.174 172.327 194.506  0.00  0.00    +0.056 HD
ATOM     97  H   UNL     1     148.168 174.156 192.712  0.00  0.00    +0.029 HD
ATOM     98  H   UNL     1     147.391 172.590 192.975  0.00  0.00    +0.029 HD
ATOM     99  H   UNL     1     147.818 172.507 190.610  0.00  0.00    +0.030 HD
ATOM    100  H   UNL     1     149.398 173.306 190.810  0.00  0.00    +0.030 HD
ENDBRANCH  88  89
ENDBRANCH  86  88
ENDBRANCH   1  86
TORSDOF 32
ENDMDL
MODEL 5
REMARK VINA RESULT:      -4.9      2.318      8.079
REMARK  Name = 2a_conf1
REMARK  32 active torsions:
REMARK  status: ('A' for Active; 'I' for Inactive)
REMARK    1  A    between atoms: C_2  and  C_3
REMARK    2  A    between atoms: C_2  and  O_8
REMARK    3  A    between atoms: O_8  and  C_9
REMARK    4  A    between atoms: C_9  and  C_10
REMARK    5  A    between atoms: C_9  and  C_29
REMARK    6  A    between atoms: C_10  and  C_11
REMARK    7  A    between atoms: C_11  and  C_12
REMARK    8  A    between atoms: C_12  and  C_13
REMARK    9  A    between atoms: C_12  and  C_14
REMARK   10  A    between atoms: C_14  and  O_15
REMARK   11  A    between atoms: C_14  and  C_17
REMARK   12  A    between atoms: O_15  and  C_16
REMARK   13  A    between atoms: C_17  and  C_18
REMARK   14  A    between atoms: C_18  and  O_19
REMARK   15  A    between atoms: C_18  and  C_26
REMARK   16  A    between atoms: O_19  and  C_20
REMARK   17  A    between atoms: C_20  and  C_21
REMARK   18  A    between atoms: C_21  and  C_22
REMARK   19  A    between atoms: C_22  and  C_23
REMARK   20  A    between atoms: C_23  and  N_24
REMARK   21  A    between atoms: C_26  and  C_27
REMARK   22  A    between atoms: C_26  and  C_28
REMARK   23  A    between atoms: C_29  and  C_30
REMARK   24  A    between atoms: C_29  and  C_31
REMARK   25  A    between atoms: C_31  and  O_32
REMARK   26  A    between atoms: C_31  and  C_34
REMARK   27  A    between atoms: O_32  and  C_33
REMARK   28  A    between atoms: C_34  and  C_35
REMARK   29  A    between atoms: C_34  and  C_36
REMARK   30  A    between atoms: C_37  and  N_38
REMARK   31  A    between atoms: N_38  and  C_39
REMARK   32  A    between atoms: C_39  and  C_40
REMARK                            x       y       z     vdW  Elec       q    Type
REMARK                         _______ _______ _______ _____ _____    ______ ____
ROOT
ATOM      1  C   UNL     1     150.823 165.558 189.265  0.00  0.00    +0.108 C 
ATOM      2  H   UNL     1     151.070 164.695 189.895  0.00  0.00    +0.074 HD
ENDROOT
BRANCH   1   3
ATOM      3  C   UNL     1     149.347 165.918 189.522  0.00  0.00    -0.015 C 
ATOM      4  H   UNL     1     148.716 165.577 188.696  0.00  0.00    +0.030 HD
ATOM      5  H   UNL     1     149.016 165.410 190.430  0.00  0.00    +0.030 HD
BRANCH   3   6
ATOM      6  C   UNL     1     149.138 167.427 189.703  0.00  0.00    -0.045 C 
ATOM      7  H   UNL     1     149.600 167.766 190.635  0.00  0.00    +0.027 HD
ATOM      8  H   UNL     1     149.682 167.938 188.897  0.00  0.00    +0.027 HD
BRANCH   6   9
ATOM      9  C   UNL     1     147.653 167.863 189.646  0.00  0.00    -0.017 C 
ATOM     10  H   UNL     1     147.056 166.948 189.562  0.00  0.00    +0.032 HD
BRANCH   9  11
ATOM     11  C   UNL     1     147.412 168.657 188.352  0.00  0.00    -0.060 C 
ATOM     12  H   UNL     1     148.342 168.766 187.781  0.00  0.00    +0.023 HD
ATOM     13  H   UNL     1     146.667 168.176 187.709  0.00  0.00    +0.023 HD
ATOM     14  H   UNL     1     147.052 169.667 188.577  0.00  0.00    +0.023 HD
ENDBRANCH   9  11
BRANCH   9  15
ATOM     15  C   UNL     1     147.134 168.666 190.879  0.00  0.00    +0.064 C 
ATOM     16  H   UNL     1     146.511 169.486 190.503  0.00  0.00    +0.060 HD
BRANCH  15  17
ATOM     17  C   UNL     1     148.273 169.268 191.731  0.00  0.00    +0.011 C 
ATOM     18  H   UNL     1     148.203 168.850 192.744  0.00  0.00    +0.033 HD
ATOM     19  H   UNL     1     149.243 168.965 191.325  0.00  0.00    +0.033 HD
BRANCH  17  20
ATOM     20  C   UNL     1     148.275 170.810 191.868  0.00  0.00    +0.108 C 
ATOM     21  H   UNL     1     147.607 171.073 192.698  0.00  0.00    +0.074 HD
BRANCH  20  22
ATOM     22  C   UNL     1     149.661 171.435 192.173  0.00  0.00    -0.009 C 
ATOM     23  H   UNL     1     149.954 172.087 191.341  0.00  0.00    +0.033 HD
BRANCH  22  24
ATOM     24  C   UNL     1     149.593 172.332 193.417  0.00  0.00    -0.059 C 
ATOM     25  H   UNL     1     148.577 172.362 193.825  0.00  0.00    +0.023 HD
ATOM     26  H   UNL     1     149.891 173.359 193.179  0.00  0.00    +0.023 HD
ATOM     27  H   UNL     1     150.252 171.959 194.207  0.00  0.00    +0.023 HD
ENDBRANCH  22  24
BRANCH  22  28
ATOM     28  C   UNL     1     150.749 170.379 192.378  0.00  0.00    -0.059 C 
ATOM     29  H   UNL     1     150.322 169.368 192.377  0.00  0.00    +0.023 HD
ATOM     30  H   UNL     1     151.515 170.425 191.598  0.00  0.00    +0.023 HD
ATOM     31  H   UNL     1     151.260 170.529 193.336  0.00  0.00    +0.023 HD
ENDBRANCH  22  28
ENDBRANCH  20  22
BRANCH  20  32
ATOM     32  O   UNL     1     147.771 171.434 190.666  0.00  0.00    -0.461 OA
BRANCH  32  33
ATOM     33  C   UNL     1     146.510 171.946 190.726  0.00  0.00    +0.307 C 
ATOM     34  O   UNL     1     145.961 172.356 191.740  0.00  0.00    -0.251 OA
BRANCH  33  35
ATOM     35  C   UNL     1     145.883 171.924 189.353  0.00  0.00    +0.046 C 
ATOM     36  H   UNL     1     146.407 171.175 188.753  0.00  0.00    +0.038 HD
ATOM     37  H   UNL     1     146.023 172.908 188.892  0.00  0.00    +0.038 HD
BRANCH  35  38
ATOM     38  C   UNL     1     144.387 171.617 189.439  0.00  0.00    -0.031 C 
ATOM     39  H   UNL     1     143.922 172.230 190.223  0.00  0.00    +0.028 HD
ATOM     40  H   UNL     1     143.906 171.913 188.499  0.00  0.00    +0.028 HD
BRANCH  38  41
ATOM     41  C   UNL     1     144.096 170.140 189.694  0.00  0.00    -0.006 C 
ATOM     42  H   UNL     1     144.952 169.528 189.391  0.00  0.00    +0.042 HD
ATOM     43  H   UNL     1     143.235 169.826 189.090  0.00  0.00    +0.042 HD
BRANCH  41  44
ATOM     44  N   UNL     1     143.801 169.894 191.103  0.00  0.00    -0.330 NA
ATOM     45  H   UNL     1     144.623 169.486 191.550  0.00  0.00    +0.118 HD
ATOM     46  H   UNL     1     143.649 170.787 191.573  0.00  0.00    +0.118 HD
ENDBRANCH  41  44
ENDBRANCH  38  41
ENDBRANCH  35  38
ENDBRANCH  33  35
ENDBRANCH  32  33
ENDBRANCH  20  32
ENDBRANCH  17  20
ENDBRANCH  15  17
BRANCH  15  47
ATOM     47  O   UNL     1     146.329 167.850 191.740  0.00  0.00    -0.379 OA
BRANCH  47  48
ATOM     48  C   UNL     1     145.791 166.698 191.111  0.00  0.00    +0.037 C 
ATOM     49  H   UNL     1     146.489 166.302 190.369  0.00  0.00    +0.052 HD
ATOM     50  H   UNL     1     144.826 166.918 190.649  0.00  0.00    +0.052 HD
ATOM     51  H   UNL     1     145.641 165.933 191.878  0.00  0.00    +0.052 HD
ENDBRANCH  47  48
ENDBRANCH  15  47
ENDBRANCH   9  15
ENDBRANCH   6   9
ENDBRANCH   3   6
ENDBRANCH   1   3
BRANCH   1  52
ATOM     52  C   UNL     1     151.813 166.719 189.598  0.00  0.00    +0.020 C 
ATOM     53  H   UNL     1     151.196 167.566 189.925  0.00  0.00    +0.036 HD
BRANCH  52  54
ATOM     54  C   UNL     1     152.533 167.144 188.307  0.00  0.00    -0.057 C 
ATOM     55  H   UNL     1     152.154 168.110 187.951  0.00  0.00    +0.023 HD
ATOM     56  H   UNL     1     152.401 166.410 187.503  0.00  0.00    +0.023 HD
ATOM     57  H   UNL     1     153.607 167.271 188.472  0.00  0.00    +0.023 HD
ENDBRANCH  52  54
BRANCH  52  58
ATOM     58  C   UNL     1     152.803 166.395 190.763  0.00  0.00    +0.070 C 
ATOM     59  H   UNL     1     153.809 166.717 190.469  0.00  0.00    +0.061 HD
BRANCH  58  60
ATOM     60  C   UNL     1     152.471 167.120 192.107  0.00  0.00    +0.002 C 
ATOM     61  H   UNL     1     152.423 168.198 191.904  0.00  0.00    +0.037 HD
BRANCH  60  62
ATOM     62  C   UNL     1     151.158 166.663 192.718  0.00  0.00    -0.065 C 
ATOM     63  C   UNL     1     151.072 166.063 193.915  0.00  0.00    -0.005 C 
ATOM     64  H   UNL     1     150.274 166.849 192.111  0.00  0.00    +0.059 HD
ATOM     65  H   UNL     1     151.992 165.888 194.473  0.00  0.00    +0.078 HD
BRANCH  63  66
ATOM     66  N   UNL     1     149.913 165.616 194.532  0.00  0.00    -0.281 N 
ATOM     67  C   UNL     1     148.770 165.366 193.777  0.00  0.00    +0.206 C 
ATOM     68  O   UNL     1     147.677 165.011 194.201  0.00  0.00    -0.279 OA
ATOM     69  H   UNL     1     148.925 165.529 192.700  0.00  0.00    +0.126 HD
BRANCH  66  70
ATOM     70  C   UNL     1     149.810 165.429 195.979  0.00  0.00    +0.016 C 
ATOM     71  H   UNL     1     148.768 165.246 196.259  0.00  0.00    +0.047 HD
ATOM     72  H   UNL     1     150.095 166.362 196.482  0.00  0.00    +0.047 HD
BRANCH  70  73
ATOM     73  C   UNL     1     150.717 164.316 196.479  0.00  0.00    -0.049 C 
ATOM     74  H   UNL     1     150.136 163.472 196.868  0.00  0.00    +0.024 HD
ATOM     75  H   UNL     1     151.366 164.689 197.277  0.00  0.00    +0.024 HD
ATOM     76  H   UNL     1     151.346 163.936 195.669  0.00  0.00    +0.024 HD
ENDBRANCH  70  73
ENDBRANCH  66  70
ENDBRANCH  63  66
ENDBRANCH  60  62
BRANCH  60  77
ATOM     77  C   UNL     1     153.585 166.928 193.144  0.00  0.00    -0.057 C 
ATOM     78  H   UNL     1     154.388 166.283 192.771  0.00  0.00    +0.024 HD
ATOM     79  H   UNL     1     154.020 167.894 193.426  0.00  0.00    +0.024 HD
ATOM     80  H   UNL     1     153.190 166.466 194.057  0.00  0.00    +0.024 HD
ENDBRANCH  60  77
ENDBRANCH  58  60
BRANCH  58  81
ATOM     81  O   UNL     1     152.784 164.977 191.004  0.00  0.00    -0.379 OA
BRANCH  81  82
ATOM     82  C   UNL     1     153.929 164.292 190.514  0.00  0.00    +0.037 C 
ATOM     83  H   UNL     1     153.756 163.214 190.494  0.00  0.00    +0.052 HD
ATOM     84  H   UNL     1     154.204 164.647 189.518  0.00  0.00    +0.052 HD
ATOM     85  H   UNL     1     154.758 164.492 191.198  0.00  0.00    +0.052 HD
ENDBRANCH  81  82
ENDBRANCH  58  81
ENDBRANCH  52  58
ENDBRANCH   1  52
BRANCH   1  86
ATOM     86  O   UNL     1     150.929 165.173 187.879  0.00  0.00    -0.459 OA
BRANCH  86  88
ATOM     87  O   UNL     1     151.397 162.952 188.214  0.00  0.00    -0.248 OA
ATOM     88  C   UNL     1     150.822 163.843 187.603  0.00  0.00    +0.337 C 
BRANCH  88  89
ATOM     89  C   UNL     1     149.889 163.643 186.397  0.00  0.00    +0.155 C 
ATOM     90  O   UNL     1     149.144 164.832 186.080  0.00  0.00    -0.365 OA
ATOM     91  C   UNL     1     147.789 164.665 186.507  0.00  0.00    +0.049 C 
ATOM     92  C   UNL     1     147.721 163.371 187.289  0.00  0.00    -0.027 C 
ATOM     93  C   UNL     1     148.859 162.567 186.703  0.00  0.00    -0.014 C 
ATOM     94  H   UNL     1     150.506 163.392 185.526  0.00  0.00    +0.071 HD
ATOM     95  H   UNL     1     147.156 164.621 185.616  0.00  0.00    +0.056 HD
ATOM     96  H   UNL     1     147.487 165.528 187.107  0.00  0.00    +0.056 HD
ATOM     97  H   UNL     1     146.750 162.878 187.207  0.00  0.00    +0.029 HD
ATOM     98  H   UNL     1     147.910 163.563 188.352  0.00  0.00    +0.029 HD
ATOM     99  H   UNL     1     149.206 161.784 187.383  0.00  0.00    +0.030 HD
ATOM    100  H   UNL     1     148.528 162.095 185.766  0.00  0.00    +0.030 HD
ENDBRANCH  88  89
ENDBRANCH  86  88
ENDBRANCH   1  86
TORSDOF 32
ENDMDL
MODEL 6
REMARK VINA RESULT:      -4.9      3.505      7.028
REMARK  Name = 2a_conf1
REMARK  32 active torsions:
REMARK  status: ('A' for Active; 'I' for Inactive)
REMARK    1  A    between atoms: C_2  and  C_3
REMARK    2  A    between atoms: C_2  and  O_8
REMARK    3  A    between atoms: O_8  and  C_9
REMARK    4  A    between atoms: C_9  and  C_10
REMARK    5  A    between atoms: C_9  and  C_29
REMARK    6  A    between atoms: C_10  and  C_11
REMARK    7  A    between atoms: C_11  and  C_12
REMARK    8  A    between atoms: C_12  and  C_13
REMARK    9  A    between atoms: C_12  and  C_14
REMARK   10  A    between atoms: C_14  and  O_15
REMARK   11  A    between atoms: C_14  and  C_17
REMARK   12  A    between atoms: O_15  and  C_16
REMARK   13  A    between atoms: C_17  and  C_18
REMARK   14  A    between atoms: C_18  and  O_19
REMARK   15  A    between atoms: C_18  and  C_26
REMARK   16  A    between atoms: O_19  and  C_20
REMARK   17  A    between atoms: C_20  and  C_21
REMARK   18  A    between atoms: C_21  and  C_22
REMARK   19  A    between atoms: C_22  and  C_23
REMARK   20  A    between atoms: C_23  and  N_24
REMARK   21  A    between atoms: C_26  and  C_27
REMARK   22  A    between atoms: C_26  and  C_28
REMARK   23  A    between atoms: C_29  and  C_30
REMARK   24  A    between atoms: C_29  and  C_31
REMARK   25  A    between atoms: C_31  and  O_32
REMARK   26  A    between atoms: C_31  and  C_34
REMARK   27  A    between atoms: O_32  and  C_33
REMARK   28  A    between atoms: C_34  and  C_35
REMARK   29  A    between atoms: C_34  and  C_36
REMARK   30  A    between atoms: C_37  and  N_38
REMARK   31  A    between atoms: N_38  and  C_39
REMARK   32  A    between atoms: C_39  and  C_40
REMARK                            x       y       z     vdW  Elec       q    Type
REMARK                         _______ _______ _______ _____ _____    ______ ____
ROOT
ATOM      1  C   UNL     1     146.495 169.795 190.014  0.00  0.00    +0.108 C 
ATOM      2  H   UNL     1     146.048 169.709 191.012  0.00  0.00    +0.074 HD
ENDROOT
BRANCH   1   3
ATOM      3  C   UNL     1     147.725 168.867 189.971  0.00  0.00    -0.015 C 
ATOM      4  H   UNL     1     147.539 168.008 189.318  0.00  0.00    +0.030 HD
ATOM      5  H   UNL     1     148.570 169.424 189.562  0.00  0.00    +0.030 HD
BRANCH   3   6
ATOM      6  C   UNL     1     148.111 168.346 191.361  0.00  0.00    -0.045 C 
ATOM      7  H   UNL     1     148.121 169.167 192.086  0.00  0.00    +0.027 HD
ATOM      8  H   UNL     1     147.317 167.663 191.694  0.00  0.00    +0.027 HD
BRANCH   6   9
ATOM      9  C   UNL     1     149.458 167.584 191.391  0.00  0.00    -0.017 C 
ATOM     10  H   UNL     1     150.231 168.315 191.656  0.00  0.00    +0.032 HD
BRANCH   9  11
ATOM     11  C   UNL     1     149.792 167.098 189.972  0.00  0.00    -0.060 C 
ATOM     12  H   UNL     1     149.597 166.024 189.870  0.00  0.00    +0.023 HD
ATOM     13  H   UNL     1     149.210 167.628 189.210  0.00  0.00    +0.023 HD
ATOM     14  H   UNL     1     150.852 167.255 189.747  0.00  0.00    +0.023 HD
ENDBRANCH   9  11
BRANCH   9  15
ATOM     15  C   UNL     1     149.546 166.400 192.404  0.00  0.00    +0.064 C 
ATOM     16  H   UNL     1     148.788 165.662 192.119  0.00  0.00    +0.060 HD
BRANCH  15  17
ATOM     17  C   UNL     1     149.284 166.834 193.863  0.00  0.00    +0.011 C 
ATOM     18  H   UNL     1     150.239 166.816 194.404  0.00  0.00    +0.033 HD
ATOM     19  H   UNL     1     148.920 167.866 193.887  0.00  0.00    +0.033 HD
BRANCH  17  20
ATOM     20  C   UNL     1     148.286 165.960 194.661  0.00  0.00    +0.108 C 
ATOM     21  H   UNL     1     148.243 164.975 194.177  0.00  0.00    +0.074 HD
BRANCH  20  22
ATOM     22  C   UNL     1     148.664 165.730 196.147  0.00  0.00    -0.009 C 
ATOM     23  H   UNL     1     148.314 164.739 196.460  0.00  0.00    +0.033 HD
BRANCH  22  24
ATOM     24  C   UNL     1     150.189 165.723 196.327  0.00  0.00    -0.059 C 
ATOM     25  H   UNL     1     150.697 165.594 195.365  0.00  0.00    +0.023 HD
ATOM     26  H   UNL     1     150.503 164.906 196.986  0.00  0.00    +0.023 HD
ATOM     27  H   UNL     1     150.539 166.665 196.759  0.00  0.00    +0.023 HD
ENDBRANCH  22  24
BRANCH  22  28
ATOM     28  C   UNL     1     148.057 166.783 197.076  0.00  0.00    -0.059 C 
ATOM     29  H   UNL     1     148.509 166.734 198.075  0.00  0.00    +0.023 HD
ATOM     30  H   UNL     1     148.197 167.797 196.690  0.00  0.00    +0.023 HD
ATOM     31  H   UNL     1     146.978 166.630 197.185  0.00  0.00    +0.023 HD
ENDBRANCH  22  28
ENDBRANCH  20  22
BRANCH  20  32
ATOM     32  O   UNL     1     146.961 166.535 194.633  0.00  0.00    -0.461 OA
BRANCH  32  33
ATOM     33  C   UNL     1     145.936 165.693 194.323  0.00  0.00    +0.307 C 
ATOM     34  O   UNL     1     145.661 164.663 194.923  0.00  0.00    -0.251 OA
BRANCH  33  35
ATOM     35  C   UNL     1     145.190 166.216 193.119  0.00  0.00    +0.046 C 
ATOM     36  H   UNL     1     145.341 165.514 192.295  0.00  0.00    +0.038 HD
ATOM     37  H   UNL     1     145.617 167.186 192.841  0.00  0.00    +0.038 HD
BRANCH  35  38
ATOM     38  C   UNL     1     143.702 166.393 193.430  0.00  0.00    -0.031 C 
ATOM     39  H   UNL     1     143.522 166.242 194.503  0.00  0.00    +0.028 HD
ATOM     40  H   UNL     1     143.412 167.428 193.217  0.00  0.00    +0.028 HD
BRANCH  38  41
ATOM     41  C   UNL     1     142.809 165.456 192.619  0.00  0.00    -0.006 C 
ATOM     42  H   UNL     1     142.519 164.592 193.225  0.00  0.00    +0.042 HD
ATOM     43  H   UNL     1     143.367 165.078 191.752  0.00  0.00    +0.042 HD
BRANCH  41  44
ATOM     44  N   UNL     1     141.610 166.143 192.149  0.00  0.00    -0.330 NA
ATOM     45  H   UNL     1     141.014 165.475 191.657  0.00  0.00    +0.118 HD
ATOM     46  H   UNL     1     141.065 166.454 192.954  0.00  0.00    +0.118 HD
ENDBRANCH  41  44
ENDBRANCH  38  41
ENDBRANCH  35  38
ENDBRANCH  33  35
ENDBRANCH  32  33
ENDBRANCH  20  32
ENDBRANCH  17  20
ENDBRANCH  15  17
BRANCH  15  47
ATOM     47  O   UNL     1     150.830 165.764 192.362  0.00  0.00    -0.379 OA
BRANCH  47  48
ATOM     48  C   UNL     1     151.857 166.485 193.025  0.00  0.00    +0.037 C 
ATOM     49  H   UNL     1     151.500 166.872 193.984  0.00  0.00    +0.052 HD
ATOM     50  H   UNL     1     152.232 167.298 192.400  0.00  0.00    +0.052 HD
ATOM     51  H   UNL     1     152.681 165.794 193.225  0.00  0.00    +0.052 HD
ENDBRANCH  47  48
ENDBRANCH  15  47
ENDBRANCH   9  15
ENDBRANCH   6   9
ENDBRANCH   3   6
ENDBRANCH   1   3
BRANCH   1  52
ATOM     52  C   UNL     1     145.410 169.440 188.950  0.00  0.00    +0.020 C 
ATOM     53  H   UNL     1     145.734 168.501 188.480  0.00  0.00    +0.036 HD
BRANCH  52  54
ATOM     54  C   UNL     1     145.410 170.525 187.859  0.00  0.00    -0.057 C 
ATOM     55  H   UNL     1     146.432 170.740 187.525  0.00  0.00    +0.023 HD
ATOM     56  H   UNL     1     144.964 171.463 188.214  0.00  0.00    +0.023 HD
ATOM     57  H   UNL     1     144.853 170.202 186.975  0.00  0.00    +0.023 HD
ENDBRANCH  52  54
BRANCH  52  58
ATOM     58  C   UNL     1     143.990 169.186 189.549  0.00  0.00    +0.070 C 
ATOM     59  H   UNL     1     143.265 169.810 189.013  0.00  0.00    +0.061 HD
BRANCH  58  60
ATOM     60  C   UNL     1     143.495 167.709 189.425  0.00  0.00    +0.002 C 
ATOM     61  H   UNL     1     142.902 167.478 190.319  0.00  0.00    +0.037 HD
BRANCH  60  62
ATOM     62  C   UNL     1     142.654 167.468 188.185  0.00  0.00    -0.065 C 
ATOM     63  C   UNL     1     141.412 166.960 188.224  0.00  0.00    -0.005 C 
ATOM     64  H   UNL     1     143.130 167.730 187.242  0.00  0.00    +0.059 HD
ATOM     65  H   UNL     1     140.990 166.701 189.195  0.00  0.00    +0.078 HD
BRANCH  63  66
ATOM     66  N   UNL     1     140.589 166.709 187.136  0.00  0.00    -0.281 N 
ATOM     67  C   UNL     1     140.316 165.399 186.753  0.00  0.00    +0.206 C 
ATOM     68  O   UNL     1     139.643 165.044 185.792  0.00  0.00    -0.279 OA
ATOM     69  H   UNL     1     140.784 164.654 187.413  0.00  0.00    +0.126 HD
BRANCH  66  70
ATOM     70  C   UNL     1     140.012 167.777 186.320  0.00  0.00    +0.016 C 
ATOM     71  H   UNL     1     139.322 167.353 185.584  0.00  0.00    +0.047 HD
ATOM     72  H   UNL     1     140.810 168.256 185.740  0.00  0.00    +0.047 HD
BRANCH  70  73
ATOM     73  C   UNL     1     139.329 168.839 187.166  0.00  0.00    -0.049 C 
ATOM     74  H   UNL     1     139.410 168.611 188.235  0.00  0.00    +0.024 HD
ATOM     75  H   UNL     1     138.268 168.904 186.905  0.00  0.00    +0.024 HD
ATOM     76  H   UNL     1     139.787 169.818 187.003  0.00  0.00    +0.024 HD
ENDBRANCH  70  73
ENDBRANCH  66  70
ENDBRANCH  63  66
ENDBRANCH  60  62
BRANCH  60  77
ATOM     77  C   UNL     1     144.667 166.718 189.421  0.00  0.00    -0.057 C 
ATOM     78  H   UNL     1     144.377 165.735 189.810  0.00  0.00    +0.024 HD
ATOM     79  H   UNL     1     145.057 166.587 188.405  0.00  0.00    +0.024 HD
ATOM     80  H   UNL     1     145.489 167.088 190.044  0.00  0.00    +0.024 HD
ENDBRANCH  60  77
ENDBRANCH  58  60
BRANCH  58  81
ATOM     81  O   UNL     1     144.009 169.536 190.945  0.00  0.00    -0.379 OA
BRANCH  81  82
ATOM     82  C   UNL     1     142.729 169.526 191.562  0.00  0.00    +0.037 C 
ATOM     83  H   UNL     1     142.661 170.306 192.323  0.00  0.00    +0.052 HD
ATOM     84  H   UNL     1     141.934 169.653 190.822  0.00  0.00    +0.052 HD
ATOM     85  H   UNL     1     142.600 168.558 192.053  0.00  0.00    +0.052 HD
ENDBRANCH  81  82
ENDBRANCH  58  81
ENDBRANCH  52  58
ENDBRANCH   1  52
BRANCH   1  86
ATOM     86  O   UNL     1     146.976 171.143 189.830  0.00  0.00    -0.459 OA
BRANCH  86  88
ATOM     87  O   UNL     1     145.839 172.159 191.545  0.00  0.00    -0.248 OA
ATOM     88  C   UNL     1     146.862 171.984 190.896  0.00  0.00    +0.337 C 
BRANCH  88  89
ATOM     89  C   UNL     1     148.206 172.690 191.137  0.00  0.00    +0.155 C 
ATOM     90  O   UNL     1     149.307 171.765 191.194  0.00  0.00    -0.365 OA
ATOM     91  C   UNL     1     149.724 171.614 192.554  0.00  0.00    +0.049 C 
ATOM     92  C   UNL     1     148.721 172.350 193.416  0.00  0.00    -0.027 C 
ATOM     93  C   UNL     1     148.189 173.409 192.477  0.00  0.00    -0.014 C 
ATOM     94  H   UNL     1     148.387 173.375 190.301  0.00  0.00    +0.071 HD
ATOM     95  H   UNL     1     150.722 172.049 192.652  0.00  0.00    +0.056 HD
ATOM     96  H   UNL     1     149.781 170.551 192.802  0.00  0.00    +0.056 HD
ATOM     97  H   UNL     1     149.164 172.756 194.327  0.00  0.00    +0.029 HD
ATOM     98  H   UNL     1     147.910 171.674 193.711  0.00  0.00    +0.029 HD
ATOM     99  H   UNL     1     147.206 173.778 192.784  0.00  0.00    +0.030 HD
ATOM    100  H   UNL     1     148.888 174.259 192.451  0.00  0.00    +0.030 HD
ENDBRANCH  88  89
ENDBRANCH  86  88
ENDBRANCH   1  86
TORSDOF 32
ENDMDL
MODEL 7
REMARK VINA RESULT:      -4.8      3.064      7.032
REMARK  Name = 2a_conf1
REMARK  32 active torsions:
REMARK  status: ('A' for Active; 'I' for Inactive)
REMARK    1  A    between atoms: C_2  and  C_3
REMARK    2  A    between atoms: C_2  and  O_8
REMARK    3  A    between atoms: O_8  and  C_9
REMARK    4  A    between atoms: C_9  and  C_10
REMARK    5  A    between atoms: C_9  and  C_29
REMARK    6  A    between atoms: C_10  and  C_11
REMARK    7  A    between atoms: C_11  and  C_12
REMARK    8  A    between atoms: C_12  and  C_13
REMARK    9  A    between atoms: C_12  and  C_14
REMARK   10  A    between atoms: C_14  and  O_15
REMARK   11  A    between atoms: C_14  and  C_17
REMARK   12  A    between atoms: O_15  and  C_16
REMARK   13  A    between atoms: C_17  and  C_18
REMARK   14  A    between atoms: C_18  and  O_19
REMARK   15  A    between atoms: C_18  and  C_26
REMARK   16  A    between atoms: O_19  and  C_20
REMARK   17  A    between atoms: C_20  and  C_21
REMARK   18  A    between atoms: C_21  and  C_22
REMARK   19  A    between atoms: C_22  and  C_23
REMARK   20  A    between atoms: C_23  and  N_24
REMARK   21  A    between atoms: C_26  and  C_27
REMARK   22  A    between atoms: C_26  and  C_28
REMARK   23  A    between atoms: C_29  and  C_30
REMARK   24  A    between atoms: C_29  and  C_31
REMARK   25  A    between atoms: C_31  and  O_32
REMARK   26  A    between atoms: C_31  and  C_34
REMARK   27  A    between atoms: O_32  and  C_33
REMARK   28  A    between atoms: C_34  and  C_35
REMARK   29  A    between atoms: C_34  and  C_36
REMARK   30  A    between atoms: C_37  and  N_38
REMARK   31  A    between atoms: N_38  and  C_39
REMARK   32  A    between atoms: C_39  and  C_40
REMARK                            x       y       z     vdW  Elec       q    Type
REMARK                         _______ _______ _______ _____ _____    ______ ____
ROOT
ATOM      1  C   UNL     1     148.162 168.471 190.528  0.00  0.00    +0.108 C 
ATOM      2  H   UNL     1     149.008 169.090 190.204  0.00  0.00    +0.074 HD
ENDROOT
BRANCH   1   3
ATOM      3  C   UNL     1     147.635 167.715 189.294  0.00  0.00    -0.015 C 
ATOM      4  H   UNL     1     146.631 168.060 189.027  0.00  0.00    +0.030 HD
ATOM      5  H   UNL     1     148.296 167.918 188.449  0.00  0.00    +0.030 HD
BRANCH   3   6
ATOM      6  C   UNL     1     147.582 166.198 189.518  0.00  0.00    -0.045 C 
ATOM      7  H   UNL     1     148.574 165.757 189.372  0.00  0.00    +0.027 HD
ATOM      8  H   UNL     1     147.332 166.025 190.574  0.00  0.00    +0.027 HD
BRANCH   6   9
ATOM      9  C   UNL     1     146.534 165.472 188.640  0.00  0.00    -0.017 C 
ATOM     10  H   UNL     1     147.032 164.593 188.212  0.00  0.00    +0.032 HD
BRANCH   9  11
ATOM     11  C   UNL     1     146.158 166.376 187.455  0.00  0.00    -0.060 C 
ATOM     12  H   UNL     1     146.328 167.431 187.699  0.00  0.00    +0.023 HD
ATOM     13  H   UNL     1     146.734 166.133 186.556  0.00  0.00    +0.023 HD
ATOM     14  H   UNL     1     145.096 166.270 187.207  0.00  0.00    +0.023 HD
ENDBRANCH   9  11
BRANCH   9  15
ATOM     15  C   UNL     1     145.249 164.985 189.379  0.00  0.00    +0.064 C 
ATOM     16  H   UNL     1     144.388 165.450 188.888  0.00  0.00    +0.060 HD
BRANCH  15  17
ATOM     17  C   UNL     1     145.229 165.372 190.874  0.00  0.00    +0.011 C 
ATOM     18  H   UNL     1     145.237 164.449 191.469  0.00  0.00    +0.033 HD
ATOM     19  H   UNL     1     146.139 165.926 191.129  0.00  0.00    +0.033 HD
BRANCH  17  20
ATOM     20  C   UNL     1     144.016 166.212 191.341  0.00  0.00    +0.108 C 
ATOM     21  H   UNL     1     143.267 166.193 190.538  0.00  0.00    +0.074 HD
BRANCH  20  22
ATOM     22  C   UNL     1     143.325 165.698 192.630  0.00  0.00    -0.009 C 
ATOM     23  H   UNL     1     143.296 164.602 192.613  0.00  0.00    +0.033 HD
BRANCH  22  24
ATOM     24  C   UNL     1     144.136 166.085 193.875  0.00  0.00    -0.059 C 
ATOM     25  H   UNL     1     145.076 165.523 193.922  0.00  0.00    +0.023 HD
ATOM     26  H   UNL     1     143.574 165.878 194.792  0.00  0.00    +0.023 HD
ATOM     27  H   UNL     1     144.391 167.149 193.864  0.00  0.00    +0.023 HD
ENDBRANCH  22  24
BRANCH  22  28
ATOM     28  C   UNL     1     141.897 166.226 192.782  0.00  0.00    -0.059 C 
ATOM     29  H   UNL     1     141.379 166.243 191.814  0.00  0.00    +0.023 HD
ATOM     30  H   UNL     1     141.308 165.615 193.472  0.00  0.00    +0.023 HD
ATOM     31  H   UNL     1     141.900 167.246 193.182  0.00  0.00    +0.023 HD
ENDBRANCH  22  28
ENDBRANCH  20  22
BRANCH  20  32
ATOM     32  O   UNL     1     144.397 167.587 191.570  0.00  0.00    -0.461 OA
BRANCH  32  33
ATOM     33  C   UNL     1     143.599 168.542 191.019  0.00  0.00    +0.307 C 
ATOM     34  O   UNL     1     143.093 169.477 191.625  0.00  0.00    -0.251 OA
BRANCH  33  35
ATOM     35  C   UNL     1     143.422 168.273 189.544  0.00  0.00    +0.046 C 
ATOM     36  H   UNL     1     142.357 168.353 189.309  0.00  0.00    +0.038 HD
ATOM     37  H   UNL     1     143.754 167.250 189.335  0.00  0.00    +0.038 HD
BRANCH  35  38
ATOM     38  C   UNL     1     144.249 169.250 188.705  0.00  0.00    -0.031 C 
ATOM     39  H   UNL     1     145.150 169.549 189.256  0.00  0.00    +0.028 HD
ATOM     40  H   UNL     1     144.602 168.737 187.802  0.00  0.00    +0.028 HD
BRANCH  38  41
ATOM     41  C   UNL     1     143.461 170.490 188.287  0.00  0.00    -0.006 C 
ATOM     42  H   UNL     1     142.608 170.639 188.958  0.00  0.00    +0.042 HD
ATOM     43  H   UNL     1     143.062 170.347 187.275  0.00  0.00    +0.042 HD
BRANCH  41  44
ATOM     44  N   UNL     1     144.303 171.683 188.302  0.00  0.00    -0.330 NA
ATOM     45  H   UNL     1     144.721 171.807 187.378  0.00  0.00    +0.118 HD
ATOM     46  H   UNL     1     143.716 172.504 188.450  0.00  0.00    +0.118 HD
ENDBRANCH  41  44
ENDBRANCH  38  41
ENDBRANCH  35  38
ENDBRANCH  33  35
ENDBRANCH  32  33
ENDBRANCH  20  32
ENDBRANCH  17  20
ENDBRANCH  15  17
BRANCH  15  47
ATOM     47  O   UNL     1     145.099 163.561 189.296  0.00  0.00    -0.379 OA
BRANCH  47  48
ATOM     48  C   UNL     1     143.759 163.129 189.116  0.00  0.00    +0.037 C 
ATOM     49  H   UNL     1     143.107 163.568 189.876  0.00  0.00    +0.052 HD
ATOM     50  H   UNL     1     143.693 162.039 189.139  0.00  0.00    +0.052 HD
ATOM     51  H   UNL     1     143.420 163.476 188.136  0.00  0.00    +0.052 HD
ENDBRANCH  47  48
ENDBRANCH  15  47
ENDBRANCH   9  15
ENDBRANCH   6   9
ENDBRANCH   3   6
ENDBRANCH   1   3
BRANCH   1  52
ATOM     52  C   UNL     1     148.644 167.530 191.676  0.00  0.00    +0.020 C 
ATOM     53  H   UNL     1     148.717 166.524 191.240  0.00  0.00    +0.036 HD
BRANCH  52  54
ATOM     54  C   UNL     1     147.561 167.481 192.768  0.00  0.00    -0.057 C 
ATOM     55  H   UNL     1     147.975 167.097 193.708  0.00  0.00    +0.023 HD
ATOM     56  H   UNL     1     146.718 166.841 192.481  0.00  0.00    +0.023 HD
ATOM     57  H   UNL     1     147.167 168.478 192.984  0.00  0.00    +0.023 HD
ENDBRANCH  52  54
BRANCH  52  58
ATOM     58  C   UNL     1     150.056 167.887 192.241  0.00  0.00    +0.070 C 
ATOM     59  H   UNL     1     149.946 168.204 193.286  0.00  0.00    +0.061 HD
BRANCH  58  60
ATOM     60  C   UNL     1     151.071 166.700 192.232  0.00  0.00    +0.002 C 
ATOM     61  H   UNL     1     152.083 167.125 192.221  0.00  0.00    +0.037 HD
BRANCH  60  62
ATOM     62  C   UNL     1     150.922 165.783 193.433  0.00  0.00    -0.065 C 
ATOM     63  C   UNL     1     150.314 166.153 194.571  0.00  0.00    -0.005 C 
ATOM     64  H   UNL     1     151.352 164.790 193.316  0.00  0.00    +0.059 HD
ATOM     65  H   UNL     1     149.915 167.165 194.638  0.00  0.00    +0.078 HD
BRANCH  63  66
ATOM     66  N   UNL     1     150.145 165.374 195.706  0.00  0.00    -0.281 N 
ATOM     67  C   UNL     1     150.900 164.217 195.879  0.00  0.00    +0.206 C 
ATOM     68  O   UNL     1     150.818 163.424 196.810  0.00  0.00    -0.279 OA
ATOM     69  H   UNL     1     151.618 164.048 195.063  0.00  0.00    +0.126 HD
BRANCH  66  70
ATOM     70  C   UNL     1     149.158 165.687 196.739  0.00  0.00    +0.016 C 
ATOM     71  H   UNL     1     149.553 166.453 197.413  0.00  0.00    +0.047 HD
ATOM     72  H   UNL     1     148.994 164.798 197.360  0.00  0.00    +0.047 HD
BRANCH  70  73
ATOM     73  C   UNL     1     147.825 166.113 196.146  0.00  0.00    -0.049 C 
ATOM     74  H   UNL     1     147.026 165.411 196.415  0.00  0.00    +0.024 HD
ATOM     75  H   UNL     1     147.894 166.159 195.055  0.00  0.00    +0.024 HD
ATOM     76  H   UNL     1     147.533 167.099 196.517  0.00  0.00    +0.024 HD
ENDBRANCH  70  73
ENDBRANCH  66  70
ENDBRANCH  63  66
ENDBRANCH  60  62
BRANCH  60  77
ATOM     77  C   UNL     1     150.946 165.858 190.956  0.00  0.00    -0.057 C 
ATOM     78  H   UNL     1     151.673 165.038 190.930  0.00  0.00    +0.024 HD
ATOM     79  H   UNL     1     149.940 165.431 190.873  0.00  0.00    +0.024 HD
ATOM     80  H   UNL     1     151.116 166.475 190.066  0.00  0.00    +0.024 HD
ENDBRANCH  60  77
ENDBRANCH  58  60
BRANCH  58  81
ATOM     81  O   UNL     1     150.610 168.957 191.454  0.00  0.00    -0.379 OA
BRANCH  81  82
ATOM     82  C   UNL     1     151.778 169.543 192.013  0.00  0.00    +0.037 C 
ATOM     83  H   UNL     1     151.718 170.632 191.981  0.00  0.00    +0.052 HD
ATOM     84  H   UNL     1     151.934 169.205 193.041  0.00  0.00    +0.052 HD
ATOM     85  H   UNL     1     152.633 169.230 191.409  0.00  0.00    +0.052 HD
ENDBRANCH  81  82
ENDBRANCH  58  81
ENDBRANCH  52  58
ENDBRANCH   1  52
BRANCH   1  86
ATOM     86  O   UNL     1     147.097 169.333 190.982  0.00  0.00    -0.459 OA
BRANCH  86  88
ATOM     87  O   UNL     1     146.868 171.282 189.792  0.00  0.00    -0.248 OA
ATOM     88  C   UNL     1     147.262 170.670 190.777  0.00  0.00    +0.337 C 
BRANCH  88  89
ATOM     89  C   UNL     1     148.036 171.278 191.957  0.00  0.00    +0.155 C 
ATOM     90  O   UNL     1     147.255 172.244 192.684  0.00  0.00    -0.365 OA
ATOM     91  C   UNL     1     147.719 173.558 192.365  0.00  0.00    +0.049 C 
ATOM     92  C   UNL     1     148.731 173.419 191.248  0.00  0.00    -0.027 C 
ATOM     93  C   UNL     1     149.265 172.020 191.455  0.00  0.00    -0.014 C 
ATOM     94  H   UNL     1     148.295 170.468 192.650  0.00  0.00    +0.071 HD
ATOM     95  H   UNL     1     148.179 173.982 193.262  0.00  0.00    +0.056 HD
ATOM     96  H   UNL     1     146.870 174.185 192.079  0.00  0.00    +0.056 HD
ATOM     97  H   UNL     1     149.503 174.191 191.278  0.00  0.00    +0.029 HD
ATOM     98  H   UNL     1     148.230 173.486 190.275  0.00  0.00    +0.029 HD
ATOM     99  H   UNL     1     149.705 171.606 190.543  0.00  0.00    +0.030 HD
ATOM    100  H   UNL     1     150.036 172.035 192.240  0.00  0.00    +0.030 HD
ENDBRANCH  88  89
ENDBRANCH  86  88
ENDBRANCH   1  86
TORSDOF 32
ENDMDL
MODEL 8
REMARK VINA RESULT:      -4.8      1.963      2.358
REMARK  Name = 2a_conf1
REMARK  32 active torsions:
REMARK  status: ('A' for Active; 'I' for Inactive)
REMARK    1  A    between atoms: C_2  and  C_3
REMARK    2  A    between atoms: C_2  and  O_8
REMARK    3  A    between atoms: O_8  and  C_9
REMARK    4  A    between atoms: C_9  and  C_10
REMARK    5  A    between atoms: C_9  and  C_29
REMARK    6  A    between atoms: C_10  and  C_11
REMARK    7  A    between atoms: C_11  and  C_12
REMARK    8  A    between atoms: C_12  and  C_13
REMARK    9  A    between atoms: C_12  and  C_14
REMARK   10  A    between atoms: C_14  and  O_15
REMARK   11  A    between atoms: C_14  and  C_17
REMARK   12  A    between atoms: O_15  and  C_16
REMARK   13  A    between atoms: C_17  and  C_18
REMARK   14  A    between atoms: C_18  and  O_19
REMARK   15  A    between atoms: C_18  and  C_26
REMARK   16  A    between atoms: O_19  and  C_20
REMARK   17  A    between atoms: C_20  and  C_21
REMARK   18  A    between atoms: C_21  and  C_22
REMARK   19  A    between atoms: C_22  and  C_23
REMARK   20  A    between atoms: C_23  and  N_24
REMARK   21  A    between atoms: C_26  and  C_27
REMARK   22  A    between atoms: C_26  and  C_28
REMARK   23  A    between atoms: C_29  and  C_30
REMARK   24  A    between atoms: C_29  and  C_31
REMARK   25  A    between atoms: C_31  and  O_32
REMARK   26  A    between atoms: C_31  and  C_34
REMARK   27  A    between atoms: O_32  and  C_33
REMARK   28  A    between atoms: C_34  and  C_35
REMARK   29  A    between atoms: C_34  and  C_36
REMARK   30  A    between atoms: C_37  and  N_38
REMARK   31  A    between atoms: N_38  and  C_39
REMARK   32  A    between atoms: C_39  and  C_40
REMARK                            x       y       z     vdW  Elec       q    Type
REMARK                         _______ _______ _______ _____ _____    ______ ____
ROOT
ATOM      1  C   UNL     1     147.557 169.427 191.042  0.00  0.00    +0.108 C 
ATOM      2  H   UNL     1     146.632 169.366 191.628  0.00  0.00    +0.074 HD
ENDROOT
BRANCH   1   3
ATOM      3  C   UNL     1     148.739 169.212 192.007  0.00  0.00    -0.015 C 
ATOM      4  H   UNL     1     149.176 170.171 192.304  0.00  0.00    +0.030 HD
ATOM      5  H   UNL     1     148.370 168.718 192.908  0.00  0.00    +0.030 HD
BRANCH   3   6
ATOM      6  C   UNL     1     149.844 168.344 191.392  0.00  0.00    -0.045 C 
ATOM      7  H   UNL     1     149.522 167.299 191.338  0.00  0.00    +0.027 HD
ATOM      8  H   UNL     1     149.982 168.668 190.351  0.00  0.00    +0.027 HD
BRANCH   6   9
ATOM      9  C   UNL     1     151.204 168.453 192.123  0.00  0.00    -0.017 C 
ATOM     10  H   UNL     1     151.012 168.253 193.184  0.00  0.00    +0.032 HD
BRANCH   9  11
ATOM     11  C   UNL     1     151.704 169.905 192.042  0.00  0.00    -0.060 C 
ATOM     12  H   UNL     1     152.791 169.953 192.170  0.00  0.00    +0.023 HD
ATOM     13  H   UNL     1     151.448 170.373 191.085  0.00  0.00    +0.023 HD
ATOM     14  H   UNL     1     151.259 170.513 192.837  0.00  0.00    +0.023 HD
ENDBRANCH   9  11
BRANCH   9  15
ATOM     15  C   UNL     1     152.316 167.470 191.641  0.00  0.00    +0.064 C 
ATOM     16  H   UNL     1     152.947 168.008 190.925  0.00  0.00    +0.060 HD
BRANCH  15  17
ATOM     17  C   UNL     1     151.748 166.213 190.945  0.00  0.00    +0.011 C 
ATOM     18  H   UNL     1     151.599 165.436 191.707  0.00  0.00    +0.033 HD
ATOM     19  H   UNL     1     150.766 166.434 190.515  0.00  0.00    +0.033 HD
BRANCH  17  20
ATOM     20  C   UNL     1     152.629 165.601 189.828  0.00  0.00    +0.108 C 
ATOM     21  H   UNL     1     152.012 165.520 188.923  0.00  0.00    +0.074 HD
BRANCH  20  22
ATOM     22  C   UNL     1     153.885 166.432 189.461  0.00  0.00    -0.009 C 
ATOM     23  H   UNL     1     153.807 167.427 189.916  0.00  0.00    +0.033 HD
BRANCH  22  24
ATOM     24  C   UNL     1     155.152 165.792 190.046  0.00  0.00    -0.059 C 
ATOM     25  H   UNL     1     155.003 164.722 190.231  0.00  0.00    +0.023 HD
ATOM     26  H   UNL     1     155.428 166.262 190.996  0.00  0.00    +0.023 HD
ATOM     27  H   UNL     1     155.997 165.890 189.358  0.00  0.00    +0.023 HD
ENDBRANCH  22  24
BRANCH  22  28
ATOM     28  C   UNL     1     154.061 166.594 187.950  0.00  0.00    -0.059 C 
ATOM     29  H   UNL     1     154.493 167.573 187.707  0.00  0.00    +0.023 HD
ATOM     30  H   UNL     1     154.711 165.821 187.530  0.00  0.00    +0.023 HD
ATOM     31  H   UNL     1     153.096 166.513 187.436  0.00  0.00    +0.023 HD
ENDBRANCH  22  28
ENDBRANCH  20  22
BRANCH  20  32
ATOM     32  O   UNL     1     153.074 164.275 190.192  0.00  0.00    -0.461 OA
BRANCH  32  33
ATOM     33  C   UNL     1     152.789 163.273 189.315  0.00  0.00    +0.307 C 
ATOM     34  O   UNL     1     151.768 163.190 188.644  0.00  0.00    -0.251 OA
BRANCH  33  35
ATOM     35  C   UNL     1     153.918 162.271 189.297  0.00  0.00    +0.046 C 
ATOM     36  H   UNL     1     153.819 161.633 190.180  0.00  0.00    +0.038 HD
ATOM     37  H   UNL     1     154.867 162.816 189.359  0.00  0.00    +0.038 HD
BRANCH  35  38
ATOM     38  C   UNL     1     153.896 161.443 188.010  0.00  0.00    -0.031 C 
ATOM     39  H   UNL     1     153.137 161.839 187.322  0.00  0.00    +0.028 HD
ATOM     40  H   UNL     1     154.858 161.555 187.496  0.00  0.00    +0.028 HD
BRANCH  38  41
ATOM     41  C   UNL     1     153.645 159.958 188.262  0.00  0.00    -0.006 C 
ATOM     42  H   UNL     1     154.520 159.371 187.965  0.00  0.00    +0.042 HD
ATOM     43  H   UNL     1     152.799 159.621 187.650  0.00  0.00    +0.042 HD
BRANCH  41  44
ATOM     44  N   UNL     1     153.345 159.703 189.668  0.00  0.00    -0.330 NA
ATOM     45  H   UNL     1     152.499 159.134 189.730  0.00  0.00    +0.118 HD
ATOM     46  H   UNL     1     154.089 159.132 190.070  0.00  0.00    +0.118 HD
ENDBRANCH  41  44
ENDBRANCH  38  41
ENDBRANCH  35  38
ENDBRANCH  33  35
ENDBRANCH  32  33
ENDBRANCH  20  32
ENDBRANCH  17  20
ENDBRANCH  15  17
BRANCH  15  47
ATOM     47  O   UNL     1     153.142 167.032 192.728  0.00  0.00    -0.379 OA
BRANCH  47  48
ATOM     48  C   UNL     1     152.509 166.109 193.601  0.00  0.00    +0.037 C 
ATOM     49  H   UNL     1     152.886 165.096 193.431  0.00  0.00    +0.052 HD
ATOM     50  H   UNL     1     151.424 166.138 193.484  0.00  0.00    +0.052 HD
ATOM     51  H   UNL     1     152.755 166.393 194.629  0.00  0.00    +0.052 HD
ENDBRANCH  47  48
ENDBRANCH  15  47
ENDBRANCH   9  15
ENDBRANCH   6   9
ENDBRANCH   3   6
ENDBRANCH   1   3
BRANCH   1  52
ATOM     52  C   UNL     1     147.491 168.370 189.895  0.00  0.00    +0.020 C 
ATOM     53  H   UNL     1     148.441 167.819 189.928  0.00  0.00    +0.036 HD
BRANCH  52  54
ATOM     54  C   UNL     1     147.429 169.103 188.545  0.00  0.00    -0.057 C 
ATOM     55  H   UNL     1     146.514 168.837 188.000  0.00  0.00    +0.023 HD
ATOM     56  H   UNL     1     148.287 168.861 187.906  0.00  0.00    +0.023 HD
ATOM     57  H   UNL     1     147.407 170.189 188.680  0.00  0.00    +0.023 HD
ENDBRANCH  52  54
BRANCH  52  58
ATOM     58  C   UNL     1     146.347 167.319 190.065  0.00  0.00    +0.070 C 
ATOM     59  H   UNL     1     145.877 167.150 189.088  0.00  0.00    +0.061 HD
BRANCH  58  60
ATOM     60  C   UNL     1     146.827 165.925 190.583  0.00  0.00    +0.002 C 
ATOM     61  H   UNL     1     147.849 165.764 190.217  0.00  0.00    +0.037 HD
BRANCH  60  62
ATOM     62  C   UNL     1     146.812 165.819 192.098  0.00  0.00    -0.065 C 
ATOM     63  C   UNL     1     147.927 165.794 192.846  0.00  0.00    -0.005 C 
ATOM     64  H   UNL     1     145.824 165.757 192.550  0.00  0.00    +0.059 HD
ATOM     65  H   UNL     1     148.890 165.844 192.339  0.00  0.00    +0.078 HD
BRANCH  63  66
ATOM     66  N   UNL     1     147.990 165.695 194.227  0.00  0.00    -0.281 N 
ATOM     67  C   UNL     1     149.145 165.220 194.842  0.00  0.00    +0.206 C 
ATOM     68  O   UNL     1     149.315 165.045 196.043  0.00  0.00    -0.279 OA
ATOM     69  H   UNL     1     149.947 164.988 194.126  0.00  0.00    +0.126 HD
BRANCH  66  70
ATOM     70  C   UNL     1     146.863 166.031 195.096  0.00  0.00    +0.016 C 
ATOM     71  H   UNL     1     146.406 166.969 194.769  0.00  0.00    +0.047 HD
ATOM     72  H   UNL     1     147.235 166.218 196.111  0.00  0.00    +0.047 HD
BRANCH  70  73
ATOM     73  C   UNL     1     145.835 164.912 195.158  0.00  0.00    -0.049 C 
ATOM     74  H   UNL     1     145.616 164.514 194.161  0.00  0.00    +0.024 HD
ATOM     75  H   UNL     1     144.903 165.281 195.597  0.00  0.00    +0.024 HD
ATOM     76  H   UNL     1     146.202 164.083 195.770  0.00  0.00    +0.024 HD
ENDBRANCH  70  73
ENDBRANCH  66  70
ENDBRANCH  63  66
ENDBRANCH  60  62
BRANCH  60  77
ATOM     77  C   UNL     1     145.980 164.784 190.006  0.00  0.00    -0.057 C 
ATOM     78  H   UNL     1     144.917 164.896 190.248  0.00  0.00    +0.024 HD
ATOM     79  H   UNL     1     146.083 164.740 188.916  0.00  0.00    +0.024 HD
ATOM     80  H   UNL     1     146.307 163.817 190.406  0.00  0.00    +0.024 HD
ENDBRANCH  60  77
ENDBRANCH  58  60
BRANCH  58  81
ATOM     81  O   UNL     1     145.381 167.835 190.998  0.00  0.00    -0.379 OA
BRANCH  81  82
ATOM     82  C   UNL     1     144.118 168.132 190.419  0.00  0.00    +0.037 C 
ATOM     83  H   UNL     1     143.775 169.122 190.726  0.00  0.00    +0.052 HD
ATOM     84  H   UNL     1     144.160 168.069 189.329  0.00  0.00    +0.052 HD
ATOM     85  H   UNL     1     143.399 167.393 190.785  0.00  0.00    +0.052 HD
ENDBRANCH  81  82
ENDBRANCH  58  81
ENDBRANCH  52  58
ENDBRANCH   1  52
BRANCH   1  86
ATOM     86  O   UNL     1     147.686 170.760 190.506  0.00  0.00    -0.459 OA
BRANCH  86  88
ATOM     87  O   UNL     1     145.595 171.540 191.039  0.00  0.00    -0.248 OA
ATOM     88  C   UNL     1     146.808 171.693 190.968  0.00  0.00    +0.337 C 
BRANCH  88  89
ATOM     89  C   UNL     1     147.573 172.967 191.362  0.00  0.00    +0.155 C 
ATOM     90  O   UNL     1     148.999 172.771 191.359  0.00  0.00    -0.365 OA
ATOM     91  C   UNL     1     149.464 172.688 192.709  0.00  0.00    +0.049 C 
ATOM     92  C   UNL     1     148.243 172.658 193.604  0.00  0.00    -0.027 C 
ATOM     93  C   UNL     1     147.207 173.385 192.777  0.00  0.00    -0.014 C 
ATOM     94  H   UNL     1     147.341 173.746 190.626  0.00  0.00    +0.071 HD
ATOM     95  H   UNL     1     150.078 173.570 192.911  0.00  0.00    +0.056 HD
ATOM     96  H   UNL     1     150.085 171.796 192.827  0.00  0.00    +0.056 HD
ATOM     97  H   UNL     1     148.423 173.115 194.580  0.00  0.00    +0.029 HD
ATOM     98  H   UNL     1     147.925 171.623 193.773  0.00  0.00    +0.029 HD
ATOM     99  H   UNL     1     146.186 173.130 193.077  0.00  0.00    +0.030 HD
ATOM    100  H   UNL     1     147.344 174.471 192.890  0.00  0.00    +0.030 HD
ENDBRANCH  88  89
ENDBRANCH  86  88
ENDBRANCH   1  86
TORSDOF 32
ENDMDL
MODEL 9
REMARK VINA RESULT:      -4.7      3.364      6.452
REMARK  Name = 2a_conf1
REMARK  32 active torsions:
REMARK  status: ('A' for Active; 'I' for Inactive)
REMARK    1  A    between atoms: C_2  and  C_3
REMARK    2  A    between atoms: C_2  and  O_8
REMARK    3  A    between atoms: O_8  and  C_9
REMARK    4  A    between atoms: C_9  and  C_10
REMARK    5  A    between atoms: C_9  and  C_29
REMARK    6  A    between atoms: C_10  and  C_11
REMARK    7  A    between atoms: C_11  and  C_12
REMARK    8  A    between atoms: C_12  and  C_13
REMARK    9  A    between atoms: C_12  and  C_14
REMARK   10  A    between atoms: C_14  and  O_15
REMARK   11  A    between atoms: C_14  and  C_17
REMARK   12  A    between atoms: O_15  and  C_16
REMARK   13  A    between atoms: C_17  and  C_18
REMARK   14  A    between atoms: C_18  and  O_19
REMARK   15  A    between atoms: C_18  and  C_26
REMARK   16  A    between atoms: O_19  and  C_20
REMARK   17  A    between atoms: C_20  and  C_21
REMARK   18  A    between atoms: C_21  and  C_22
REMARK   19  A    between atoms: C_22  and  C_23
REMARK   20  A    between atoms: C_23  and  N_24
REMARK   21  A    between atoms: C_26  and  C_27
REMARK   22  A    between atoms: C_26  and  C_28
REMARK   23  A    between atoms: C_29  and  C_30
REMARK   24  A    between atoms: C_29  and  C_31
REMARK   25  A    between atoms: C_31  and  O_32
REMARK   26  A    between atoms: C_31  and  C_34
REMARK   27  A    between atoms: O_32  and  C_33
REMARK   28  A    between atoms: C_34  and  C_35
REMARK   29  A    between atoms: C_34  and  C_36
REMARK   30  A    between atoms: C_37  and  N_38
REMARK   31  A    between atoms: N_38  and  C_39
REMARK   32  A    between atoms: C_39  and  C_40
REMARK                            x       y       z     vdW  Elec       q    Type
REMARK                         _______ _______ _______ _____ _____    ______ ____
ROOT
ATOM      1  C   UNL     1     145.738 170.265 189.507  0.00  0.00    +0.108 C 
ATOM      2  H   UNL     1     145.405 170.495 190.527  0.00  0.00    +0.074 HD
ENDROOT
BRANCH   1   3
ATOM      3  C   UNL     1     145.755 168.732 189.355  0.00  0.00    -0.015 C 
ATOM      4  H   UNL     1     145.056 168.413 188.575  0.00  0.00    +0.030 HD
ATOM      5  H   UNL     1     146.757 168.420 189.058  0.00  0.00    +0.030 HD
BRANCH   3   6
ATOM      6  C   UNL     1     145.387 168.013 190.660  0.00  0.00    -0.045 C 
ATOM      7  H   UNL     1     145.721 168.596 191.523  0.00  0.00    +0.027 HD
ATOM      8  H   UNL     1     144.290 167.983 190.726  0.00  0.00    +0.027 HD
BRANCH   6   9
ATOM      9  C   UNL     1     145.923 166.563 190.747  0.00  0.00    -0.017 C 
ATOM     10  H   UNL     1     145.973 166.180 189.721  0.00  0.00    +0.032 HD
BRANCH   9  11
ATOM     11  C   UNL     1     144.894 165.691 191.485  0.00  0.00    -0.060 C 
ATOM     12  H   UNL     1     143.893 165.820 191.057  0.00  0.00    +0.023 HD
ATOM     13  H   UNL     1     145.153 164.627 191.442  0.00  0.00    +0.023 HD
ATOM     14  H   UNL     1     144.832 165.974 192.541  0.00  0.00    +0.023 HD
ENDBRANCH   9  11
BRANCH   9  15
ATOM     15  C   UNL     1     147.335 166.399 191.392  0.00  0.00    +0.064 C 
ATOM     16  H   UNL     1     147.411 165.371 191.765  0.00  0.00    +0.060 HD
BRANCH  15  17
ATOM     17  C   UNL     1     147.576 167.367 192.571  0.00  0.00    +0.011 C 
ATOM     18  H   UNL     1     148.243 168.169 192.226  0.00  0.00    +0.033 HD
ATOM     19  H   UNL     1     146.634 167.838 192.867  0.00  0.00    +0.033 HD
BRANCH  17  20
ATOM     20  C   UNL     1     148.216 166.747 193.837  0.00  0.00    +0.108 C 
ATOM     21  H   UNL     1     148.939 167.471 194.235  0.00  0.00    +0.074 HD
BRANCH  20  22
ATOM     22  C   UNL     1     147.217 166.416 194.975  0.00  0.00    -0.009 C 
ATOM     23  H   UNL     1     146.452 167.201 195.025  0.00  0.00    +0.033 HD
BRANCH  22  24
ATOM     24  C   UNL     1     146.470 165.108 194.682  0.00  0.00    -0.059 C 
ATOM     25  H   UNL     1     146.933 164.264 195.207  0.00  0.00    +0.023 HD
ATOM     26  H   UNL     1     146.477 164.882 193.610  0.00  0.00    +0.023 HD
ATOM     27  H   UNL     1     145.428 165.166 195.012  0.00  0.00    +0.023 HD
ENDBRANCH  22  24
BRANCH  22  28
ATOM     28  C   UNL     1     147.899 166.306 196.340  0.00  0.00    -0.059 C 
ATOM     29  H   UNL     1     147.752 167.220 196.929  0.00  0.00    +0.023 HD
ATOM     30  H   UNL     1     147.514 165.463 196.922  0.00  0.00    +0.023 HD
ATOM     31  H   UNL     1     148.977 166.147 196.225  0.00  0.00    +0.023 HD
ENDBRANCH  22  28
ENDBRANCH  20  22
BRANCH  20  32
ATOM     32  O   UNL     1     148.925 165.531 193.513  0.00  0.00    -0.461 OA
BRANCH  32  33
ATOM     33  C   UNL     1     150.273 165.538 193.712  0.00  0.00    +0.307 C 
ATOM     34  O   UNL     1     150.835 165.227 194.753  0.00  0.00    -0.251 OA
BRANCH  33  35
ATOM     35  C   UNL     1     150.973 165.997 192.456  0.00  0.00    +0.046 C 
ATOM     36  H   UNL     1     150.211 166.239 191.711  0.00  0.00    +0.038 HD
ATOM     37  H   UNL     1     151.586 165.171 192.079  0.00  0.00    +0.038 HD
BRANCH  35  38
ATOM     38  C   UNL     1     151.873 167.202 192.740  0.00  0.00    -0.031 C 
ATOM     39  H   UNL     1     152.046 167.296 193.820  0.00  0.00    +0.028 HD
ATOM     40  H   UNL     1     152.858 167.027 192.290  0.00  0.00    +0.028 HD
BRANCH  38  41
ATOM     41  C   UNL     1     151.307 168.509 192.189  0.00  0.00    -0.006 C 
ATOM     42  H   UNL     1     152.101 169.260 192.109  0.00  0.00    +0.042 HD
ATOM     43  H   UNL     1     150.551 168.902 192.882  0.00  0.00    +0.042 HD
BRANCH  41  44
ATOM     44  N   UNL     1     150.694 168.311 190.879  0.00  0.00    -0.330 NA
ATOM     45  H   UNL     1     151.203 168.861 190.186  0.00  0.00    +0.118 HD
ATOM     46  H   UNL     1     150.814 167.337 190.598  0.00  0.00    +0.118 HD
ENDBRANCH  41  44
ENDBRANCH  38  41
ENDBRANCH  35  38
ENDBRANCH  33  35
ENDBRANCH  32  33
ENDBRANCH  20  32
ENDBRANCH  17  20
ENDBRANCH  15  17
BRANCH  15  47
ATOM     47  O   UNL     1     148.381 166.608 190.434  0.00  0.00    -0.379 OA
BRANCH  47  48
ATOM     48  C   UNL     1     148.210 165.887 189.223  0.00  0.00    +0.037 C 
ATOM     49  H   UNL     1     149.035 165.185 189.072  0.00  0.00    +0.052 HD
ATOM     50  H   UNL     1     148.126 166.566 188.372  0.00  0.00    +0.052 HD
ATOM     51  H   UNL     1     147.284 165.311 189.300  0.00  0.00    +0.052 HD
ENDBRANCH  47  48
ENDBRANCH  15  47
ENDBRANCH   9  15
ENDBRANCH   6   9
ENDBRANCH   3   6
ENDBRANCH   1   3
BRANCH   1  52
ATOM     52  C   UNL     1     144.786 170.980 188.498  0.00  0.00    +0.020 C 
ATOM     53  H   UNL     1     144.510 170.227 187.747  0.00  0.00    +0.036 HD
BRANCH  52  54
ATOM     54  C   UNL     1     145.570 172.088 187.774  0.00  0.00    -0.057 C 
ATOM     55  H   UNL     1     146.387 171.660 187.179  0.00  0.00    +0.023 HD
ATOM     56  H   UNL     1     146.004 172.810 188.477  0.00  0.00    +0.023 HD
ATOM     57  H   UNL     1     144.932 172.639 187.078  0.00  0.00    +0.023 HD
ENDBRANCH  52  54
BRANCH  52  58
ATOM     58  C   UNL     1     143.457 171.499 189.136  0.00  0.00    +0.070 C 
ATOM     59  H   UNL     1     142.641 170.826 188.844  0.00  0.00    +0.061 HD
BRANCH  58  60
ATOM     60  C   UNL     1     143.469 171.545 190.697  0.00  0.00    +0.002 C 
ATOM     61  H   UNL     1     144.438 171.156 191.037  0.00  0.00    +0.037 HD
BRANCH  60  62
ATOM     62  C   UNL     1     143.268 172.945 191.250  0.00  0.00    -0.065 C 
ATOM     63  C   UNL     1     142.278 173.267 192.097  0.00  0.00    -0.005 C 
ATOM     64  H   UNL     1     143.984 173.689 190.904  0.00  0.00    +0.059 HD
ATOM     65  H   UNL     1     141.580 172.486 192.398  0.00  0.00    +0.078 HD
BRANCH  63  66
ATOM     66  N   UNL     1     142.030 174.521 192.637  0.00  0.00    -0.281 N 
ATOM     67  C   UNL     1     142.930 175.562 192.430  0.00  0.00    +0.206 C 
ATOM     68  O   UNL     1     142.851 176.698 192.883  0.00  0.00    -0.279 OA
ATOM     69  H   UNL     1     143.780 175.273 191.794  0.00  0.00    +0.126 HD
BRANCH  66  70
ATOM     70  C   UNL     1     140.864 174.804 193.472  0.00  0.00    +0.016 C 
ATOM     71  H   UNL     1     140.073 175.257 192.868  0.00  0.00    +0.047 HD
ATOM     72  H   UNL     1     141.134 175.557 194.223  0.00  0.00    +0.047 HD
BRANCH  70  73
ATOM     73  C   UNL     1     140.361 173.564 194.194  0.00  0.00    -0.049 C 
ATOM     74  H   UNL     1     139.273 173.461 194.101  0.00  0.00    +0.024 HD
ATOM     75  H   UNL     1     140.615 173.617 195.256  0.00  0.00    +0.024 HD
ATOM     76  H   UNL     1     140.813 172.661 193.773  0.00  0.00    +0.024 HD
ENDBRANCH  70  73
ENDBRANCH  66  70
ENDBRANCH  63  66
ENDBRANCH  60  62
BRANCH  60  77
ATOM     77  C   UNL     1     142.401 170.624 191.300  0.00  0.00    -0.057 C 
ATOM     78  H   UNL     1     142.815 169.655 191.602  0.00  0.00    +0.024 HD
ATOM     79  H   UNL     1     141.939 171.091 192.177  0.00  0.00    +0.024 HD
ATOM     80  H   UNL     1     141.604 170.428 190.573  0.00  0.00    +0.024 HD
ENDBRANCH  60  77
ENDBRANCH  58  60
BRANCH  58  81
ATOM     81  O   UNL     1     143.201 172.829 188.650  0.00  0.00    -0.379 OA
BRANCH  81  82
ATOM     82  C   UNL     1     142.000 172.951 187.901  0.00  0.00    +0.037 C 
ATOM     83  H   UNL     1     142.218 173.100 186.842  0.00  0.00    +0.052 HD
ATOM     84  H   UNL     1     141.362 172.073 188.033  0.00  0.00    +0.052 HD
ATOM     85  H   UNL     1     141.464 173.831 188.266  0.00  0.00    +0.052 HD
ENDBRANCH  81  82
ENDBRANCH  58  81
ENDBRANCH  52  58
ENDBRANCH   1  52
BRANCH   1  86
ATOM     86  O   UNL     1     147.097 170.721 189.344  0.00  0.00    -0.459 OA
BRANCH  86  88
ATOM     87  O   UNL     1     148.419 170.322 191.177  0.00  0.00    -0.248 OA
ATOM     88  C   UNL     1     147.762 171.082 190.478  0.00  0.00    +0.337 C 
BRANCH  88  89
ATOM     89  C   UNL     1     147.538 172.578 190.748  0.00  0.00    +0.155 C 
ATOM     90  O   UNL     1     148.775 173.298 190.895  0.00  0.00    -0.365 OA
ATOM     91  C   UNL     1     148.980 173.602 192.278  0.00  0.00    +0.049 C 
ATOM     92  C   UNL     1     147.901 172.884 193.060  0.00  0.00    -0.027 C 
ATOM     93  C   UNL     1     146.780 172.769 192.053  0.00  0.00    -0.014 C 
ATOM     94  H   UNL     1     147.003 173.004 189.891  0.00  0.00    +0.071 HD
ATOM     95  H   UNL     1     148.902 174.686 192.402  0.00  0.00    +0.056 HD
ATOM     96  H   UNL     1     149.985 173.288 192.575  0.00  0.00    +0.056 HD
ATOM     97  H   UNL     1     147.617 173.414 193.972  0.00  0.00    +0.029 HD
ATOM     98  H   UNL     1     148.246 171.884 193.348  0.00  0.00    +0.029 HD
ATOM     99  H   UNL     1     146.085 171.961 192.298  0.00  0.00    +0.030 HD
ATOM    100  H   UNL     1     146.219 173.715 192.020  0.00  0.00    +0.030 HD
ENDBRANCH  88  89
ENDBRANCH  86  88
ENDBRANCH   1  86
TORSDOF 32
ENDMDL
MODEL 10
REMARK VINA RESULT:      -4.7      1.907      8.493
REMARK  Name = 2a_conf1
REMARK  32 active torsions:
REMARK  status: ('A' for Active; 'I' for Inactive)
REMARK    1  A    between atoms: C_2  and  C_3
REMARK    2  A    between atoms: C_2  and  O_8
REMARK    3  A    between atoms: O_8  and  C_9
REMARK    4  A    between atoms: C_9  and  C_10
REMARK    5  A    between atoms: C_9  and  C_29
REMARK    6  A    between atoms: C_10  and  C_11
REMARK    7  A    between atoms: C_11  and  C_12
REMARK    8  A    between atoms: C_12  and  C_13
REMARK    9  A    between atoms: C_12  and  C_14
REMARK   10  A    between atoms: C_14  and  O_15
REMARK   11  A    between atoms: C_14  and  C_17
REMARK   12  A    between atoms: O_15  and  C_16
REMARK   13  A    between atoms: C_17  and  C_18
REMARK   14  A    between atoms: C_18  and  O_19
REMARK   15  A    between atoms: C_18  and  C_26
REMARK   16  A    between atoms: O_19  and  C_20
REMARK   17  A    between atoms: C_20  and  C_21
REMARK   18  A    between atoms: C_21  and  C_22
REMARK   19  A    between atoms: C_22  and  C_23
REMARK   20  A    between atoms: C_23  and  N_24
REMARK   21  A    between atoms: C_26  and  C_27
REMARK   22  A    between atoms: C_26  and  C_28
REMARK   23  A    between atoms: C_29  and  C_30
REMARK   24  A    between atoms: C_29  and  C_31
REMARK   25  A    between atoms: C_31  and  O_32
REMARK   26  A    between atoms: C_31  and  C_34
REMARK   27  A    between atoms: O_32  and  C_33
REMARK   28  A    between atoms: C_34  and  C_35
REMARK   29  A    between atoms: C_34  and  C_36
REMARK   30  A    between atoms: C_37  and  N_38
REMARK   31  A    between atoms: N_38  and  C_39
REMARK   32  A    between atoms: C_39  and  C_40
REMARK                            x       y       z     vdW  Elec       q    Type
REMARK                         _______ _______ _______ _____ _____    ______ ____
ROOT
ATOM      1  C   UNL     1     149.523 168.476 192.543  0.00  0.00    +0.108 C 
ATOM      2  H   UNL     1     149.263 169.020 193.460  0.00  0.00    +0.074 HD
ENDROOT
BRANCH   1   3
ATOM      3  C   UNL     1     148.877 169.222 191.359  0.00  0.00    -0.015 C 
ATOM      4  H   UNL     1     149.633 169.500 190.618  0.00  0.00    +0.030 HD
ATOM      5  H   UNL     1     148.160 168.557 190.875  0.00  0.00    +0.030 HD
BRANCH   3   6
ATOM      6  C   UNL     1     148.142 170.494 191.802  0.00  0.00    -0.045 C 
ATOM      7  H   UNL     1     147.465 170.272 192.634  0.00  0.00    +0.027 HD
ATOM      8  H   UNL     1     148.892 171.189 192.205  0.00  0.00    +0.027 HD
BRANCH   6   9
ATOM      9  C   UNL     1     147.377 171.205 190.659  0.00  0.00    -0.017 C 
ATOM     10  H   UNL     1     147.766 170.800 189.717  0.00  0.00    +0.032 HD
BRANCH   9  11
ATOM     11  C   UNL     1     147.738 172.699 190.668  0.00  0.00    -0.060 C 
ATOM     12  H   UNL     1     146.958 173.293 190.177  0.00  0.00    +0.023 HD
ATOM     13  H   UNL     1     147.875 173.082 191.685  0.00  0.00    +0.023 HD
ATOM     14  H   UNL     1     148.670 172.877 190.119  0.00  0.00    +0.023 HD
ENDBRANCH   9  11
BRANCH   9  15
ATOM     15  C   UNL     1     145.828 171.021 190.661  0.00  0.00    +0.064 C 
ATOM     16  H   UNL     1     145.563 170.449 191.557  0.00  0.00    +0.060 HD
BRANCH  15  17
ATOM     17  C   UNL     1     145.310 170.259 189.421  0.00  0.00    +0.011 C 
ATOM     18  H   UNL     1     144.408 170.769 189.056  0.00  0.00    +0.033 HD
ATOM     19  H   UNL     1     146.051 170.304 188.617  0.00  0.00    +0.033 HD
BRANCH  17  20
ATOM     20  C   UNL     1     144.941 168.772 189.645  0.00  0.00    +0.108 C 
ATOM     21  H   UNL     1     144.131 168.520 188.948  0.00  0.00    +0.074 HD
BRANCH  20  22
ATOM     22  C   UNL     1     146.097 167.770 189.394  0.00  0.00    -0.009 C 
ATOM     23  H   UNL     1     146.663 167.631 190.323  0.00  0.00    +0.033 HD
BRANCH  22  24
ATOM     24  C   UNL     1     145.547 166.387 189.016  0.00  0.00    -0.059 C 
ATOM     25  H   UNL     1     144.988 166.430 188.075  0.00  0.00    +0.023 HD
ATOM     26  H   UNL     1     144.872 166.007 189.791  0.00  0.00    +0.023 HD
ATOM     27  H   UNL     1     146.357 165.664 188.883  0.00  0.00    +0.023 HD
ENDBRANCH  22  24
BRANCH  22  28
ATOM     28  C   UNL     1     147.055 168.241 188.299  0.00  0.00    -0.059 C 
ATOM     29  H   UNL     1     147.267 167.434 187.586  0.00  0.00    +0.023 HD
ATOM     30  H   UNL     1     146.651 169.090 187.740  0.00  0.00    +0.023 HD
ATOM     31  H   UNL     1     148.008 168.569 188.730  0.00  0.00    +0.023 HD
ENDBRANCH  22  28
ENDBRANCH  20  22
BRANCH  20  32
ATOM     32  O   UNL     1     144.463 168.557 190.991  0.00  0.00    -0.461 OA
BRANCH  32  33
ATOM     33  C   UNL     1     143.151 168.219 191.127  0.00  0.00    +0.307 C 
ATOM     34  O   UNL     1     142.378 167.999 190.204  0.00  0.00    -0.251 OA
BRANCH  33  35
ATOM     35  C   UNL     1     142.785 168.164 192.591  0.00  0.00    +0.046 C 
ATOM     36  H   UNL     1     142.016 168.918 192.777  0.00  0.00    +0.038 HD
ATOM     37  H   UNL     1     143.675 168.412 193.181  0.00  0.00    +0.038 HD
BRANCH  35  38
ATOM     38  C   UNL     1     142.297 166.767 192.981  0.00  0.00    -0.031 C 
ATOM     39  H   UNL     1     141.869 166.788 193.993  0.00  0.00    +0.028 HD
ATOM     40  H   UNL     1     141.479 166.474 192.313  0.00  0.00    +0.028 HD
BRANCH  38  41
ATOM     41  C   UNL     1     143.396 165.709 192.904  0.00  0.00    -0.006 C 
ATOM     42  H   UNL     1     143.748 165.605 191.872  0.00  0.00    +0.042 HD
ATOM     43  H   UNL     1     142.992 164.737 193.215  0.00  0.00    +0.042 HD
BRANCH  41  44
ATOM     44  N   UNL     1     144.523 166.053 193.767  0.00  0.00    -0.330 NA
ATOM     45  H   UNL     1     145.178 166.635 193.243  0.00  0.00    +0.118 HD
ATOM     46  H   UNL     1     144.190 166.638 194.534  0.00  0.00    +0.118 HD
ENDBRANCH  41  44
ENDBRANCH  38  41
ENDBRANCH  35  38
ENDBRANCH  33  35
ENDBRANCH  32  33
ENDBRANCH  20  32
ENDBRANCH  17  20
ENDBRANCH  15  17
BRANCH  15  47
ATOM     47  O   UNL     1     145.147 172.281 190.715  0.00  0.00    -0.379 OA
BRANCH  47  48
ATOM     48  C   UNL     1     143.745 172.175 190.913  0.00  0.00    +0.037 C 
ATOM     49  H   UNL     1     143.460 171.137 191.105  0.00  0.00    +0.052 HD
ATOM     50  H   UNL     1     143.197 172.570 190.055  0.00  0.00    +0.052 HD
ATOM     51  H   UNL     1     143.483 172.767 191.794  0.00  0.00    +0.052 HD
ENDBRANCH  47  48
ENDBRANCH  15  47
ENDBRANCH   9  15
ENDBRANCH   6   9
ENDBRANCH   3   6
ENDBRANCH   1   3
BRANCH   1  52
ATOM     52  C   UNL     1     151.078 168.380 192.443  0.00  0.00    +0.020 C 
ATOM     53  H   UNL     1     151.449 168.311 193.475  0.00  0.00    +0.036 HD
BRANCH  52  54
ATOM     54  C   UNL     1     151.620 169.688 191.843  0.00  0.00    -0.057 C 
ATOM     55  H   UNL     1     150.800 170.378 191.610  0.00  0.00    +0.023 HD
ATOM     56  H   UNL     1     152.188 169.511 190.921  0.00  0.00    +0.023 HD
ATOM     57  H   UNL     1     152.276 170.208 192.546  0.00  0.00    +0.023 HD
ENDBRANCH  52  54
BRANCH  52  58
ATOM     58  C   UNL     1     151.589 167.111 191.688  0.00  0.00    +0.070 C 
ATOM     59  H   UNL     1     151.030 166.238 192.048  0.00  0.00    +0.061 HD
BRANCH  58  60
ATOM     60  C   UNL     1     151.395 167.164 190.138  0.00  0.00    +0.002 C 
ATOM     61  H   UNL     1     150.744 168.019 189.911  0.00  0.00    +0.037 HD
BRANCH  60  62
ATOM     62  C   UNL     1     152.703 167.312 189.382  0.00  0.00    -0.065 C 
ATOM     63  C   UNL     1     153.274 166.309 188.695  0.00  0.00    -0.005 C 
ATOM     64  H   UNL     1     153.164 168.296 189.438  0.00  0.00    +0.059 HD
ATOM     65  H   UNL     1     152.776 165.340 188.686  0.00  0.00    +0.078 HD
BRANCH  63  66
ATOM     66  N   UNL     1     154.465 166.369 187.988  0.00  0.00    -0.281 N 
ATOM     67  C   UNL     1     154.528 167.060 186.781  0.00  0.00    +0.206 C 
ATOM     68  O   UNL     1     155.501 167.153 186.042  0.00  0.00    -0.279 OA
ATOM     69  H   UNL     1     153.577 167.543 186.514  0.00  0.00    +0.126 HD
BRANCH  66  70
ATOM     70  C   UNL     1     155.681 165.689 188.431  0.00  0.00    +0.016 C 
ATOM     71  H   UNL     1     156.482 165.842 187.701  0.00  0.00    +0.047 HD
ATOM     72  H   UNL     1     155.500 164.607 188.453  0.00  0.00    +0.047 HD
BRANCH  70  73
ATOM     73  C   UNL     1     156.112 166.133 189.819  0.00  0.00    -0.049 C 
ATOM     74  H   UNL     1     156.402 167.190 189.829  0.00  0.00    +0.024 HD
ATOM     75  H   UNL     1     156.964 165.536 190.159  0.00  0.00    +0.024 HD
ATOM     76  H   UNL     1     155.295 166.010 190.536  0.00  0.00    +0.024 HD
ENDBRANCH  70  73
ENDBRANCH  66  70
ENDBRANCH  63  66
ENDBRANCH  60  62
BRANCH  60  77
ATOM     77  C   UNL     1     150.666 165.920 189.615  0.00  0.00    -0.057 C 
ATOM     78  H   UNL     1     150.944 165.682 188.582  0.00  0.00    +0.024 HD
ATOM     79  H   UNL     1     150.890 165.049 190.243  0.00  0.00    +0.024 HD
ATOM     80  H   UNL     1     149.580 166.069 189.637  0.00  0.00    +0.024 HD
ENDBRANCH  60  77
ENDBRANCH  58  60
BRANCH  58  81
ATOM     81  O   UNL     1     152.993 166.948 191.957  0.00  0.00    -0.379 OA
BRANCH  81  82
ATOM     82  C   UNL     1     153.294 166.683 193.321  0.00  0.00    +0.037 C 
ATOM     83  H   UNL     1     153.800 167.535 193.778  0.00  0.00    +0.052 HD
ATOM     84  H   UNL     1     152.389 166.437 193.883  0.00  0.00    +0.052 HD
ATOM     85  H   UNL     1     153.971 165.825 193.354  0.00  0.00    +0.052 HD
ENDBRANCH  81  82
ENDBRANCH  58  81
ENDBRANCH  52  58
ENDBRANCH   1  52
BRANCH   1  86
ATOM     86  O   UNL     1     148.927 167.163 192.591  0.00  0.00    -0.459 OA
BRANCH  86  88
ATOM     87  O   UNL     1     147.183 167.684 193.989  0.00  0.00    -0.248 OA
ATOM     88  C   UNL     1     148.065 166.920 193.617  0.00  0.00    +0.337 C 
BRANCH  88  89
ATOM     89  C   UNL     1     148.387 165.553 194.244  0.00  0.00    +0.155 C 
ATOM     90  O   UNL     1     147.855 165.423 195.574  0.00  0.00    -0.365 OA
ATOM     91  C   UNL     1     148.922 165.537 196.520  0.00  0.00    +0.049 C 
ATOM     92  C   UNL     1     150.164 165.931 195.751  0.00  0.00    -0.027 C 
ATOM     93  C   UNL     1     149.893 165.376 194.371  0.00  0.00    -0.014 C 
ATOM     94  H   UNL     1     147.929 164.775 193.621  0.00  0.00    +0.071 HD
ATOM     95  H   UNL     1     149.051 164.564 197.003  0.00  0.00    +0.056 HD
ATOM     96  H   UNL     1     148.656 166.272 197.283  0.00  0.00    +0.056 HD
ATOM     97  H   UNL     1     151.081 165.548 196.204  0.00  0.00    +0.029 HD
ATOM     98  H   UNL     1     150.246 167.024 195.703  0.00  0.00    +0.029 HD
ATOM     99  H   UNL     1     150.478 165.883 193.599  0.00  0.00    +0.030 HD
ATOM    100  H   UNL     1     150.142 164.305 194.353  0.00  0.00    +0.030 HD
ENDBRANCH  88  89
ENDBRANCH  86  88
ENDBRANCH   1  86
TORSDOF 32
ENDMDL
