MODEL 1
REMARK VINA RESULT:      -5.2      0.000      0.000
REMARK  Name = 2c_conf3
REMARK  32 active torsions:
REMARK  status: ('A' for Active; 'I' for Inactive)
REMARK    1  A    between atoms: N_2  and  C_3
REMARK    2  A    between atoms: N_2  and  C_5
REMARK    3  A    between atoms: C_3  and  C_4
REMARK    4  A    between atoms: C_6  and  C_7
REMARK    5  A    between atoms: C_7  and  C_8
REMARK    6  A    between atoms: C_7  and  C_9
REMARK    7  A    between atoms: C_9  and  O_10
REMARK    8  A    between atoms: C_9  and  C_12
REMARK    9  A    between atoms: O_10  and  C_11
REMARK   10  A    between atoms: C_12  and  C_13
REMARK   11  A    between atoms: C_12  and  C_14
REMARK   12  A    between atoms: C_14  and  O_15
REMARK   13  A    between atoms: C_14  and  C_21
REMARK   14  A    between atoms: O_15  and  C_16
REMARK   15  A    between atoms: C_16  and  C_17
REMARK   16  A    between atoms: C_17  and  C_18
REMARK   17  A    between atoms: C_17  and  C_19
REMARK   18  A    between atoms: C_21  and  C_22
REMARK   19  A    between atoms: C_22  and  C_23
REMARK   20  A    between atoms: C_23  and  C_24
REMARK   21  A    between atoms: C_23  and  C_25
REMARK   22  A    between atoms: C_25  and  O_26
REMARK   23  A    between atoms: C_25  and  C_28
REMARK   24  A    between atoms: O_26  and  C_27
REMARK   25  A    between atoms: C_28  and  C_29
REMARK   26  A    between atoms: C_29  and  O_30
REMARK   27  A    between atoms: C_29  and  C_35
REMARK   28  A    between atoms: O_30  and  C_31
REMARK   29  A    between atoms: C_31  and  C_32
REMARK   30  A    between atoms: C_32  and  C_33
REMARK   31  A    between atoms: C_35  and  C_36
REMARK   32  A    between atoms: C_35  and  C_37
REMARK                            x       y       z     vdW  Elec       q    Type
REMARK                         _______ _______ _______ _____ _____    ______ ____
ROOT
ATOM      1  C   UNL     1     148.384 169.165 190.841  0.00  0.00    +0.108 C 
ATOM      2  H   UNL     1     149.263 169.571 190.336  0.00  0.00    +0.074 HD
ENDROOT
BRANCH   1   3
ATOM      3  C   UNL     1     147.390 168.657 189.771  0.00  0.00    -0.015 C 
ATOM      4  H   UNL     1     147.638 169.103 188.802  0.00  0.00    +0.030 HD
ATOM      5  H   UNL     1     147.516 167.572 189.672  0.00  0.00    +0.030 HD
BRANCH   3   6
ATOM      6  C   UNL     1     145.918 168.937 190.114  0.00  0.00    -0.045 C 
ATOM      7  H   UNL     1     145.899 169.457 191.080  0.00  0.00    +0.027 HD
ATOM      8  H   UNL     1     145.512 169.648 189.390  0.00  0.00    +0.027 HD
BRANCH   6   9
ATOM      9  C   UNL     1     144.991 167.705 190.262  0.00  0.00    -0.017 C 
ATOM     10  H   UNL     1     144.459 167.836 191.217  0.00  0.00    +0.032 HD
BRANCH   9  11
ATOM     11  C   UNL     1     145.775 166.397 190.428  0.00  0.00    -0.060 C 
ATOM     12  H   UNL     1     145.152 165.616 190.875  0.00  0.00    +0.023 HD
ATOM     13  H   UNL     1     146.628 166.538 191.100  0.00  0.00    +0.023 HD
ATOM     14  H   UNL     1     146.148 166.025 189.469  0.00  0.00    +0.023 HD
ENDBRANCH   9  11
BRANCH   9  15
ATOM     15  C   UNL     1     143.881 167.610 189.166  0.00  0.00    +0.064 C 
ATOM     16  H   UNL     1     144.117 168.278 188.328  0.00  0.00    +0.060 HD
BRANCH  15  17
ATOM     17  C   UNL     1     142.498 167.980 189.755  0.00  0.00    +0.011 C 
ATOM     18  H   UNL     1     142.110 168.830 189.184  0.00  0.00    +0.033 HD
ATOM     19  H   UNL     1     141.810 167.141 189.607  0.00  0.00    +0.033 HD
BRANCH  17  20
ATOM     20  C   UNL     1     142.484 168.358 191.252  0.00  0.00    +0.108 C 
ATOM     21  H   UNL     1     143.515 168.365 191.626  0.00  0.00    +0.074 HD
BRANCH  20  22
ATOM     22  C   UNL     1     141.848 169.763 191.477  0.00  0.00    -0.009 C 
ATOM     23  H   UNL     1     141.619 169.870 192.545  0.00  0.00    +0.033 HD
BRANCH  22  24
ATOM     24  C   UNL     1     140.548 169.955 190.688  0.00  0.00    -0.059 C 
ATOM     25  H   UNL     1     140.351 169.094 190.040  0.00  0.00    +0.023 HD
ATOM     26  H   UNL     1     139.693 170.075 191.360  0.00  0.00    +0.023 HD
ATOM     27  H   UNL     1     140.599 170.830 190.034  0.00  0.00    +0.023 HD
ENDBRANCH  22  24
BRANCH  22  28
ATOM     28  C   UNL     1     142.810 170.903 191.120  0.00  0.00    -0.059 C 
ATOM     29  H   UNL     1     143.590 171.016 191.881  0.00  0.00    +0.023 HD
ATOM     30  H   UNL     1     142.280 171.855 191.017  0.00  0.00    +0.023 HD
ATOM     31  H   UNL     1     143.302 170.711 190.160  0.00  0.00    +0.023 HD
ENDBRANCH  22  28
ENDBRANCH  20  22
BRANCH  20  32
ATOM     32  O   UNL     1     141.683 167.371 191.940  0.00  0.00    -0.461 OA
BRANCH  32  33
ATOM     33  C   UNL     1     142.338 166.284 192.442  0.00  0.00    +0.307 C 
ATOM     34  O   UNL     1     142.335 165.163 191.953  0.00  0.00    -0.251 OA
BRANCH  33  35
ATOM     35  C   UNL     1     143.060 166.667 193.709  0.00  0.00    +0.042 C 
ATOM     36  H   UNL     1     143.249 167.745 193.692  0.00  0.00    +0.037 HD
ATOM     37  H   UNL     1     142.411 166.423 194.555  0.00  0.00    +0.037 HD
BRANCH  35  38
ATOM     38  C   UNL     1     144.384 165.938 193.853  0.00  0.00    -0.055 C 
ATOM     39  H   UNL     1     144.686 165.900 194.905  0.00  0.00    +0.023 HD
ATOM     40  H   UNL     1     145.172 166.442 193.281  0.00  0.00    +0.023 HD
ATOM     41  H   UNL     1     144.307 164.910 193.481  0.00  0.00    +0.023 HD
ENDBRANCH  35  38
ENDBRANCH  33  35
ENDBRANCH  32  33
ENDBRANCH  20  32
ENDBRANCH  17  20
ENDBRANCH  15  17
BRANCH  15  42
ATOM     42  O   UNL     1     143.801 166.245 188.732  0.00  0.00    -0.379 OA
BRANCH  42  43
ATOM     43  C   UNL     1     142.475 165.809 188.469  0.00  0.00    +0.037 C 
ATOM     44  H   UNL     1     142.456 164.716 188.512  0.00  0.00    +0.052 HD
ATOM     45  H   UNL     1     141.779 166.201 189.214  0.00  0.00    +0.052 HD
ATOM     46  H   UNL     1     142.155 166.121 187.471  0.00  0.00    +0.052 HD
ENDBRANCH  42  43
ENDBRANCH  15  42
ENDBRANCH   9  15
ENDBRANCH   6   9
ENDBRANCH   3   6
ENDBRANCH   1   3
BRANCH   1  47
ATOM     47  C   UNL     1     148.821 168.055 191.833  0.00  0.00    +0.020 C 
ATOM     48  H   UNL     1     148.624 167.104 191.317  0.00  0.00    +0.036 HD
BRANCH  47  49
ATOM     49  C   UNL     1     147.878 167.996 193.047  0.00  0.00    -0.057 C 
ATOM     50  H   UNL     1     148.343 167.497 193.903  0.00  0.00    +0.023 HD
ATOM     51  H   UNL     1     147.546 168.993 193.352  0.00  0.00    +0.023 HD
ATOM     52  H   UNL     1     146.977 167.421 192.803  0.00  0.00    +0.023 HD
ENDBRANCH  47  49
BRANCH  47  53
ATOM     53  C   UNL     1     150.329 168.033 192.211  0.00  0.00    +0.070 C 
ATOM     54  H   UNL     1     150.429 168.418 193.235  0.00  0.00    +0.061 HD
BRANCH  53  55
ATOM     55  C   UNL     1     151.141 166.703 192.167  0.00  0.00    +0.002 C 
ATOM     56  H   UNL     1     152.189 167.012 192.310  0.00  0.00    +0.037 HD
BRANCH  55  58
ATOM     57  C   UNL     1     150.620 166.119 194.543  0.00  0.00    -0.005 C 
ATOM     58  C   UNL     1     150.805 165.726 193.274  0.00  0.00    -0.065 C 
ATOM     59  H   UNL     1     150.692 167.182 194.772  0.00  0.00    +0.078 HD
ATOM     60  H   UNL     1     150.768 164.681 192.987  0.00  0.00    +0.059 HD
BRANCH  57  62
ATOM     61  C   UNL     1     150.967 164.094 195.906  0.00  0.00    +0.206 C 
ATOM     62  N   UNL     1     150.359 165.317 195.644  0.00  0.00    -0.281 N 
ATOM     63  O   UNL     1     150.784 163.405 196.904  0.00  0.00    -0.279 OA
ATOM     64  H   UNL     1     151.666 163.762 195.124  0.00  0.00    +0.126 HD
BRANCH  62  65
ATOM     65  C   UNL     1     149.413 165.823 196.646  0.00  0.00    +0.016 C 
ATOM     66  H   UNL     1     149.465 165.193 197.542  0.00  0.00    +0.047 HD
ATOM     67  H   UNL     1     149.714 166.832 196.953  0.00  0.00    +0.047 HD
BRANCH  65  68
ATOM     68  C   UNL     1     147.988 165.872 196.111  0.00  0.00    -0.049 C 
ATOM     69  H   UNL     1     147.437 166.697 196.575  0.00  0.00    +0.024 HD
ATOM     70  H   UNL     1     147.452 164.939 196.325  0.00  0.00    +0.024 HD
ATOM     71  H   UNL     1     147.980 166.022 195.027  0.00  0.00    +0.024 HD
ENDBRANCH  65  68
ENDBRANCH  62  65
ENDBRANCH  57  62
ENDBRANCH  55  58
BRANCH  55  72
ATOM     72  C   UNL     1     151.159 165.975 190.820  0.00  0.00    -0.057 C 
ATOM     73  H   UNL     1     151.133 166.700 189.996  0.00  0.00    +0.024 HD
ATOM     74  H   UNL     1     150.289 165.322 190.700  0.00  0.00    +0.024 HD
ATOM     75  H   UNL     1     152.066 165.381 190.680  0.00  0.00    +0.024 HD
ENDBRANCH  55  72
ENDBRANCH  53  55
BRANCH  53  76
ATOM     76  O   UNL     1     151.036 168.947 191.339  0.00  0.00    -0.379 OA
BRANCH  76  77
ATOM     77  C   UNL     1     151.749 169.965 192.033  0.00  0.00    +0.037 C 
ATOM     78  H   UNL     1     152.083 169.603 193.009  0.00  0.00    +0.052 HD
ATOM     79  H   UNL     1     152.631 170.226 191.442  0.00  0.00    +0.052 HD
ATOM     80  H   UNL     1     151.139 170.863 192.152  0.00  0.00    +0.052 HD
ENDBRANCH  76  77
ENDBRANCH  53  76
ENDBRANCH  47  53
ENDBRANCH   1  47
BRANCH   1  81
ATOM     81  O   UNL     1     147.731 170.198 191.622  0.00  0.00    -0.461 OA
BRANCH  81  82
ATOM     82  C   UNL     1     148.322 171.425 191.646  0.00  0.00    +0.310 C 
ATOM     83  O   UNL     1     148.922 171.939 190.711  0.00  0.00    -0.251 OA
BRANCH  82  84
ATOM     84  C   UNL     1     148.136 172.099 192.991  0.00  0.00    +0.051 C 
ATOM     85  H   UNL     1     147.629 171.373 193.640  0.00  0.00    +0.041 HD
BRANCH  84  86
ATOM     86  C   UNL     1     149.483 172.440 193.619  0.00  0.00    -0.053 C 
ATOM     87  H   UNL     1     150.019 173.177 193.012  0.00  0.00    +0.024 HD
ATOM     88  H   UNL     1     150.107 171.545 193.702  0.00  0.00    +0.024 HD
ATOM     89  H   UNL     1     149.362 172.863 194.622  0.00  0.00    +0.024 HD
ENDBRANCH  84  86
BRANCH  84  90
ATOM     90  C   UNL     1     147.238 173.324 192.864  0.00  0.00    -0.053 C 
ATOM     91  H   UNL     1     147.514 174.087 193.600  0.00  0.00    +0.024 HD
ATOM     92  H   UNL     1     146.186 173.072 193.029  0.00  0.00    +0.024 HD
ATOM     93  H   UNL     1     147.326 173.767 191.867  0.00  0.00    +0.024 HD
ENDBRANCH  84  90
ENDBRANCH  82  84
ENDBRANCH  81  82
ENDBRANCH   1  81
TORSDOF 32
ENDMDL
MODEL 2
REMARK VINA RESULT:      -4.9      2.325      6.976
REMARK  Name = 2c_conf3
REMARK  32 active torsions:
REMARK  status: ('A' for Active; 'I' for Inactive)
REMARK    1  A    between atoms: N_2  and  C_3
REMARK    2  A    between atoms: N_2  and  C_5
REMARK    3  A    between atoms: C_3  and  C_4
REMARK    4  A    between atoms: C_6  and  C_7
REMARK    5  A    between atoms: C_7  and  C_8
REMARK    6  A    between atoms: C_7  and  C_9
REMARK    7  A    between atoms: C_9  and  O_10
REMARK    8  A    between atoms: C_9  and  C_12
REMARK    9  A    between atoms: O_10  and  C_11
REMARK   10  A    between atoms: C_12  and  C_13
REMARK   11  A    between atoms: C_12  and  C_14
REMARK   12  A    between atoms: C_14  and  O_15
REMARK   13  A    between atoms: C_14  and  C_21
REMARK   14  A    between atoms: O_15  and  C_16
REMARK   15  A    between atoms: C_16  and  C_17
REMARK   16  A    between atoms: C_17  and  C_18
REMARK   17  A    between atoms: C_17  and  C_19
REMARK   18  A    between atoms: C_21  and  C_22
REMARK   19  A    between atoms: C_22  and  C_23
REMARK   20  A    between atoms: C_23  and  C_24
REMARK   21  A    between atoms: C_23  and  C_25
REMARK   22  A    between atoms: C_25  and  O_26
REMARK   23  A    between atoms: C_25  and  C_28
REMARK   24  A    between atoms: O_26  and  C_27
REMARK   25  A    between atoms: C_28  and  C_29
REMARK   26  A    between atoms: C_29  and  O_30
REMARK   27  A    between atoms: C_29  and  C_35
REMARK   28  A    between atoms: O_30  and  C_31
REMARK   29  A    between atoms: C_31  and  C_32
REMARK   30  A    between atoms: C_32  and  C_33
REMARK   31  A    between atoms: C_35  and  C_36
REMARK   32  A    between atoms: C_35  and  C_37
REMARK                            x       y       z     vdW  Elec       q    Type
REMARK                         _______ _______ _______ _____ _____    ______ ____
ROOT
ATOM      1  C   UNL     1     147.275 169.928 191.193  0.00  0.00    +0.108 C 
ATOM      2  H   UNL     1     146.727 170.462 191.973  0.00  0.00    +0.074 HD
ENDROOT
BRANCH   1   3
ATOM      3  C   UNL     1     147.914 168.665 191.816  0.00  0.00    -0.015 C 
ATOM      4  H   UNL     1     147.629 168.594 192.870  0.00  0.00    +0.030 HD
ATOM      5  H   UNL     1     147.503 167.785 191.307  0.00  0.00    +0.030 HD
BRANCH   3   6
ATOM      6  C   UNL     1     149.445 168.619 191.684  0.00  0.00    -0.045 C 
ATOM      7  H   UNL     1     149.757 169.529 191.156  0.00  0.00    +0.027 HD
ATOM      8  H   UNL     1     149.891 168.690 192.679  0.00  0.00    +0.027 HD
BRANCH   6   9
ATOM      9  C   UNL     1     150.040 167.429 190.892  0.00  0.00    -0.017 C 
ATOM     10  H   UNL     1     150.797 167.859 190.217  0.00  0.00    +0.032 HD
BRANCH   9  11
ATOM     11  C   UNL     1     149.015 166.771 189.960  0.00  0.00    -0.060 C 
ATOM     12  H   UNL     1     148.637 167.485 189.221  0.00  0.00    +0.023 HD
ATOM     13  H   UNL     1     148.146 166.418 190.526  0.00  0.00    +0.023 HD
ATOM     14  H   UNL     1     149.445 165.922 189.421  0.00  0.00    +0.023 HD
ENDBRANCH   9  11
BRANCH   9  15
ATOM     15  C   UNL     1     150.804 166.393 191.780  0.00  0.00    +0.064 C 
ATOM     16  H   UNL     1     150.398 165.385 191.621  0.00  0.00    +0.060 HD
BRANCH  15  17
ATOM     17  C   UNL     1     150.694 166.770 193.277  0.00  0.00    +0.011 C 
ATOM     18  H   UNL     1     151.711 166.866 193.671  0.00  0.00    +0.033 HD
ATOM     19  H   UNL     1     150.212 167.750 193.364  0.00  0.00    +0.033 HD
BRANCH  17  20
ATOM     20  C   UNL     1     149.923 165.772 194.167  0.00  0.00    +0.108 C 
ATOM     21  H   UNL     1     149.889 164.799 193.662  0.00  0.00    +0.074 HD
BRANCH  20  22
ATOM     22  C   UNL     1     150.609 165.603 195.556  0.00  0.00    -0.009 C 
ATOM     23  H   UNL     1     151.528 166.204 195.562  0.00  0.00    +0.033 HD
BRANCH  22  24
ATOM     24  C   UNL     1     150.989 164.148 195.852  0.00  0.00    -0.059 C 
ATOM     25  H   UNL     1     152.071 164.000 195.773  0.00  0.00    +0.023 HD
ATOM     26  H   UNL     1     150.681 163.857 196.862  0.00  0.00    +0.023 HD
ATOM     27  H   UNL     1     150.527 163.458 195.139  0.00  0.00    +0.023 HD
ENDBRANCH  22  24
BRANCH  22  28
ATOM     28  C   UNL     1     149.739 166.125 196.706  0.00  0.00    -0.059 C 
ATOM     29  H   UNL     1     149.010 166.860 196.348  0.00  0.00    +0.023 HD
ATOM     30  H   UNL     1     150.348 166.588 197.489  0.00  0.00    +0.023 HD
ATOM     31  H   UNL     1     149.186 165.306 197.179  0.00  0.00    +0.023 HD
ENDBRANCH  22  28
ENDBRANCH  20  22
BRANCH  20  32
ATOM     32  O   UNL     1     148.595 166.306 194.368  0.00  0.00    -0.461 OA
BRANCH  32  33
ATOM     33  C   UNL     1     147.554 165.579 193.867  0.00  0.00    +0.307 C 
ATOM     34  O   UNL     1     147.413 165.251 192.697  0.00  0.00    -0.251 OA
BRANCH  33  35
ATOM     35  C   UNL     1     146.586 165.250 194.975  0.00  0.00    +0.042 C 
ATOM     36  H   UNL     1     146.774 164.226 195.311  0.00  0.00    +0.037 HD
ATOM     37  H   UNL     1     146.767 165.945 195.800  0.00  0.00    +0.037 HD
BRANCH  35  38
ATOM     38  C   UNL     1     145.141 165.362 194.520  0.00  0.00    -0.055 C 
ATOM     39  H   UNL     1     144.889 166.406 194.307  0.00  0.00    +0.023 HD
ATOM     40  H   UNL     1     144.459 164.988 195.292  0.00  0.00    +0.023 HD
ATOM     41  H   UNL     1     144.971 164.775 193.610  0.00  0.00    +0.023 HD
ENDBRANCH  35  38
ENDBRANCH  33  35
ENDBRANCH  32  33
ENDBRANCH  20  32
ENDBRANCH  17  20
ENDBRANCH  15  17
BRANCH  15  42
ATOM     42  O   UNL     1     152.194 166.451 191.432  0.00  0.00    -0.379 OA
BRANCH  42  43
ATOM     43  C   UNL     1     152.763 165.179 191.155  0.00  0.00    +0.037 C 
ATOM     44  H   UNL     1     151.990 164.543 190.715  0.00  0.00    +0.052 HD
ATOM     45  H   UNL     1     153.590 165.267 190.446  0.00  0.00    +0.052 HD
ATOM     46  H   UNL     1     153.120 164.705 192.073  0.00  0.00    +0.052 HD
ENDBRANCH  42  43
ENDBRANCH  15  42
ENDBRANCH   9  15
ENDBRANCH   6   9
ENDBRANCH   3   6
ENDBRANCH   1   3
BRANCH   1  47
ATOM     47  C   UNL     1     146.319 169.602 190.015  0.00  0.00    +0.020 C 
ATOM     48  H   UNL     1     146.052 168.542 190.137  0.00  0.00    +0.036 HD
BRANCH  47  49
ATOM     49  C   UNL     1     147.070 169.621 188.673  0.00  0.00    -0.057 C 
ATOM     50  H   UNL     1     148.126 169.881 188.799  0.00  0.00    +0.023 HD
ATOM     51  H   UNL     1     146.998 168.662 188.153  0.00  0.00    +0.023 HD
ATOM     52  H   UNL     1     146.640 170.378 188.007  0.00  0.00    +0.023 HD
ENDBRANCH  47  49
BRANCH  47  53
ATOM     53  C   UNL     1     144.974 170.382 189.992  0.00  0.00    +0.070 C 
ATOM     54  H   UNL     1     144.954 170.997 189.082  0.00  0.00    +0.061 HD
BRANCH  53  55
ATOM     55  C   UNL     1     143.614 169.624 190.034  0.00  0.00    +0.002 C 
ATOM     56  H   UNL     1     143.098 169.925 189.107  0.00  0.00    +0.037 HD
BRANCH  55  58
ATOM     57  C   UNL     1     142.859 167.317 190.637  0.00  0.00    -0.005 C 
ATOM     58  C   UNL     1     143.736 168.115 190.011  0.00  0.00    -0.065 C 
ATOM     59  H   UNL     1     142.019 167.778 191.158  0.00  0.00    +0.078 HD
ATOM     60  H   UNL     1     144.603 167.719 189.494  0.00  0.00    +0.059 HD
BRANCH  57  62
ATOM     61  C   UNL     1     143.327 165.076 189.722  0.00  0.00    +0.206 C 
ATOM     62  N   UNL     1     142.893 165.934 190.727  0.00  0.00    -0.281 N 
ATOM     63  O   UNL     1     143.414 163.856 189.812  0.00  0.00    -0.279 OA
ATOM     64  H   UNL     1     143.608 165.584 188.788  0.00  0.00    +0.126 HD
BRANCH  62  65
ATOM     65  C   UNL     1     142.501 165.325 192.005  0.00  0.00    +0.016 C 
ATOM     66  H   UNL     1     141.790 164.511 191.814  0.00  0.00    +0.047 HD
ATOM     67  H   UNL     1     143.380 164.869 192.475  0.00  0.00    +0.047 HD
BRANCH  65  68
ATOM     68  C   UNL     1     141.899 166.345 192.961  0.00  0.00    -0.049 C 
ATOM     69  H   UNL     1     141.172 165.861 193.623  0.00  0.00    +0.024 HD
ATOM     70  H   UNL     1     141.385 167.145 192.416  0.00  0.00    +0.024 HD
ATOM     71  H   UNL     1     142.672 166.806 193.582  0.00  0.00    +0.024 HD
ENDBRANCH  65  68
ENDBRANCH  62  65
ENDBRANCH  57  62
ENDBRANCH  55  58
BRANCH  55  72
ATOM     72  C   UNL     1     142.644 170.049 191.141  0.00  0.00    -0.057 C 
ATOM     73  H   UNL     1     143.199 170.316 192.049  0.00  0.00    +0.024 HD
ATOM     74  H   UNL     1     141.956 169.242 191.409  0.00  0.00    +0.024 HD
ATOM     75  H   UNL     1     142.060 170.932 190.865  0.00  0.00    +0.024 HD
ENDBRANCH  55  72
ENDBRANCH  53  55
BRANCH  53  76
ATOM     76  O   UNL     1     144.948 171.288 191.121  0.00  0.00    -0.379 OA
BRANCH  76  77
ATOM     77  C   UNL     1     144.595 172.623 190.777  0.00  0.00    +0.037 C 
ATOM     78  H   UNL     1     144.043 173.097 191.594  0.00  0.00    +0.052 HD
ATOM     79  H   UNL     1     145.516 173.188 190.611  0.00  0.00    +0.052 HD
ATOM     80  H   UNL     1     144.005 172.651 189.858  0.00  0.00    +0.052 HD
ENDBRANCH  76  77
ENDBRANCH  53  76
ENDBRANCH  47  53
ENDBRANCH   1  47
BRANCH   1  81
ATOM     81  O   UNL     1     148.333 170.763 190.661  0.00  0.00    -0.461 OA
BRANCH  81  82
ATOM     82  C   UNL     1     148.375 172.058 191.084  0.00  0.00    +0.310 C 
ATOM     83  O   UNL     1     148.510 173.034 190.357  0.00  0.00    -0.251 OA
BRANCH  82  84
ATOM     84  C   UNL     1     148.219 172.152 192.588  0.00  0.00    +0.051 C 
ATOM     85  H   UNL     1     147.688 171.245 192.907  0.00  0.00    +0.041 HD
BRANCH  84  86
ATOM     86  C   UNL     1     149.580 172.173 193.275  0.00  0.00    -0.053 C 
ATOM     87  H   UNL     1     149.553 171.603 194.209  0.00  0.00    +0.024 HD
ATOM     88  H   UNL     1     149.878 173.200 193.510  0.00  0.00    +0.024 HD
ATOM     89  H   UNL     1     150.357 171.732 192.641  0.00  0.00    +0.024 HD
ENDBRANCH  84  86
BRANCH  84  90
ATOM     90  C   UNL     1     147.367 173.355 192.972  0.00  0.00    -0.053 C 
ATOM     91  H   UNL     1     147.005 173.877 192.079  0.00  0.00    +0.024 HD
ATOM     92  H   UNL     1     147.932 174.078 193.569  0.00  0.00    +0.024 HD
ATOM     93  H   UNL     1     146.497 173.043 193.558  0.00  0.00    +0.024 HD
ENDBRANCH  84  90
ENDBRANCH  82  84
ENDBRANCH  81  82
ENDBRANCH   1  81
TORSDOF 32
ENDMDL
MODEL 3
REMARK VINA RESULT:      -4.9      2.482      4.330
REMARK  Name = 2c_conf3
REMARK  32 active torsions:
REMARK  status: ('A' for Active; 'I' for Inactive)
REMARK    1  A    between atoms: N_2  and  C_3
REMARK    2  A    between atoms: N_2  and  C_5
REMARK    3  A    between atoms: C_3  and  C_4
REMARK    4  A    between atoms: C_6  and  C_7
REMARK    5  A    between atoms: C_7  and  C_8
REMARK    6  A    between atoms: C_7  and  C_9
REMARK    7  A    between atoms: C_9  and  O_10
REMARK    8  A    between atoms: C_9  and  C_12
REMARK    9  A    between atoms: O_10  and  C_11
REMARK   10  A    between atoms: C_12  and  C_13
REMARK   11  A    between atoms: C_12  and  C_14
REMARK   12  A    between atoms: C_14  and  O_15
REMARK   13  A    between atoms: C_14  and  C_21
REMARK   14  A    between atoms: O_15  and  C_16
REMARK   15  A    between atoms: C_16  and  C_17
REMARK   16  A    between atoms: C_17  and  C_18
REMARK   17  A    between atoms: C_17  and  C_19
REMARK   18  A    between atoms: C_21  and  C_22
REMARK   19  A    between atoms: C_22  and  C_23
REMARK   20  A    between atoms: C_23  and  C_24
REMARK   21  A    between atoms: C_23  and  C_25
REMARK   22  A    between atoms: C_25  and  O_26
REMARK   23  A    between atoms: C_25  and  C_28
REMARK   24  A    between atoms: O_26  and  C_27
REMARK   25  A    between atoms: C_28  and  C_29
REMARK   26  A    between atoms: C_29  and  O_30
REMARK   27  A    between atoms: C_29  and  C_35
REMARK   28  A    between atoms: O_30  and  C_31
REMARK   29  A    between atoms: C_31  and  C_32
REMARK   30  A    between atoms: C_32  and  C_33
REMARK   31  A    between atoms: C_35  and  C_36
REMARK   32  A    between atoms: C_35  and  C_37
REMARK                            x       y       z     vdW  Elec       q    Type
REMARK                         _______ _______ _______ _____ _____    ______ ____
ROOT
ATOM      1  C   UNL     1     148.979 169.433 191.401  0.00  0.00    +0.108 C 
ATOM      2  H   UNL     1     149.235 169.808 190.407  0.00  0.00    +0.074 HD
ENDROOT
BRANCH   1   3
ATOM      3  C   UNL     1     147.894 168.341 191.251  0.00  0.00    -0.015 C 
ATOM      4  H   UNL     1     148.231 167.421 191.738  0.00  0.00    +0.030 HD
ATOM      5  H   UNL     1     146.993 168.678 191.778  0.00  0.00    +0.030 HD
BRANCH   3   6
ATOM      6  C   UNL     1     147.509 168.050 189.791  0.00  0.00    -0.045 C 
ATOM      7  H   UNL     1     146.957 168.921 189.416  0.00  0.00    +0.027 HD
ATOM      8  H   UNL     1     148.417 167.996 189.187  0.00  0.00    +0.027 HD
BRANCH   6   9
ATOM      9  C   UNL     1     146.603 166.818 189.542  0.00  0.00    -0.017 C 
ATOM     10  H   UNL     1     147.120 165.961 190.001  0.00  0.00    +0.032 HD
BRANCH   9  11
ATOM     11  C   UNL     1     146.495 166.460 188.055  0.00  0.00    -0.060 C 
ATOM     12  H   UNL     1     146.680 167.334 187.423  0.00  0.00    +0.023 HD
ATOM     13  H   UNL     1     145.488 166.106 187.812  0.00  0.00    +0.023 HD
ATOM     14  H   UNL     1     147.212 165.682 187.774  0.00  0.00    +0.023 HD
ENDBRANCH   9  11
BRANCH   9  15
ATOM     15  C   UNL     1     145.211 166.901 190.248  0.00  0.00    +0.064 C 
ATOM     16  H   UNL     1     145.060 167.901 190.674  0.00  0.00    +0.060 HD
BRANCH  15  17
ATOM     17  C   UNL     1     145.100 165.835 191.366  0.00  0.00    +0.011 C 
ATOM     18  H   UNL     1     144.222 165.218 191.150  0.00  0.00    +0.033 HD
ATOM     19  H   UNL     1     145.979 165.184 191.327  0.00  0.00    +0.033 HD
BRANCH  17  20
ATOM     20  C   UNL     1     144.967 166.381 192.804  0.00  0.00    +0.108 C 
ATOM     21  H   UNL     1     145.165 167.459 192.794  0.00  0.00    +0.074 HD
BRANCH  20  22
ATOM     22  C   UNL     1     143.539 166.130 193.376  0.00  0.00    -0.009 C 
ATOM     23  H   UNL     1     143.638 165.580 194.320  0.00  0.00    +0.033 HD
BRANCH  22  24
ATOM     24  C   UNL     1     142.663 165.300 192.430  0.00  0.00    -0.059 C 
ATOM     25  H   UNL     1     142.573 164.268 192.782  0.00  0.00    +0.023 HD
ATOM     26  H   UNL     1     141.655 165.721 192.355  0.00  0.00    +0.023 HD
ATOM     27  H   UNL     1     143.091 165.250 191.424  0.00  0.00    +0.023 HD
ENDBRANCH  22  24
BRANCH  22  28
ATOM     28  C   UNL     1     142.803 167.434 193.705  0.00  0.00    -0.059 C 
ATOM     29  H   UNL     1     141.917 167.559 193.073  0.00  0.00    +0.023 HD
ATOM     30  H   UNL     1     143.455 168.304 193.571  0.00  0.00    +0.023 HD
ATOM     31  H   UNL     1     142.475 167.443 194.750  0.00  0.00    +0.023 HD
ENDBRANCH  22  28
ENDBRANCH  20  22
BRANCH  20  32
ATOM     32  O   UNL     1     145.925 165.677 193.625  0.00  0.00    -0.461 OA
BRANCH  32  33
ATOM     33  C   UNL     1     146.774 166.439 194.374  0.00  0.00    +0.307 C 
ATOM     34  O   UNL     1     146.946 167.644 194.252  0.00  0.00    -0.251 OA
BRANCH  33  35
ATOM     35  C   UNL     1     147.488 165.566 195.375  0.00  0.00    +0.042 C 
ATOM     36  H   UNL     1     146.815 164.760 195.680  0.00  0.00    +0.037 HD
ATOM     37  H   UNL     1     148.369 165.141 194.886  0.00  0.00    +0.037 HD
BRANCH  35  38
ATOM     38  C   UNL     1     147.914 166.345 196.607  0.00  0.00    -0.055 C 
ATOM     39  H   UNL     1     147.185 167.131 196.831  0.00  0.00    +0.023 HD
ATOM     40  H   UNL     1     148.894 166.810 196.456  0.00  0.00    +0.023 HD
ATOM     41  H   UNL     1     147.988 165.686 197.480  0.00  0.00    +0.023 HD
ENDBRANCH  35  38
ENDBRANCH  33  35
ENDBRANCH  32  33
ENDBRANCH  20  32
ENDBRANCH  17  20
ENDBRANCH  15  17
BRANCH  15  42
ATOM     42  O   UNL     1     144.202 166.596 189.275  0.00  0.00    -0.379 OA
BRANCH  42  43
ATOM     43  C   UNL     1     143.051 167.423 189.371  0.00  0.00    +0.037 C 
ATOM     44  H   UNL     1     142.739 167.698 188.360  0.00  0.00    +0.052 HD
ATOM     45  H   UNL     1     142.230 166.895 189.861  0.00  0.00    +0.052 HD
ATOM     46  H   UNL     1     143.277 168.339 189.924  0.00  0.00    +0.052 HD
ENDBRANCH  42  43
ENDBRANCH  15  42
ENDBRANCH   9  15
ENDBRANCH   6   9
ENDBRANCH   3   6
ENDBRANCH   1   3
BRANCH   1  47
ATOM     47  C   UNL     1     150.260 168.917 192.107  0.00  0.00    +0.020 C 
ATOM     48  H   UNL     1     150.051 168.987 193.184  0.00  0.00    +0.036 HD
BRANCH  47  49
ATOM     49  C   UNL     1     151.430 169.896 191.914  0.00  0.00    -0.057 C 
ATOM     50  H   UNL     1     151.257 170.581 191.077  0.00  0.00    +0.023 HD
ATOM     51  H   UNL     1     151.625 170.480 192.818  0.00  0.00    +0.023 HD
ATOM     52  H   UNL     1     152.351 169.349 191.683  0.00  0.00    +0.023 HD
ENDBRANCH  47  49
BRANCH  47  53
ATOM     53  C   UNL     1     150.636 167.431 191.840  0.00  0.00    +0.070 C 
ATOM     54  H   UNL     1     149.718 166.832 191.902  0.00  0.00    +0.061 HD
BRANCH  53  55
ATOM     55  C   UNL     1     151.337 167.015 190.513  0.00  0.00    +0.002 C 
ATOM     56  H   UNL     1     151.307 167.921 189.886  0.00  0.00    +0.037 HD
BRANCH  55  58
ATOM     57  C   UNL     1     153.386 165.743 189.849  0.00  0.00    -0.005 C 
ATOM     58  C   UNL     1     152.792 166.624 190.667  0.00  0.00    -0.065 C 
ATOM     59  H   UNL     1     152.800 165.317 189.034  0.00  0.00    +0.078 HD
ATOM     60  H   UNL     1     153.313 167.066 191.509  0.00  0.00    +0.059 HD
BRANCH  57  62
ATOM     61  C   UNL     1     155.796 166.034 190.278  0.00  0.00    +0.206 C 
ATOM     62  N   UNL     1     154.688 165.272 189.920  0.00  0.00    -0.281 N 
ATOM     63  O   UNL     1     156.942 165.613 190.399  0.00  0.00    -0.279 OA
ATOM     64  H   UNL     1     155.572 167.094 190.462  0.00  0.00    +0.126 HD
BRANCH  62  65
ATOM     65  C   UNL     1     154.912 163.845 189.660  0.00  0.00    +0.016 C 
ATOM     66  H   UNL     1     155.558 163.735 188.780  0.00  0.00    +0.047 HD
ATOM     67  H   UNL     1     155.454 163.401 190.504  0.00  0.00    +0.047 HD
BRANCH  65  68
ATOM     68  C   UNL     1     153.605 163.091 189.458  0.00  0.00    -0.049 C 
ATOM     69  H   UNL     1     153.625 162.143 190.006  0.00  0.00    +0.024 HD
ATOM     70  H   UNL     1     153.435 162.869 188.398  0.00  0.00    +0.024 HD
ATOM     71  H   UNL     1     152.753 163.676 189.818  0.00  0.00    +0.024 HD
ENDBRANCH  65  68
ENDBRANCH  62  65
ENDBRANCH  57  62
ENDBRANCH  55  58
BRANCH  55  72
ATOM     72  C   UNL     1     150.605 165.967 189.669  0.00  0.00    -0.057 C 
ATOM     73  H   UNL     1     149.927 165.378 190.300  0.00  0.00    +0.024 HD
ATOM     74  H   UNL     1     151.301 165.264 189.202  0.00  0.00    +0.024 HD
ATOM     75  H   UNL     1     149.985 166.419 188.889  0.00  0.00    +0.024 HD
ENDBRANCH  55  72
ENDBRANCH  53  55
BRANCH  53  76
ATOM     76  O   UNL     1     151.514 166.982 192.900  0.00  0.00    -0.379 OA
BRANCH  76  77
ATOM     77  C   UNL     1     150.889 166.101 193.827  0.00  0.00    +0.037 C 
ATOM     78  H   UNL     1     150.166 166.643 194.445  0.00  0.00    +0.052 HD
ATOM     79  H   UNL     1     150.353 165.335 193.262  0.00  0.00    +0.052 HD
ATOM     80  H   UNL     1     151.628 165.606 194.461  0.00  0.00    +0.052 HD
ENDBRANCH  76  77
ENDBRANCH  53  76
ENDBRANCH  47  53
ENDBRANCH   1  47
BRANCH   1  81
ATOM     81  O   UNL     1     148.445 170.503 192.219  0.00  0.00    -0.461 OA
BRANCH  81  82
ATOM     82  C   UNL     1     148.162 171.681 191.596  0.00  0.00    +0.310 C 
ATOM     83  O   UNL     1     147.730 171.790 190.455  0.00  0.00    -0.251 OA
BRANCH  82  84
ATOM     84  C   UNL     1     148.439 172.864 192.501  0.00  0.00    +0.051 C 
ATOM     85  H   UNL     1     148.951 173.617 191.888  0.00  0.00    +0.041 HD
BRANCH  84  86
ATOM     86  C   UNL     1     147.139 173.471 193.016  0.00  0.00    -0.053 C 
ATOM     87  H   UNL     1     146.552 173.889 192.192  0.00  0.00    +0.024 HD
ATOM     88  H   UNL     1     147.345 174.275 193.731  0.00  0.00    +0.024 HD
ATOM     89  H   UNL     1     146.517 172.722 193.518  0.00  0.00    +0.024 HD
ENDBRANCH  84  86
BRANCH  84  90
ATOM     90  C   UNL     1     149.375 172.470 193.637  0.00  0.00    -0.053 C 
ATOM     91  H   UNL     1     148.862 171.822 194.357  0.00  0.00    +0.024 HD
ATOM     92  H   UNL     1     149.739 173.346 194.184  0.00  0.00    +0.024 HD
ATOM     93  H   UNL     1     150.245 171.928 193.253  0.00  0.00    +0.024 HD
ENDBRANCH  84  90
ENDBRANCH  82  84
ENDBRANCH  81  82
ENDBRANCH   1  81
TORSDOF 32
ENDMDL
MODEL 4
REMARK VINA RESULT:      -4.8      3.054      7.979
REMARK  Name = 2c_conf3
REMARK  32 active torsions:
REMARK  status: ('A' for Active; 'I' for Inactive)
REMARK    1  A    between atoms: N_2  and  C_3
REMARK    2  A    between atoms: N_2  and  C_5
REMARK    3  A    between atoms: C_3  and  C_4
REMARK    4  A    between atoms: C_6  and  C_7
REMARK    5  A    between atoms: C_7  and  C_8
REMARK    6  A    between atoms: C_7  and  C_9
REMARK    7  A    between atoms: C_9  and  O_10
REMARK    8  A    between atoms: C_9  and  C_12
REMARK    9  A    between atoms: O_10  and  C_11
REMARK   10  A    between atoms: C_12  and  C_13
REMARK   11  A    between atoms: C_12  and  C_14
REMARK   12  A    between atoms: C_14  and  O_15
REMARK   13  A    between atoms: C_14  and  C_21
REMARK   14  A    between atoms: O_15  and  C_16
REMARK   15  A    between atoms: C_16  and  C_17
REMARK   16  A    between atoms: C_17  and  C_18
REMARK   17  A    between atoms: C_17  and  C_19
REMARK   18  A    between atoms: C_21  and  C_22
REMARK   19  A    between atoms: C_22  and  C_23
REMARK   20  A    between atoms: C_23  and  C_24
REMARK   21  A    between atoms: C_23  and  C_25
REMARK   22  A    between atoms: C_25  and  O_26
REMARK   23  A    between atoms: C_25  and  C_28
REMARK   24  A    between atoms: O_26  and  C_27
REMARK   25  A    between atoms: C_28  and  C_29
REMARK   26  A    between atoms: C_29  and  O_30
REMARK   27  A    between atoms: C_29  and  C_35
REMARK   28  A    between atoms: O_30  and  C_31
REMARK   29  A    between atoms: C_31  and  C_32
REMARK   30  A    between atoms: C_32  and  C_33
REMARK   31  A    between atoms: C_35  and  C_36
REMARK   32  A    between atoms: C_35  and  C_37
REMARK                            x       y       z     vdW  Elec       q    Type
REMARK                         _______ _______ _______ _____ _____    ______ ____
ROOT
ATOM      1  C   UNL     1     147.160 170.430 191.092  0.00  0.00    +0.108 C 
ATOM      2  H   UNL     1     146.864 170.812 192.072  0.00  0.00    +0.074 HD
ENDROOT
BRANCH   1   3
ATOM      3  C   UNL     1     147.518 168.933 191.235  0.00  0.00    -0.015 C 
ATOM      4  H   UNL     1     147.246 168.586 192.237  0.00  0.00    +0.030 HD
ATOM      5  H   UNL     1     146.913 168.365 190.518  0.00  0.00    +0.030 HD
BRANCH   3   6
ATOM      6  C   UNL     1     148.998 168.624 190.960  0.00  0.00    -0.045 C 
ATOM      7  H   UNL     1     149.037 167.697 190.373  0.00  0.00    +0.027 HD
ATOM      8  H   UNL     1     149.410 169.400 190.310  0.00  0.00    +0.027 HD
BRANCH   6   9
ATOM      9  C   UNL     1     149.904 168.396 192.196  0.00  0.00    -0.017 C 
ATOM     10  H   UNL     1     149.269 168.575 193.077  0.00  0.00    +0.032 HD
BRANCH   9  11
ATOM     11  C   UNL     1     151.024 169.438 192.303  0.00  0.00    -0.060 C 
ATOM     12  H   UNL     1     150.676 170.427 191.988  0.00  0.00    +0.023 HD
ATOM     13  H   UNL     1     151.861 169.178 191.646  0.00  0.00    +0.023 HD
ATOM     14  H   UNL     1     151.401 169.522 193.327  0.00  0.00    +0.023 HD
ENDBRANCH   9  11
BRANCH   9  15
ATOM     15  C   UNL     1     150.426 166.929 192.340  0.00  0.00    +0.064 C 
ATOM     16  H   UNL     1     150.840 166.579 191.385  0.00  0.00    +0.060 HD
BRANCH  15  17
ATOM     17  C   UNL     1     149.285 165.985 192.791  0.00  0.00    +0.011 C 
ATOM     18  H   UNL     1     148.459 166.100 192.081  0.00  0.00    +0.033 HD
ATOM     19  H   UNL     1     149.633 164.949 192.728  0.00  0.00    +0.033 HD
BRANCH  17  20
ATOM     20  C   UNL     1     148.736 166.225 194.214  0.00  0.00    +0.108 C 
ATOM     21  H   UNL     1     149.163 167.156 194.606  0.00  0.00    +0.074 HD
BRANCH  20  22
ATOM     22  C   UNL     1     147.182 166.337 194.211  0.00  0.00    -0.009 C 
ATOM     23  H   UNL     1     146.913 167.392 194.356  0.00  0.00    +0.033 HD
BRANCH  22  24
ATOM     24  C   UNL     1     146.530 165.520 195.333  0.00  0.00    -0.059 C 
ATOM     25  H   UNL     1     146.742 164.452 195.214  0.00  0.00    +0.023 HD
ATOM     26  H   UNL     1     146.902 165.831 196.315  0.00  0.00    +0.023 HD
ATOM     27  H   UNL     1     145.441 165.624 195.327  0.00  0.00    +0.023 HD
ENDBRANCH  22  24
BRANCH  22  28
ATOM     28  C   UNL     1     146.567 165.909 192.874  0.00  0.00    -0.059 C 
ATOM     29  H   UNL     1     146.522 164.818 192.790  0.00  0.00    +0.023 HD
ATOM     30  H   UNL     1     147.139 166.302 192.027  0.00  0.00    +0.023 HD
ATOM     31  H   UNL     1     145.547 166.296 192.772  0.00  0.00    +0.023 HD
ENDBRANCH  22  28
ENDBRANCH  20  22
BRANCH  20  32
ATOM     32  O   UNL     1     149.118 165.090 195.022  0.00  0.00    -0.461 OA
BRANCH  32  33
ATOM     33  C   UNL     1     150.038 165.313 196.006  0.00  0.00    +0.307 C 
ATOM     34  O   UNL     1     149.955 166.166 196.878  0.00  0.00    -0.251 OA
BRANCH  33  35
ATOM     35  C   UNL     1     151.191 164.355 195.847  0.00  0.00    +0.042 C 
ATOM     36  H   UNL     1     151.210 163.998 194.813  0.00  0.00    +0.037 HD
ATOM     37  H   UNL     1     152.116 164.899 196.063  0.00  0.00    +0.037 HD
BRANCH  35  38
ATOM     38  C   UNL     1     151.071 163.161 196.778  0.00  0.00    -0.055 C 
ATOM     39  H   UNL     1     150.567 163.451 197.705  0.00  0.00    +0.023 HD
ATOM     40  H   UNL     1     152.060 162.761 197.029  0.00  0.00    +0.023 HD
ATOM     41  H   UNL     1     150.494 162.356 196.309  0.00  0.00    +0.023 HD
ENDBRANCH  35  38
ENDBRANCH  33  35
ENDBRANCH  32  33
ENDBRANCH  20  32
ENDBRANCH  17  20
ENDBRANCH  15  17
BRANCH  15  42
ATOM     42  O   UNL     1     151.420 166.912 193.373  0.00  0.00    -0.379 OA
BRANCH  42  43
ATOM     43  C   UNL     1     152.596 166.200 193.017  0.00  0.00    +0.037 C 
ATOM     44  H   UNL     1     153.407 166.921 192.878  0.00  0.00    +0.052 HD
ATOM     45  H   UNL     1     152.882 165.498 193.804  0.00  0.00    +0.052 HD
ATOM     46  H   UNL     1     152.452 165.657 192.080  0.00  0.00    +0.052 HD
ENDBRANCH  42  43
ENDBRANCH  15  42
ENDBRANCH   9  15
ENDBRANCH   6   9
ENDBRANCH   3   6
ENDBRANCH   1   3
BRANCH   1  47
ATOM     47  C   UNL     1     146.021 170.684 190.070  0.00  0.00    +0.020 C 
ATOM     48  H   UNL     1     146.501 171.168 189.208  0.00  0.00    +0.036 HD
BRANCH  47  49
ATOM     49  C   UNL     1     145.050 171.762 190.581  0.00  0.00    -0.057 C 
ATOM     50  H   UNL     1     144.217 171.923 189.889  0.00  0.00    +0.023 HD
ATOM     51  H   UNL     1     144.652 171.516 191.568  0.00  0.00    +0.023 HD
ATOM     52  H   UNL     1     145.565 172.725 190.676  0.00  0.00    +0.023 HD
ENDBRANCH  47  49
BRANCH  47  53
ATOM     53  C   UNL     1     145.312 169.417 189.511  0.00  0.00    +0.070 C 
ATOM     54  H   UNL     1     145.990 168.564 189.639  0.00  0.00    +0.061 HD
BRANCH  53  55
ATOM     55  C   UNL     1     143.932 168.964 190.075  0.00  0.00    +0.002 C 
ATOM     56  H   UNL     1     143.725 169.665 190.900  0.00  0.00    +0.037 HD
BRANCH  55  58
ATOM     57  C   UNL     1     141.504 168.975 189.475  0.00  0.00    -0.005 C 
ATOM     58  C   UNL     1     142.785 169.076 189.092  0.00  0.00    -0.065 C 
ATOM     59  H   UNL     1     141.289 168.831 190.534  0.00  0.00    +0.078 HD
ATOM     60  H   UNL     1     143.064 169.198 188.052  0.00  0.00    +0.059 HD
BRANCH  57  62
ATOM     61  C   UNL     1     140.210 168.284 187.493  0.00  0.00    +0.206 C 
ATOM     62  N   UNL     1     140.378 169.012 188.666  0.00  0.00    -0.281 N 
ATOM     63  O   UNL     1     139.196 168.267 186.802  0.00  0.00    -0.279 OA
ATOM     64  H   UNL     1     141.087 167.686 187.205  0.00  0.00    +0.126 HD
BRANCH  62  65
ATOM     65  C   UNL     1     139.246 169.835 189.112  0.00  0.00    +0.016 C 
ATOM     66  H   UNL     1     139.197 170.744 188.500  0.00  0.00    +0.047 HD
ATOM     67  H   UNL     1     138.310 169.290 188.939  0.00  0.00    +0.047 HD
BRANCH  65  68
ATOM     68  C   UNL     1     139.348 170.191 190.589  0.00  0.00    -0.049 C 
ATOM     69  H   UNL     1     138.666 169.567 191.177  0.00  0.00    +0.024 HD
ATOM     70  H   UNL     1     139.086 171.241 190.762  0.00  0.00    +0.024 HD
ATOM     71  H   UNL     1     140.364 170.033 190.962  0.00  0.00    +0.024 HD
ENDBRANCH  65  68
ENDBRANCH  62  65
ENDBRANCH  57  62
ENDBRANCH  55  58
BRANCH  55  72
ATOM     72  C   UNL     1     143.904 167.590 190.750  0.00  0.00    -0.057 C 
ATOM     73  H   UNL     1     143.967 167.701 191.840  0.00  0.00    +0.024 HD
ATOM     74  H   UNL     1     144.750 166.968 190.441  0.00  0.00    +0.024 HD
ATOM     75  H   UNL     1     142.976 167.046 190.549  0.00  0.00    +0.024 HD
ENDBRANCH  55  72
ENDBRANCH  53  55
BRANCH  53  76
ATOM     76  O   UNL     1     145.110 169.594 188.088  0.00  0.00    -0.379 OA
BRANCH  76  77
ATOM     77  C   UNL     1     146.310 169.847 187.366  0.00  0.00    +0.037 C 
ATOM     78  H   UNL     1     146.125 170.545 186.545  0.00  0.00    +0.052 HD
ATOM     79  H   UNL     1     147.031 170.302 188.050  0.00  0.00    +0.052 HD
ATOM     80  H   UNL     1     146.742 168.920 186.981  0.00  0.00    +0.052 HD
ENDBRANCH  76  77
ENDBRANCH  53  76
ENDBRANCH  47  53
ENDBRANCH   1  47
BRANCH   1  81
ATOM     81  O   UNL     1     148.328 171.138 190.609  0.00  0.00    -0.461 OA
BRANCH  81  82
ATOM     82  C   UNL     1     148.596 172.352 191.168  0.00  0.00    +0.310 C 
ATOM     83  O   UNL     1     149.039 173.323 190.568  0.00  0.00    -0.251 OA
BRANCH  82  84
ATOM     84  C   UNL     1     148.263 172.363 192.646  0.00  0.00    +0.051 C 
ATOM     85  H   UNL     1     147.797 171.395 192.871  0.00  0.00    +0.041 HD
BRANCH  84  86
ATOM     86  C   UNL     1     149.528 172.490 193.487  0.00  0.00    -0.053 C 
ATOM     87  H   UNL     1     150.104 171.559 193.465  0.00  0.00    +0.024 HD
ATOM     88  H   UNL     1     149.278 172.712 194.530  0.00  0.00    +0.024 HD
ATOM     89  H   UNL     1     150.178 173.290 193.117  0.00  0.00    +0.024 HD
ENDBRANCH  84  86
BRANCH  84  90
ATOM     90  C   UNL     1     147.252 173.457 192.966  0.00  0.00    -0.053 C 
ATOM     91  H   UNL     1     146.232 173.056 192.972  0.00  0.00    +0.024 HD
ATOM     92  H   UNL     1     147.283 174.265 192.229  0.00  0.00    +0.024 HD
ATOM     93  H   UNL     1     147.451 173.892 193.951  0.00  0.00    +0.024 HD
ENDBRANCH  84  90
ENDBRANCH  82  84
ENDBRANCH  81  82
ENDBRANCH   1  81
TORSDOF 32
ENDMDL
MODEL 5
REMARK VINA RESULT:      -4.8      3.601      8.291
REMARK  Name = 2c_conf3
REMARK  32 active torsions:
REMARK  status: ('A' for Active; 'I' for Inactive)
REMARK    1  A    between atoms: N_2  and  C_3
REMARK    2  A    between atoms: N_2  and  C_5
REMARK    3  A    between atoms: C_3  and  C_4
REMARK    4  A    between atoms: C_6  and  C_7
REMARK    5  A    between atoms: C_7  and  C_8
REMARK    6  A    between atoms: C_7  and  C_9
REMARK    7  A    between atoms: C_9  and  O_10
REMARK    8  A    between atoms: C_9  and  C_12
REMARK    9  A    between atoms: O_10  and  C_11
REMARK   10  A    between atoms: C_12  and  C_13
REMARK   11  A    between atoms: C_12  and  C_14
REMARK   12  A    between atoms: C_14  and  O_15
REMARK   13  A    between atoms: C_14  and  C_21
REMARK   14  A    between atoms: O_15  and  C_16
REMARK   15  A    between atoms: C_16  and  C_17
REMARK   16  A    between atoms: C_17  and  C_18
REMARK   17  A    between atoms: C_17  and  C_19
REMARK   18  A    between atoms: C_21  and  C_22
REMARK   19  A    between atoms: C_22  and  C_23
REMARK   20  A    between atoms: C_23  and  C_24
REMARK   21  A    between atoms: C_23  and  C_25
REMARK   22  A    between atoms: C_25  and  O_26
REMARK   23  A    between atoms: C_25  and  C_28
REMARK   24  A    between atoms: O_26  and  C_27
REMARK   25  A    between atoms: C_28  and  C_29
REMARK   26  A    between atoms: C_29  and  O_30
REMARK   27  A    between atoms: C_29  and  C_35
REMARK   28  A    between atoms: O_30  and  C_31
REMARK   29  A    between atoms: C_31  and  C_32
REMARK   30  A    between atoms: C_32  and  C_33
REMARK   31  A    between atoms: C_35  and  C_36
REMARK   32  A    between atoms: C_35  and  C_37
REMARK                            x       y       z     vdW  Elec       q    Type
REMARK                         _______ _______ _______ _____ _____    ______ ____
ROOT
ATOM      1  C   UNL     1     147.553 169.983 191.314  0.00  0.00    +0.108 C 
ATOM      2  H   UNL     1     146.986 170.519 192.079  0.00  0.00    +0.074 HD
ENDROOT
BRANCH   1   3
ATOM      3  C   UNL     1     148.294 168.803 191.987  0.00  0.00    -0.015 C 
ATOM      4  H   UNL     1     148.100 168.817 193.064  0.00  0.00    +0.030 HD
ATOM      5  H   UNL     1     147.880 167.868 191.592  0.00  0.00    +0.030 HD
BRANCH   3   6
ATOM      6  C   UNL     1     149.809 168.799 191.728  0.00  0.00    -0.045 C 
ATOM      7  H   UNL     1     150.035 169.657 191.082  0.00  0.00    +0.027 HD
ATOM      8  H   UNL     1     150.332 168.993 192.668  0.00  0.00    +0.027 HD
BRANCH   6   9
ATOM      9  C   UNL     1     150.391 167.552 191.017  0.00  0.00    -0.017 C 
ATOM     10  H   UNL     1     151.185 167.924 190.350  0.00  0.00    +0.032 HD
BRANCH   9  11
ATOM     11  C   UNL     1     149.377 166.884 190.080  0.00  0.00    -0.060 C 
ATOM     12  H   UNL     1     148.363 166.939 190.491  0.00  0.00    +0.023 HD
ATOM     13  H   UNL     1     149.604 165.820 189.955  0.00  0.00    +0.023 HD
ATOM     14  H   UNL     1     149.368 167.355 189.092  0.00  0.00    +0.023 HD
ENDBRANCH   9  11
BRANCH   9  15
ATOM     15  C   UNL     1     151.086 166.537 191.981  0.00  0.00    +0.064 C 
ATOM     16  H   UNL     1     150.732 165.517 191.776  0.00  0.00    +0.060 HD
BRANCH  15  17
ATOM     17  C   UNL     1     150.800 166.902 193.458  0.00  0.00    +0.011 C 
ATOM     18  H   UNL     1     151.765 167.011 193.965  0.00  0.00    +0.033 HD
ATOM     19  H   UNL     1     150.296 167.874 193.495  0.00  0.00    +0.033 HD
BRANCH  17  20
ATOM     20  C   UNL     1     149.950 165.886 194.250  0.00  0.00    +0.108 C 
ATOM     21  H   UNL     1     149.951 164.929 193.714  0.00  0.00    +0.074 HD
BRANCH  20  22
ATOM     22  C   UNL     1     150.516 165.669 195.686  0.00  0.00    -0.009 C 
ATOM     23  H   UNL     1     151.398 166.311 195.809  0.00  0.00    +0.033 HD
BRANCH  22  24
ATOM     24  C   UNL     1     150.943 164.218 195.937  0.00  0.00    -0.059 C 
ATOM     25  H   UNL     1     151.810 164.174 196.604  0.00  0.00    +0.023 HD
ATOM     26  H   UNL     1     150.133 163.642 196.396  0.00  0.00    +0.023 HD
ATOM     27  H   UNL     1     151.238 163.718 195.010  0.00  0.00    +0.023 HD
ENDBRANCH  22  24
BRANCH  22  28
ATOM     28  C   UNL     1     149.520 166.082 196.776  0.00  0.00    -0.059 C 
ATOM     29  H   UNL     1     148.552 166.359 196.343  0.00  0.00    +0.023 HD
ATOM     30  H   UNL     1     149.897 166.926 197.362  0.00  0.00    +0.023 HD
ATOM     31  H   UNL     1     149.350 165.260 197.479  0.00  0.00    +0.023 HD
ENDBRANCH  22  28
ENDBRANCH  20  22
BRANCH  20  32
ATOM     32  O   UNL     1     148.614 166.427 194.355  0.00  0.00    -0.461 OA
BRANCH  32  33
ATOM     33  C   UNL     1     147.640 165.818 193.618  0.00  0.00    +0.307 C 
ATOM     34  O   UNL     1     147.825 165.135 192.621  0.00  0.00    -0.251 OA
BRANCH  33  35
ATOM     35  C   UNL     1     146.289 166.128 194.209  0.00  0.00    +0.042 C 
ATOM     36  H   UNL     1     146.379 167.015 194.844  0.00  0.00    +0.037 HD
ATOM     37  H   UNL     1     145.599 166.336 193.387  0.00  0.00    +0.037 HD
BRANCH  35  38
ATOM     38  C   UNL     1     145.756 164.978 195.046  0.00  0.00    -0.055 C 
ATOM     39  H   UNL     1     146.524 164.205 195.163  0.00  0.00    +0.023 HD
ATOM     40  H   UNL     1     144.876 164.526 194.573  0.00  0.00    +0.023 HD
ATOM     41  H   UNL     1     145.461 165.322 196.043  0.00  0.00    +0.023 HD
ENDBRANCH  35  38
ENDBRANCH  33  35
ENDBRANCH  32  33
ENDBRANCH  20  32
ENDBRANCH  17  20
ENDBRANCH  15  17
BRANCH  15  42
ATOM     42  O   UNL     1     152.503 166.641 191.788  0.00  0.00    -0.379 OA
BRANCH  42  43
ATOM     43  C   UNL     1     153.221 166.903 192.985  0.00  0.00    +0.037 C 
ATOM     44  H   UNL     1     152.693 166.427 193.816  0.00  0.00    +0.052 HD
ATOM     45  H   UNL     1     154.232 166.493 192.932  0.00  0.00    +0.052 HD
ATOM     46  H   UNL     1     153.274 167.978 193.179  0.00  0.00    +0.052 HD
ENDBRANCH  42  43
ENDBRANCH  15  42
ENDBRANCH   9  15
ENDBRANCH   6   9
ENDBRANCH   3   6
ENDBRANCH   1   3
BRANCH   1  47
ATOM     47  C   UNL     1     146.596 169.527 190.182  0.00  0.00    +0.020 C 
ATOM     48  H   UNL     1     146.379 168.469 190.387  0.00  0.00    +0.036 HD
BRANCH  47  49
ATOM     49  C   UNL     1     147.326 169.478 188.829  0.00  0.00    -0.057 C 
ATOM     50  H   UNL     1     147.698 168.474 188.600  0.00  0.00    +0.023 HD
ATOM     51  H   UNL     1     146.685 169.816 188.009  0.00  0.00    +0.023 HD
ATOM     52  H   UNL     1     148.200 170.139 188.843  0.00  0.00    +0.023 HD
ENDBRANCH  47  49
BRANCH  47  53
ATOM     53  C   UNL     1     145.217 170.243 190.124  0.00  0.00    +0.070 C 
ATOM     54  H   UNL     1     144.683 170.028 191.059  0.00  0.00    +0.061 HD
BRANCH  53  55
ATOM     55  C   UNL     1     145.129 171.785 189.919  0.00  0.00    +0.002 C 
ATOM     56  H   UNL     1     146.084 172.173 190.310  0.00  0.00    +0.037 HD
BRANCH  55  58
ATOM     57  C   UNL     1     146.076 172.714 187.798  0.00  0.00    -0.005 C 
ATOM     58  C   UNL     1     145.027 172.221 188.472  0.00  0.00    -0.065 C 
ATOM     59  H   UNL     1     147.036 172.778 188.309  0.00  0.00    +0.078 HD
ATOM     60  H   UNL     1     144.041 172.152 188.027  0.00  0.00    +0.059 HD
BRANCH  57  62
ATOM     61  C   UNL     1     146.054 172.395 185.354  0.00  0.00    +0.206 C 
ATOM     62  N   UNL     1     146.092 173.189 186.495  0.00  0.00    -0.281 N 
ATOM     63  O   UNL     1     146.011 172.807 184.199  0.00  0.00    -0.279 OA
ATOM     64  H   UNL     1     146.060 171.314 185.557  0.00  0.00    +0.126 HD
BRANCH  62  65
ATOM     65  C   UNL     1     146.087 174.644 186.300  0.00  0.00    +0.016 C 
ATOM     66  H   UNL     1     146.717 175.113 187.066  0.00  0.00    +0.047 HD
ATOM     67  H   UNL     1     146.541 174.883 185.331  0.00  0.00    +0.047 HD
BRANCH  65  68
ATOM     68  C   UNL     1     144.678 175.219 186.343  0.00  0.00    -0.049 C 
ATOM     69  H   UNL     1     144.185 175.089 185.374  0.00  0.00    +0.024 HD
ATOM     70  H   UNL     1     144.694 176.290 186.578  0.00  0.00    +0.024 HD
ATOM     71  H   UNL     1     144.072 174.719 187.105  0.00  0.00    +0.024 HD
ENDBRANCH  65  68
ENDBRANCH  62  65
ENDBRANCH  57  62
ENDBRANCH  55  58
BRANCH  55  72
ATOM     72  C   UNL     1     144.073 172.512 190.756  0.00  0.00    -0.057 C 
ATOM     73  H   UNL     1     143.073 172.344 190.335  0.00  0.00    +0.024 HD
ATOM     74  H   UNL     1     144.238 173.594 190.767  0.00  0.00    +0.024 HD
ATOM     75  H   UNL     1     144.039 172.152 191.788  0.00  0.00    +0.024 HD
ENDBRANCH  55  72
ENDBRANCH  53  55
BRANCH  53  76
ATOM     76  O   UNL     1     144.443 169.664 189.046  0.00  0.00    -0.379 OA
BRANCH  76  77
ATOM     77  C   UNL     1     143.254 169.012 189.480  0.00  0.00    +0.037 C 
ATOM     78  H   UNL     1     143.202 167.998 189.074  0.00  0.00    +0.052 HD
ATOM     79  H   UNL     1     143.280 168.946 190.570  0.00  0.00    +0.052 HD
ATOM     80  H   UNL     1     142.366 169.578 189.191  0.00  0.00    +0.052 HD
ENDBRANCH  76  77
ENDBRANCH  53  76
ENDBRANCH  47  53
ENDBRANCH   1  47
BRANCH   1  81
ATOM     81  O   UNL     1     148.537 170.859 190.711  0.00  0.00    -0.461 OA
BRANCH  81  82
ATOM     82  C   UNL     1     148.553 172.156 191.128  0.00  0.00    +0.310 C 
ATOM     83  O   UNL     1     148.826 173.121 190.425  0.00  0.00    -0.251 OA
BRANCH  82  84
ATOM     84  C   UNL     1     148.175 172.269 192.591  0.00  0.00    +0.051 C 
ATOM     85  H   UNL     1     147.699 171.319 192.868  0.00  0.00    +0.041 HD
BRANCH  84  86
ATOM     86  C   UNL     1     149.414 172.453 193.461  0.00  0.00    -0.053 C 
ATOM     87  H   UNL     1     149.417 171.735 194.288  0.00  0.00    +0.024 HD
ATOM     88  H   UNL     1     149.442 173.462 193.883  0.00  0.00    +0.024 HD
ATOM     89  H   UNL     1     150.333 172.300 192.886  0.00  0.00    +0.024 HD
ENDBRANCH  84  86
BRANCH  84  90
ATOM     90  C   UNL     1     147.158 173.384 192.804  0.00  0.00    -0.053 C 
ATOM     91  H   UNL     1     146.233 173.178 192.253  0.00  0.00    +0.024 HD
ATOM     92  H   UNL     1     147.538 174.350 192.458  0.00  0.00    +0.024 HD
ATOM     93  H   UNL     1     146.906 173.482 193.865  0.00  0.00    +0.024 HD
ENDBRANCH  84  90
ENDBRANCH  82  84
ENDBRANCH  81  82
ENDBRANCH   1  81
TORSDOF 32
ENDMDL
MODEL 6
REMARK VINA RESULT:      -4.8      1.194      2.760
REMARK  Name = 2c_conf3
REMARK  32 active torsions:
REMARK  status: ('A' for Active; 'I' for Inactive)
REMARK    1  A    between atoms: N_2  and  C_3
REMARK    2  A    between atoms: N_2  and  C_5
REMARK    3  A    between atoms: C_3  and  C_4
REMARK    4  A    between atoms: C_6  and  C_7
REMARK    5  A    between atoms: C_7  and  C_8
REMARK    6  A    between atoms: C_7  and  C_9
REMARK    7  A    between atoms: C_9  and  O_10
REMARK    8  A    between atoms: C_9  and  C_12
REMARK    9  A    between atoms: O_10  and  C_11
REMARK   10  A    between atoms: C_12  and  C_13
REMARK   11  A    between atoms: C_12  and  C_14
REMARK   12  A    between atoms: C_14  and  O_15
REMARK   13  A    between atoms: C_14  and  C_21
REMARK   14  A    between atoms: O_15  and  C_16
REMARK   15  A    between atoms: C_16  and  C_17
REMARK   16  A    between atoms: C_17  and  C_18
REMARK   17  A    between atoms: C_17  and  C_19
REMARK   18  A    between atoms: C_21  and  C_22
REMARK   19  A    between atoms: C_22  and  C_23
REMARK   20  A    between atoms: C_23  and  C_24
REMARK   21  A    between atoms: C_23  and  C_25
REMARK   22  A    between atoms: C_25  and  O_26
REMARK   23  A    between atoms: C_25  and  C_28
REMARK   24  A    between atoms: O_26  and  C_27
REMARK   25  A    between atoms: C_28  and  C_29
REMARK   26  A    between atoms: C_29  and  O_30
REMARK   27  A    between atoms: C_29  and  C_35
REMARK   28  A    between atoms: O_30  and  C_31
REMARK   29  A    between atoms: C_31  and  C_32
REMARK   30  A    between atoms: C_32  and  C_33
REMARK   31  A    between atoms: C_35  and  C_36
REMARK   32  A    between atoms: C_35  and  C_37
REMARK                            x       y       z     vdW  Elec       q    Type
REMARK                         _______ _______ _______ _____ _____    ______ ____
ROOT
ATOM      1  C   UNL     1     148.283 169.210 190.757  0.00  0.00    +0.108 C 
ATOM      2  H   UNL     1     149.170 169.584 190.240  0.00  0.00    +0.074 HD
ENDROOT
BRANCH   1   3
ATOM      3  C   UNL     1     147.236 168.793 189.698  0.00  0.00    -0.015 C 
ATOM      4  H   UNL     1     147.740 168.574 188.752  0.00  0.00    +0.030 HD
ATOM      5  H   UNL     1     146.756 167.866 190.035  0.00  0.00    +0.030 HD
BRANCH   3   6
ATOM      6  C   UNL     1     146.135 169.843 189.472  0.00  0.00    -0.045 C 
ATOM      7  H   UNL     1     146.133 170.510 190.343  0.00  0.00    +0.027 HD
ATOM      8  H   UNL     1     146.410 170.471 188.622  0.00  0.00    +0.027 HD
BRANCH   6   9
ATOM      9  C   UNL     1     144.687 169.313 189.325  0.00  0.00    -0.017 C 
ATOM     10  H   UNL     1     144.771 168.221 189.211  0.00  0.00    +0.032 HD
BRANCH   9  11
ATOM     11  C   UNL     1     144.016 169.790 188.031  0.00  0.00    -0.060 C 
ATOM     12  H   UNL     1     144.734 170.293 187.375  0.00  0.00    +0.023 HD
ATOM     13  H   UNL     1     143.227 170.518 188.247  0.00  0.00    +0.023 HD
ATOM     14  H   UNL     1     143.575 168.957 187.474  0.00  0.00    +0.023 HD
ENDBRANCH   9  11
BRANCH   9  15
ATOM     15  C   UNL     1     143.796 169.540 190.589  0.00  0.00    +0.064 C 
ATOM     16  H   UNL     1     144.407 169.911 191.422  0.00  0.00    +0.060 HD
BRANCH  15  17
ATOM     17  C   UNL     1     143.089 168.227 191.004  0.00  0.00    +0.011 C 
ATOM     18  H   UNL     1     142.321 168.481 191.741  0.00  0.00    +0.033 HD
ATOM     19  H   UNL     1     142.581 167.803 190.131  0.00  0.00    +0.033 HD
BRANCH  17  20
ATOM     20  C   UNL     1     143.999 167.137 191.610  0.00  0.00    +0.108 C 
ATOM     21  H   UNL     1     144.998 167.559 191.774  0.00  0.00    +0.074 HD
BRANCH  20  22
ATOM     22  C   UNL     1     143.435 166.617 192.966  0.00  0.00    -0.009 C 
ATOM     23  H   UNL     1     143.045 167.475 193.529  0.00  0.00    +0.033 HD
BRANCH  22  24
ATOM     24  C   UNL     1     144.504 165.930 193.824  0.00  0.00    -0.059 C 
ATOM     25  H   UNL     1     145.424 165.773 193.252  0.00  0.00    +0.023 HD
ATOM     26  H   UNL     1     144.751 166.532 194.704  0.00  0.00    +0.023 HD
ATOM     27  H   UNL     1     144.176 164.942 194.162  0.00  0.00    +0.023 HD
ENDBRANCH  22  24
BRANCH  22  28
ATOM     28  C   UNL     1     142.262 165.648 192.779  0.00  0.00    -0.059 C 
ATOM     29  H   UNL     1     142.610 164.665 192.443  0.00  0.00    +0.023 HD
ATOM     30  H   UNL     1     141.540 166.031 192.051  0.00  0.00    +0.023 HD
ATOM     31  H   UNL     1     141.717 165.509 193.719  0.00  0.00    +0.023 HD
ENDBRANCH  22  28
ENDBRANCH  20  22
BRANCH  20  32
ATOM     32  O   UNL     1     144.041 166.037 190.673  0.00  0.00    -0.461 OA
BRANCH  32  33
ATOM     33  C   UNL     1     145.270 165.666 190.209  0.00  0.00    +0.307 C 
ATOM     34  O   UNL     1     146.220 165.331 190.902  0.00  0.00    -0.251 OA
BRANCH  33  35
ATOM     35  C   UNL     1     145.289 165.746 188.704  0.00  0.00    +0.042 C 
ATOM     36  H   UNL     1     145.868 166.626 188.408  0.00  0.00    +0.037 HD
ATOM     37  H   UNL     1     145.775 164.844 188.323  0.00  0.00    +0.037 HD
BRANCH  35  38
ATOM     38  C   UNL     1     143.891 165.859 188.122  0.00  0.00    -0.055 C 
ATOM     39  H   UNL     1     143.599 166.911 188.035  0.00  0.00    +0.023 HD
ATOM     40  H   UNL     1     143.161 165.346 188.758  0.00  0.00    +0.023 HD
ATOM     41  H   UNL     1     143.843 165.406 187.126  0.00  0.00    +0.023 HD
ENDBRANCH  35  38
ENDBRANCH  33  35
ENDBRANCH  32  33
ENDBRANCH  20  32
ENDBRANCH  17  20
ENDBRANCH  15  17
BRANCH  15  42
ATOM     42  O   UNL     1     142.768 170.480 190.243  0.00  0.00    -0.379 OA
BRANCH  42  43
ATOM     43  C   UNL     1     142.760 171.639 191.064  0.00  0.00    +0.037 C 
ATOM     44  H   UNL     1     142.296 171.381 192.021  0.00  0.00    +0.052 HD
ATOM     45  H   UNL     1     143.776 171.993 191.251  0.00  0.00    +0.052 HD
ATOM     46  H   UNL     1     142.175 172.438 190.601  0.00  0.00    +0.052 HD
ENDBRANCH  42  43
ENDBRANCH  15  42
ENDBRANCH   9  15
ENDBRANCH   6   9
ENDBRANCH   3   6
ENDBRANCH   1   3
BRANCH   1  47
ATOM     47  C   UNL     1     148.682 168.046 191.701  0.00  0.00    +0.020 C 
ATOM     48  H   UNL     1     148.540 167.128 191.114  0.00  0.00    +0.036 HD
BRANCH  47  49
ATOM     49  C   UNL     1     147.667 167.890 192.846  0.00  0.00    -0.057 C 
ATOM     50  H   UNL     1     148.110 168.121 193.820  0.00  0.00    +0.023 HD
ATOM     51  H   UNL     1     146.786 168.521 192.696  0.00  0.00    +0.023 HD
ATOM     52  H   UNL     1     147.312 166.855 192.903  0.00  0.00    +0.023 HD
ENDBRANCH  47  49
BRANCH  47  53
ATOM     53  C   UNL     1     150.164 168.028 192.172  0.00  0.00    +0.070 C 
ATOM     54  H   UNL     1     150.190 168.341 193.224  0.00  0.00    +0.061 HD
BRANCH  53  55
ATOM     55  C   UNL     1     151.009 166.722 192.088  0.00  0.00    +0.002 C 
ATOM     56  H   UNL     1     152.056 167.062 192.148  0.00  0.00    +0.037 HD
BRANCH  55  58
ATOM     57  C   UNL     1     150.430 166.166 194.457  0.00  0.00    -0.005 C 
ATOM     58  C   UNL     1     150.785 165.754 193.231  0.00  0.00    -0.065 C 
ATOM     59  H   UNL     1     150.277 167.233 194.621  0.00  0.00    +0.078 HD
ATOM     60  H   UNL     1     150.974 164.710 193.011  0.00  0.00    +0.059 HD
BRANCH  57  62
ATOM     61  C   UNL     1     150.912 164.195 195.856  0.00  0.00    +0.206 C 
ATOM     62  N   UNL     1     150.246 165.385 195.588  0.00  0.00    -0.281 N 
ATOM     63  O   UNL     1     150.797 163.527 196.879  0.00  0.00    -0.279 OA
ATOM     64  H   UNL     1     151.591 163.869 195.055  0.00  0.00    +0.126 HD
BRANCH  62  65
ATOM     65  C   UNL     1     149.321 165.882 196.615  0.00  0.00    +0.016 C 
ATOM     66  H   UNL     1     149.378 165.232 197.497  0.00  0.00    +0.047 HD
ATOM     67  H   UNL     1     149.641 166.880 196.940  0.00  0.00    +0.047 HD
BRANCH  65  68
ATOM     68  C   UNL     1     147.890 165.962 196.103  0.00  0.00    -0.049 C 
ATOM     69  H   UNL     1     147.819 166.690 195.287  0.00  0.00    +0.024 HD
ATOM     70  H   UNL     1     147.201 166.271 196.898  0.00  0.00    +0.024 HD
ATOM     71  H   UNL     1     147.553 164.992 195.725  0.00  0.00    +0.024 HD
ENDBRANCH  65  68
ENDBRANCH  62  65
ENDBRANCH  57  62
ENDBRANCH  55  58
BRANCH  55  72
ATOM     72  C   UNL     1     150.949 165.971 190.754  0.00  0.00    -0.057 C 
ATOM     73  H   UNL     1     151.827 165.322 190.645  0.00  0.00    +0.024 HD
ATOM     74  H   UNL     1     150.949 166.657 189.902  0.00  0.00    +0.024 HD
ATOM     75  H   UNL     1     150.073 165.320 190.682  0.00  0.00    +0.024 HD
ENDBRANCH  55  72
ENDBRANCH  53  55
BRANCH  53  76
ATOM     76  O   UNL     1     150.901 169.016 191.412  0.00  0.00    -0.379 OA
BRANCH  76  77
ATOM     77  C   UNL     1     151.749 169.836 192.208  0.00  0.00    +0.037 C 
ATOM     78  H   UNL     1     151.175 170.639 192.679  0.00  0.00    +0.052 HD
ATOM     79  H   UNL     1     152.183 169.216 192.996  0.00  0.00    +0.052 HD
ATOM     80  H   UNL     1     152.564 170.255 191.613  0.00  0.00    +0.052 HD
ENDBRANCH  76  77
ENDBRANCH  53  76
ENDBRANCH  47  53
ENDBRANCH   1  47
BRANCH   1  81
ATOM     81  O   UNL     1     147.708 170.251 191.586  0.00  0.00    -0.461 OA
BRANCH  81  82
ATOM     82  C   UNL     1     148.390 171.428 191.668  0.00  0.00    +0.310 C 
ATOM     83  O   UNL     1     149.075 171.910 190.775  0.00  0.00    -0.251 OA
BRANCH  82  84
ATOM     84  C   UNL     1     148.188 172.089 193.017  0.00  0.00    +0.051 C 
ATOM     85  H   UNL     1     147.682 171.353 193.656  0.00  0.00    +0.041 HD
BRANCH  84  86
ATOM     86  C   UNL     1     149.526 172.437 193.658  0.00  0.00    -0.053 C 
ATOM     87  H   UNL     1     150.157 172.998 192.961  0.00  0.00    +0.024 HD
ATOM     88  H   UNL     1     150.062 171.528 193.949  0.00  0.00    +0.024 HD
ATOM     89  H   UNL     1     149.394 173.054 194.554  0.00  0.00    +0.024 HD
ENDBRANCH  84  86
BRANCH  84  90
ATOM     90  C   UNL     1     147.279 173.306 192.893  0.00  0.00    -0.053 C 
ATOM     91  H   UNL     1     147.794 174.212 193.233  0.00  0.00    +0.024 HD
ATOM     92  H   UNL     1     146.372 173.197 193.496  0.00  0.00    +0.024 HD
ATOM     93  H   UNL     1     146.975 173.459 191.853  0.00  0.00    +0.024 HD
ENDBRANCH  84  90
ENDBRANCH  82  84
ENDBRANCH  81  82
ENDBRANCH   1  81
TORSDOF 32
ENDMDL
MODEL 7
REMARK VINA RESULT:      -4.8      1.141      2.341
REMARK  Name = 2c_conf3
REMARK  32 active torsions:
REMARK  status: ('A' for Active; 'I' for Inactive)
REMARK    1  A    between atoms: N_2  and  C_3
REMARK    2  A    between atoms: N_2  and  C_5
REMARK    3  A    between atoms: C_3  and  C_4
REMARK    4  A    between atoms: C_6  and  C_7
REMARK    5  A    between atoms: C_7  and  C_8
REMARK    6  A    between atoms: C_7  and  C_9
REMARK    7  A    between atoms: C_9  and  O_10
REMARK    8  A    between atoms: C_9  and  C_12
REMARK    9  A    between atoms: O_10  and  C_11
REMARK   10  A    between atoms: C_12  and  C_13
REMARK   11  A    between atoms: C_12  and  C_14
REMARK   12  A    between atoms: C_14  and  O_15
REMARK   13  A    between atoms: C_14  and  C_21
REMARK   14  A    between atoms: O_15  and  C_16
REMARK   15  A    between atoms: C_16  and  C_17
REMARK   16  A    between atoms: C_17  and  C_18
REMARK   17  A    between atoms: C_17  and  C_19
REMARK   18  A    between atoms: C_21  and  C_22
REMARK   19  A    between atoms: C_22  and  C_23
REMARK   20  A    between atoms: C_23  and  C_24
REMARK   21  A    between atoms: C_23  and  C_25
REMARK   22  A    between atoms: C_25  and  O_26
REMARK   23  A    between atoms: C_25  and  C_28
REMARK   24  A    between atoms: O_26  and  C_27
REMARK   25  A    between atoms: C_28  and  C_29
REMARK   26  A    between atoms: C_29  and  O_30
REMARK   27  A    between atoms: C_29  and  C_35
REMARK   28  A    between atoms: O_30  and  C_31
REMARK   29  A    between atoms: C_31  and  C_32
REMARK   30  A    between atoms: C_32  and  C_33
REMARK   31  A    between atoms: C_35  and  C_36
REMARK   32  A    between atoms: C_35  and  C_37
REMARK                            x       y       z     vdW  Elec       q    Type
REMARK                         _______ _______ _______ _____ _____    ______ ____
ROOT
ATOM      1  C   UNL     1     148.085 169.336 190.641  0.00  0.00    +0.108 C 
ATOM      2  H   UNL     1     148.969 169.718 190.126  0.00  0.00    +0.074 HD
ENDROOT
BRANCH   1   3
ATOM      3  C   UNL     1     146.991 169.040 189.588  0.00  0.00    -0.015 C 
ATOM      4  H   UNL     1     147.354 169.324 188.595  0.00  0.00    +0.030 HD
ATOM      5  H   UNL     1     146.813 167.958 189.573  0.00  0.00    +0.030 HD
BRANCH   3   6
ATOM      6  C   UNL     1     145.653 169.739 189.876  0.00  0.00    -0.045 C 
ATOM      7  H   UNL     1     145.359 169.478 190.900  0.00  0.00    +0.027 HD
ATOM      8  H   UNL     1     145.809 170.820 189.882  0.00  0.00    +0.027 HD
BRANCH   6   9
ATOM      9  C   UNL     1     144.458 169.357 188.967  0.00  0.00    -0.017 C 
ATOM     10  H   UNL     1     144.842 168.609 188.256  0.00  0.00    +0.032 HD
BRANCH   9  11
ATOM     11  C   UNL     1     143.989 170.524 188.090  0.00  0.00    -0.060 C 
ATOM     12  H   UNL     1     144.681 171.371 188.156  0.00  0.00    +0.023 HD
ATOM     13  H   UNL     1     143.013 170.893 188.422  0.00  0.00    +0.023 HD
ATOM     14  H   UNL     1     143.910 170.233 187.038  0.00  0.00    +0.023 HD
ENDBRANCH   9  11
BRANCH   9  15
ATOM     15  C   UNL     1     143.282 168.658 189.725  0.00  0.00    +0.064 C 
ATOM     16  H   UNL     1     143.467 168.673 190.807  0.00  0.00    +0.060 HD
BRANCH  15  17
ATOM     17  C   UNL     1     143.113 167.196 189.244  0.00  0.00    +0.011 C 
ATOM     18  H   UNL     1     142.195 167.146 188.649  0.00  0.00    +0.033 HD
ATOM     19  H   UNL     1     143.949 166.939 188.584  0.00  0.00    +0.033 HD
BRANCH  17  20
ATOM     20  C   UNL     1     143.028 166.128 190.355  0.00  0.00    +0.108 C 
ATOM     21  H   UNL     1     142.033 165.668 190.329  0.00  0.00    +0.074 HD
BRANCH  20  22
ATOM     22  C   UNL     1     144.108 165.021 190.162  0.00  0.00    -0.009 C 
ATOM     23  H   UNL     1     144.146 164.414 191.076  0.00  0.00    +0.033 HD
BRANCH  22  24
ATOM     24  C   UNL     1     145.506 165.600 189.915  0.00  0.00    -0.059 C 
ATOM     25  H   UNL     1     145.460 166.680 189.742  0.00  0.00    +0.023 HD
ATOM     26  H   UNL     1     146.164 165.422 190.771  0.00  0.00    +0.023 HD
ATOM     27  H   UNL     1     145.972 165.163 189.026  0.00  0.00    +0.023 HD
ENDBRANCH  22  24
BRANCH  22  28
ATOM     28  C   UNL     1     143.765 164.064 189.015  0.00  0.00    -0.059 C 
ATOM     29  H   UNL     1     143.942 164.533 188.041  0.00  0.00    +0.023 HD
ATOM     30  H   UNL     1     142.721 163.741 189.064  0.00  0.00    +0.023 HD
ATOM     31  H   UNL     1     144.378 163.157 189.068  0.00  0.00    +0.023 HD
ENDBRANCH  22  28
ENDBRANCH  20  22
BRANCH  20  32
ATOM     32  O   UNL     1     143.266 166.794 191.615  0.00  0.00    -0.461 OA
BRANCH  32  33
ATOM     33  C   UNL     1     142.372 166.556 192.619  0.00  0.00    +0.307 C 
ATOM     34  O   UNL     1     141.164 166.427 192.480  0.00  0.00    -0.251 OA
BRANCH  33  35
ATOM     35  C   UNL     1     143.098 166.491 193.938  0.00  0.00    +0.042 C 
ATOM     36  H   UNL     1     143.252 167.510 194.304  0.00  0.00    +0.037 HD
ATOM     37  H   UNL     1     142.469 165.940 194.644  0.00  0.00    +0.037 HD
BRANCH  35  38
ATOM     38  C   UNL     1     144.447 165.804 193.813  0.00  0.00    -0.055 C 
ATOM     39  H   UNL     1     145.252 166.496 194.082  0.00  0.00    +0.023 HD
ATOM     40  H   UNL     1     144.614 165.456 192.787  0.00  0.00    +0.023 HD
ATOM     41  H   UNL     1     144.506 164.933 194.475  0.00  0.00    +0.023 HD
ENDBRANCH  35  38
ENDBRANCH  33  35
ENDBRANCH  32  33
ENDBRANCH  20  32
ENDBRANCH  17  20
ENDBRANCH  15  17
BRANCH  15  42
ATOM     42  O   UNL     1     142.070 169.352 189.397  0.00  0.00    -0.379 OA
BRANCH  42  43
ATOM     43  C   UNL     1     141.203 169.536 190.508  0.00  0.00    +0.037 C 
ATOM     44  H   UNL     1     140.769 170.537 190.444  0.00  0.00    +0.052 HD
ATOM     45  H   UNL     1     140.395 168.802 190.499  0.00  0.00    +0.052 HD
ATOM     46  H   UNL     1     141.756 169.457 191.448  0.00  0.00    +0.052 HD
ENDBRANCH  42  43
ENDBRANCH  15  42
ENDBRANCH   9  15
ENDBRANCH   6   9
ENDBRANCH   3   6
ENDBRANCH   1   3
BRANCH   1  47
ATOM     47  C   UNL     1     148.469 168.088 191.478  0.00  0.00    +0.020 C 
ATOM     48  H   UNL     1     148.470 167.247 190.770  0.00  0.00    +0.036 HD
BRANCH  47  49
ATOM     49  C   UNL     1     147.346 167.715 192.462  0.00  0.00    -0.057 C 
ATOM     50  H   UNL     1     147.655 167.846 193.504  0.00  0.00    +0.023 HD
ATOM     51  H   UNL     1     146.439 168.299 192.282  0.00  0.00    +0.023 HD
ATOM     52  H   UNL     1     147.074 166.660 192.348  0.00  0.00    +0.023 HD
ENDBRANCH  47  49
BRANCH  47  53
ATOM     53  C   UNL     1     149.884 168.108 192.123  0.00  0.00    +0.070 C 
ATOM     54  H   UNL     1     149.768 168.333 193.191  0.00  0.00    +0.061 HD
BRANCH  53  55
ATOM     55  C   UNL     1     150.813 166.860 192.041  0.00  0.00    +0.002 C 
ATOM     56  H   UNL     1     151.833 167.265 192.140  0.00  0.00    +0.037 HD
BRANCH  55  58
ATOM     57  C   UNL     1     150.284 166.231 194.404  0.00  0.00    -0.005 C 
ATOM     58  C   UNL     1     150.617 165.858 193.160  0.00  0.00    -0.065 C 
ATOM     59  H   UNL     1     150.128 167.291 194.602  0.00  0.00    +0.078 HD
ATOM     60  H   UNL     1     150.808 164.821 192.904  0.00  0.00    +0.059 HD
BRANCH  57  62
ATOM     61  C   UNL     1     150.898 164.294 195.801  0.00  0.00    +0.206 C 
ATOM     62  N   UNL     1     150.126 165.415 195.515  0.00  0.00    -0.281 N 
ATOM     63  O   UNL     1     150.803 163.600 196.808  0.00  0.00    -0.279 OA
ATOM     64  H   UNL     1     151.644 164.053 195.030  0.00  0.00    +0.126 HD
BRANCH  62  65
ATOM     65  C   UNL     1     149.108 165.798 196.501  0.00  0.00    +0.016 C 
ATOM     66  H   UNL     1     148.964 164.973 197.210  0.00  0.00    +0.047 HD
ATOM     67  H   UNL     1     149.469 166.654 197.084  0.00  0.00    +0.047 HD
BRANCH  65  68
ATOM     68  C   UNL     1     147.787 166.169 195.841  0.00  0.00    -0.049 C 
ATOM     69  H   UNL     1     147.913 167.056 195.211  0.00  0.00    +0.024 HD
ATOM     70  H   UNL     1     147.017 166.388 196.590  0.00  0.00    +0.024 HD
ATOM     71  H   UNL     1     147.419 165.353 195.211  0.00  0.00    +0.024 HD
ENDBRANCH  65  68
ENDBRANCH  62  65
ENDBRANCH  57  62
ENDBRANCH  55  58
BRANCH  55  72
ATOM     72  C   UNL     1     150.841 166.133 190.693  0.00  0.00    -0.057 C 
ATOM     73  H   UNL     1     150.970 166.854 189.876  0.00  0.00    +0.024 HD
ATOM     74  H   UNL     1     149.907 165.596 190.503  0.00  0.00    +0.024 HD
ATOM     75  H   UNL     1     151.674 165.428 190.618  0.00  0.00    +0.024 HD
ENDBRANCH  55  72
ENDBRANCH  53  55
BRANCH  53  76
ATOM     76  O   UNL     1     150.641 169.193 191.536  0.00  0.00    -0.379 OA
BRANCH  76  77
ATOM     77  C   UNL     1     151.797 169.556 192.284  0.00  0.00    +0.037 C 
ATOM     78  H   UNL     1     151.526 170.208 193.119  0.00  0.00    +0.052 HD
ATOM     79  H   UNL     1     152.241 168.644 192.689  0.00  0.00    +0.052 HD
ATOM     80  H   UNL     1     152.539 170.046 191.649  0.00  0.00    +0.052 HD
ENDBRANCH  76  77
ENDBRANCH  53  76
ENDBRANCH  47  53
ENDBRANCH   1  47
BRANCH   1  81
ATOM     81  O   UNL     1     147.574 170.327 191.567  0.00  0.00    -0.461 OA
BRANCH  81  82
ATOM     82  C   UNL     1     148.224 171.524 191.617  0.00  0.00    +0.310 C 
ATOM     83  O   UNL     1     148.809 172.049 190.678  0.00  0.00    -0.251 OA
BRANCH  82  84
ATOM     84  C   UNL     1     148.126 172.147 192.995  0.00  0.00    +0.051 C 
ATOM     85  H   UNL     1     147.636 171.407 193.641  0.00  0.00    +0.041 HD
BRANCH  84  86
ATOM     86  C   UNL     1     149.511 172.434 193.562  0.00  0.00    -0.053 C 
ATOM     87  H   UNL     1     150.264 171.792 193.093  0.00  0.00    +0.024 HD
ATOM     88  H   UNL     1     149.531 172.251 194.642  0.00  0.00    +0.024 HD
ATOM     89  H   UNL     1     149.809 173.474 193.389  0.00  0.00    +0.024 HD
ENDBRANCH  84  86
BRANCH  84  90
ATOM     90  C   UNL     1     147.251 173.395 192.964  0.00  0.00    -0.053 C 
ATOM     91  H   UNL     1     147.814 174.274 193.299  0.00  0.00    +0.024 HD
ATOM     92  H   UNL     1     146.380 173.294 193.619  0.00  0.00    +0.024 HD
ATOM     93  H   UNL     1     146.889 173.590 191.950  0.00  0.00    +0.024 HD
ENDBRANCH  84  90
ENDBRANCH  82  84
ENDBRANCH  81  82
ENDBRANCH   1  81
TORSDOF 32
ENDMDL
MODEL 8
REMARK VINA RESULT:      -4.7      3.462      7.304
REMARK  Name = 2c_conf3
REMARK  32 active torsions:
REMARK  status: ('A' for Active; 'I' for Inactive)
REMARK    1  A    between atoms: N_2  and  C_3
REMARK    2  A    between atoms: N_2  and  C_5
REMARK    3  A    between atoms: C_3  and  C_4
REMARK    4  A    between atoms: C_6  and  C_7
REMARK    5  A    between atoms: C_7  and  C_8
REMARK    6  A    between atoms: C_7  and  C_9
REMARK    7  A    between atoms: C_9  and  O_10
REMARK    8  A    between atoms: C_9  and  C_12
REMARK    9  A    between atoms: O_10  and  C_11
REMARK   10  A    between atoms: C_12  and  C_13
REMARK   11  A    between atoms: C_12  and  C_14
REMARK   12  A    between atoms: C_14  and  O_15
REMARK   13  A    between atoms: C_14  and  C_21
REMARK   14  A    between atoms: O_15  and  C_16
REMARK   15  A    between atoms: C_16  and  C_17
REMARK   16  A    between atoms: C_17  and  C_18
REMARK   17  A    between atoms: C_17  and  C_19
REMARK   18  A    between atoms: C_21  and  C_22
REMARK   19  A    between atoms: C_22  and  C_23
REMARK   20  A    between atoms: C_23  and  C_24
REMARK   21  A    between atoms: C_23  and  C_25
REMARK   22  A    between atoms: C_25  and  O_26
REMARK   23  A    between atoms: C_25  and  C_28
REMARK   24  A    between atoms: O_26  and  C_27
REMARK   25  A    between atoms: C_28  and  C_29
REMARK   26  A    between atoms: C_29  and  O_30
REMARK   27  A    between atoms: C_29  and  C_35
REMARK   28  A    between atoms: O_30  and  C_31
REMARK   29  A    between atoms: C_31  and  C_32
REMARK   30  A    between atoms: C_32  and  C_33
REMARK   31  A    between atoms: C_35  and  C_36
REMARK   32  A    between atoms: C_35  and  C_37
REMARK                            x       y       z     vdW  Elec       q    Type
REMARK                         _______ _______ _______ _____ _____    ______ ____
ROOT
ATOM      1  C   UNL     1     147.635 169.949 191.282  0.00  0.00    +0.108 C 
ATOM      2  H   UNL     1     147.134 170.426 192.128  0.00  0.00    +0.074 HD
ENDROOT
BRANCH   1   3
ATOM      3  C   UNL     1     148.484 168.771 191.814  0.00  0.00    -0.015 C 
ATOM      4  H   UNL     1     148.561 167.999 191.043  0.00  0.00    +0.030 HD
ATOM      5  H   UNL     1     149.499 169.140 192.009  0.00  0.00    +0.030 HD
BRANCH   3   6
ATOM      6  C   UNL     1     147.943 168.159 193.116  0.00  0.00    -0.045 C 
ATOM      7  H   UNL     1     148.210 168.838 193.936  0.00  0.00    +0.027 HD
ATOM      8  H   UNL     1     146.851 168.156 193.082  0.00  0.00    +0.027 HD
BRANCH   6   9
ATOM      9  C   UNL     1     148.489 166.764 193.510  0.00  0.00    -0.017 C 
ATOM     10  H   UNL     1     148.973 166.892 194.491  0.00  0.00    +0.032 HD
BRANCH   9  11
ATOM     11  C   UNL     1     149.612 166.289 192.579  0.00  0.00    -0.060 C 
ATOM     12  H   UNL     1     149.776 167.000 191.762  0.00  0.00    +0.023 HD
ATOM     13  H   UNL     1     149.353 165.333 192.114  0.00  0.00    +0.023 HD
ATOM     14  H   UNL     1     150.558 166.167 193.117  0.00  0.00    +0.023 HD
ENDBRANCH   9  11
BRANCH   9  15
ATOM     15  C   UNL     1     147.380 165.683 193.721  0.00  0.00    +0.064 C 
ATOM     16  H   UNL     1     147.389 164.963 192.892  0.00  0.00    +0.060 HD
BRANCH  15  17
ATOM     17  C   UNL     1     145.984 166.345 193.823  0.00  0.00    +0.011 C 
ATOM     18  H   UNL     1     145.594 166.144 194.826  0.00  0.00    +0.033 HD
ATOM     19  H   UNL     1     146.095 167.430 193.723  0.00  0.00    +0.033 HD
BRANCH  17  20
ATOM     20  C   UNL     1     144.937 165.868 192.793  0.00  0.00    +0.108 C 
ATOM     21  H   UNL     1     145.124 164.813 192.560  0.00  0.00    +0.074 HD
BRANCH  20  22
ATOM     22  C   UNL     1     143.488 166.020 193.346  0.00  0.00    -0.009 C 
ATOM     23  H   UNL     1     143.458 165.593 194.356  0.00  0.00    +0.033 HD
BRANCH  22  24
ATOM     24  C   UNL     1     142.451 165.288 192.487  0.00  0.00    -0.059 C 
ATOM     25  H   UNL     1     142.662 165.418 191.421  0.00  0.00    +0.023 HD
ATOM     26  H   UNL     1     142.447 164.214 192.702  0.00  0.00    +0.023 HD
ATOM     27  H   UNL     1     141.442 165.677 192.654  0.00  0.00    +0.023 HD
ENDBRANCH  22  24
BRANCH  22  28
ATOM     28  C   UNL     1     143.064 167.487 193.479  0.00  0.00    -0.059 C 
ATOM     29  H   UNL     1     142.276 167.739 192.761  0.00  0.00    +0.023 HD
ATOM     30  H   UNL     1     143.910 168.163 193.322  0.00  0.00    +0.023 HD
ATOM     31  H   UNL     1     142.680 167.692 194.485  0.00  0.00    +0.023 HD
ENDBRANCH  22  28
ENDBRANCH  20  22
BRANCH  20  32
ATOM     32  O   UNL     1     145.076 166.699 191.619  0.00  0.00    -0.461 OA
BRANCH  32  33
ATOM     33  C   UNL     1     145.143 166.060 190.414  0.00  0.00    +0.307 C 
ATOM     34  O   UNL     1     144.329 166.163 189.508  0.00  0.00    -0.251 OA
BRANCH  33  35
ATOM     35  C   UNL     1     146.372 165.189 190.371  0.00  0.00    +0.042 C 
ATOM     36  H   UNL     1     146.700 164.994 191.397  0.00  0.00    +0.037 HD
ATOM     37  H   UNL     1     146.102 164.245 189.889  0.00  0.00    +0.037 HD
BRANCH  35  38
ATOM     38  C   UNL     1     147.510 165.846 189.608  0.00  0.00    -0.055 C 
ATOM     39  H   UNL     1     147.565 166.912 189.852  0.00  0.00    +0.023 HD
ATOM     40  H   UNL     1     147.365 165.742 188.527  0.00  0.00    +0.023 HD
ATOM     41  H   UNL     1     148.470 165.385 189.863  0.00  0.00    +0.023 HD
ENDBRANCH  35  38
ENDBRANCH  33  35
ENDBRANCH  32  33
ENDBRANCH  20  32
ENDBRANCH  17  20
ENDBRANCH  15  17
BRANCH  15  42
ATOM     42  O   UNL     1     147.629 165.031 194.975  0.00  0.00    -0.379 OA
BRANCH  42  43
ATOM     43  C   UNL     1     147.715 165.928 196.073  0.00  0.00    +0.037 C 
ATOM     44  H   UNL     1     147.050 166.775 195.880  0.00  0.00    +0.052 HD
ATOM     45  H   UNL     1     147.402 165.441 197.000  0.00  0.00    +0.052 HD
ATOM     46  H   UNL     1     148.734 166.306 196.187  0.00  0.00    +0.052 HD
ENDBRANCH  42  43
ENDBRANCH  15  42
ENDBRANCH   9  15
ENDBRANCH   6   9
ENDBRANCH   3   6
ENDBRANCH   1   3
BRANCH   1  47
ATOM     47  C   UNL     1     146.581 169.508 190.233  0.00  0.00    +0.020 C 
ATOM     48  H   UNL     1     146.354 168.458 190.467  0.00  0.00    +0.036 HD
BRANCH  47  49
ATOM     49  C   UNL     1     147.201 169.427 188.828  0.00  0.00    -0.057 C 
ATOM     50  H   UNL     1     147.528 168.411 188.583  0.00  0.00    +0.023 HD
ATOM     51  H   UNL     1     146.508 169.774 188.057  0.00  0.00    +0.023 HD
ATOM     52  H   UNL     1     148.091 170.064 188.766  0.00  0.00    +0.023 HD
ENDBRANCH  47  49
BRANCH  47  53
ATOM     53  C   UNL     1     145.220 170.260 190.275  0.00  0.00    +0.070 C 
ATOM     54  H   UNL     1     144.783 170.117 191.272  0.00  0.00    +0.061 HD
BRANCH  53  55
ATOM     55  C   UNL     1     145.148 171.789 189.984  0.00  0.00    +0.002 C 
ATOM     56  H   UNL     1     146.103 172.190 190.360  0.00  0.00    +0.037 HD
BRANCH  55  58
ATOM     57  C   UNL     1     146.065 172.742 187.861  0.00  0.00    -0.005 C 
ATOM     58  C   UNL     1     145.057 172.145 188.515  0.00  0.00    -0.065 C 
ATOM     59  H   UNL     1     146.984 172.953 188.408  0.00  0.00    +0.078 HD
ATOM     60  H   UNL     1     144.110 171.930 188.034  0.00  0.00    +0.059 HD
BRANCH  57  62
ATOM     61  C   UNL     1     146.044 172.315 185.434  0.00  0.00    +0.206 C 
ATOM     62  N   UNL     1     146.081 173.159 186.539  0.00  0.00    -0.281 N 
ATOM     63  O   UNL     1     146.001 172.675 184.262  0.00  0.00    -0.279 OA
ATOM     64  H   UNL     1     146.051 171.245 185.684  0.00  0.00    +0.126 HD
BRANCH  62  65
ATOM     65  C   UNL     1     146.074 174.604 186.280  0.00  0.00    +0.016 C 
ATOM     66  H   UNL     1     146.745 175.101 186.990  0.00  0.00    +0.047 HD
ATOM     67  H   UNL     1     146.478 174.796 185.278  0.00  0.00    +0.047 HD
BRANCH  65  68
ATOM     68  C   UNL     1     144.672 175.192 186.370  0.00  0.00    -0.049 C 
ATOM     69  H   UNL     1     144.129 175.022 185.434  0.00  0.00    +0.024 HD
ATOM     70  H   UNL     1     144.706 176.272 186.555  0.00  0.00    +0.024 HD
ATOM     71  H   UNL     1     144.104 174.730 187.183  0.00  0.00    +0.024 HD
ENDBRANCH  65  68
ENDBRANCH  62  65
ENDBRANCH  57  62
ENDBRANCH  55  58
BRANCH  55  72
ATOM     72  C   UNL     1     144.093 172.570 190.773  0.00  0.00    -0.057 C 
ATOM     73  H   UNL     1     143.094 172.387 190.357  0.00  0.00    +0.024 HD
ATOM     74  H   UNL     1     144.268 173.650 190.726  0.00  0.00    +0.024 HD
ATOM     75  H   UNL     1     144.049 172.267 191.824  0.00  0.00    +0.024 HD
ENDBRANCH  55  72
ENDBRANCH  53  55
BRANCH  53  76
ATOM     76  O   UNL     1     144.324 169.641 189.321  0.00  0.00    -0.379 OA
BRANCH  76  77
ATOM     77  C   UNL     1     143.066 169.270 189.874  0.00  0.00    +0.037 C 
ATOM     78  H   UNL     1     142.966 169.653 190.893  0.00  0.00    +0.052 HD
ATOM     79  H   UNL     1     142.279 169.714 189.260  0.00  0.00    +0.052 HD
ATOM     80  H   UNL     1     142.937 168.185 189.866  0.00  0.00    +0.052 HD
ENDBRANCH  76  77
ENDBRANCH  53  76
ENDBRANCH  47  53
ENDBRANCH   1  47
BRANCH   1  81
ATOM     81  O   UNL     1     148.518 170.892 190.625  0.00  0.00    -0.461 OA
BRANCH  81  82
ATOM     82  C   UNL     1     148.510 172.175 191.084  0.00  0.00    +0.310 C 
ATOM     83  O   UNL     1     148.729 173.170 190.404  0.00  0.00    -0.251 OA
BRANCH  82  84
ATOM     84  C   UNL     1     148.182 172.230 192.563  0.00  0.00    +0.051 C 
ATOM     85  H   UNL     1     147.707 171.272 192.815  0.00  0.00    +0.041 HD
BRANCH  84  86
ATOM     86  C   UNL     1     149.451 172.368 193.397  0.00  0.00    -0.053 C 
ATOM     87  H   UNL     1     149.221 172.762 194.392  0.00  0.00    +0.024 HD
ATOM     88  H   UNL     1     150.158 173.050 192.913  0.00  0.00    +0.024 HD
ATOM     89  H   UNL     1     149.950 171.402 193.530  0.00  0.00    +0.024 HD
ENDBRANCH  84  86
BRANCH  84  90
ATOM     90  C   UNL     1     147.182 173.341 192.855  0.00  0.00    -0.053 C 
ATOM     91  H   UNL     1     146.238 173.165 192.328  0.00  0.00    +0.024 HD
ATOM     92  H   UNL     1     147.559 174.319 192.538  0.00  0.00    +0.024 HD
ATOM     93  H   UNL     1     146.967 173.397 193.928  0.00  0.00    +0.024 HD
ENDBRANCH  84  90
ENDBRANCH  82  84
ENDBRANCH  81  82
ENDBRANCH   1  81
TORSDOF 32
ENDMDL
MODEL 9
REMARK VINA RESULT:      -4.7      2.350      7.377
REMARK  Name = 2c_conf3
REMARK  32 active torsions:
REMARK  status: ('A' for Active; 'I' for Inactive)
REMARK    1  A    between atoms: N_2  and  C_3
REMARK    2  A    between atoms: N_2  and  C_5
REMARK    3  A    between atoms: C_3  and  C_4
REMARK    4  A    between atoms: C_6  and  C_7
REMARK    5  A    between atoms: C_7  and  C_8
REMARK    6  A    between atoms: C_7  and  C_9
REMARK    7  A    between atoms: C_9  and  O_10
REMARK    8  A    between atoms: C_9  and  C_12
REMARK    9  A    between atoms: O_10  and  C_11
REMARK   10  A    between atoms: C_12  and  C_13
REMARK   11  A    between atoms: C_12  and  C_14
REMARK   12  A    between atoms: C_14  and  O_15
REMARK   13  A    between atoms: C_14  and  C_21
REMARK   14  A    between atoms: O_15  and  C_16
REMARK   15  A    between atoms: C_16  and  C_17
REMARK   16  A    between atoms: C_17  and  C_18
REMARK   17  A    between atoms: C_17  and  C_19
REMARK   18  A    between atoms: C_21  and  C_22
REMARK   19  A    between atoms: C_22  and  C_23
REMARK   20  A    between atoms: C_23  and  C_24
REMARK   21  A    between atoms: C_23  and  C_25
REMARK   22  A    between atoms: C_25  and  O_26
REMARK   23  A    between atoms: C_25  and  C_28
REMARK   24  A    between atoms: O_26  and  C_27
REMARK   25  A    between atoms: C_28  and  C_29
REMARK   26  A    between atoms: C_29  and  O_30
REMARK   27  A    between atoms: C_29  and  C_35
REMARK   28  A    between atoms: O_30  and  C_31
REMARK   29  A    between atoms: C_31  and  C_32
REMARK   30  A    between atoms: C_32  and  C_33
REMARK   31  A    between atoms: C_35  and  C_36
REMARK   32  A    between atoms: C_35  and  C_37
REMARK                            x       y       z     vdW  Elec       q    Type
REMARK                         _______ _______ _______ _____ _____    ______ ____
ROOT
ATOM      1  C   UNL     1     147.943 170.036 190.960  0.00  0.00    +0.108 C 
ATOM      2  H   UNL     1     147.197 170.383 191.679  0.00  0.00    +0.074 HD
ENDROOT
BRANCH   1   3
ATOM      3  C   UNL     1     148.556 168.717 191.485  0.00  0.00    -0.015 C 
ATOM      4  H   UNL     1     148.186 167.879 190.887  0.00  0.00    +0.030 HD
ATOM      5  H   UNL     1     149.643 168.764 191.345  0.00  0.00    +0.030 HD
BRANCH   3   6
ATOM      6  C   UNL     1     148.280 168.459 192.975  0.00  0.00    -0.045 C 
ATOM      7  H   UNL     1     149.066 168.966 193.549  0.00  0.00    +0.027 HD
ATOM      8  H   UNL     1     147.347 168.953 193.256  0.00  0.00    +0.027 HD
BRANCH   6   9
ATOM      9  C   UNL     1     148.286 166.980 193.439  0.00  0.00    -0.017 C 
ATOM     10  H   UNL     1     148.092 166.377 192.538  0.00  0.00    +0.032 HD
BRANCH   9  11
ATOM     11  C   UNL     1     147.123 166.656 194.384  0.00  0.00    -0.060 C 
ATOM     12  H   UNL     1     146.699 167.568 194.818  0.00  0.00    +0.023 HD
ATOM     13  H   UNL     1     147.463 166.041 195.223  0.00  0.00    +0.023 HD
ATOM     14  H   UNL     1     146.319 166.123 193.867  0.00  0.00    +0.023 HD
ENDBRANCH   9  11
BRANCH   9  15
ATOM     15  C   UNL     1     149.666 166.492 193.987  0.00  0.00    +0.064 C 
ATOM     16  H   UNL     1     150.287 167.353 194.270  0.00  0.00    +0.060 HD
BRANCH  15  17
ATOM     17  C   UNL     1     150.405 165.639 192.928  0.00  0.00    +0.011 C 
ATOM     18  H   UNL     1     150.902 164.816 193.452  0.00  0.00    +0.033 HD
ATOM     19  H   UNL     1     149.670 165.200 192.246  0.00  0.00    +0.033 HD
BRANCH  17  20
ATOM     20  C   UNL     1     151.463 166.383 192.085  0.00  0.00    +0.108 C 
ATOM     21  H   UNL     1     150.970 166.836 191.216  0.00  0.00    +0.074 HD
BRANCH  20  22
ATOM     22  C   UNL     1     152.166 167.501 192.913  0.00  0.00    -0.009 C 
ATOM     23  H   UNL     1     151.652 167.589 193.878  0.00  0.00    +0.033 HD
BRANCH  22  24
ATOM     24  C   UNL     1     152.117 168.867 192.219  0.00  0.00    -0.059 C 
ATOM     25  H   UNL     1     151.343 169.503 192.659  0.00  0.00    +0.023 HD
ATOM     26  H   UNL     1     153.075 169.389 192.307  0.00  0.00    +0.023 HD
ATOM     27  H   UNL     1     151.874 168.770 191.156  0.00  0.00    +0.023 HD
ENDBRANCH  22  24
BRANCH  22  28
ATOM     28  C   UNL     1     153.629 167.163 193.226  0.00  0.00    -0.059 C 
ATOM     29  H   UNL     1     154.194 168.064 193.492  0.00  0.00    +0.023 HD
ATOM     30  H   UNL     1     154.118 166.680 192.375  0.00  0.00    +0.023 HD
ATOM     31  H   UNL     1     153.696 166.464 194.067  0.00  0.00    +0.023 HD
ENDBRANCH  22  28
ENDBRANCH  20  22
BRANCH  20  32
ATOM     32  O   UNL     1     152.454 165.413 191.679  0.00  0.00    -0.461 OA
BRANCH  32  33
ATOM     33  C   UNL     1     152.546 165.144 190.344  0.00  0.00    +0.307 C 
ATOM     34  O   UNL     1     152.088 164.158 189.783  0.00  0.00    -0.251 OA
BRANCH  33  35
ATOM     35  C   UNL     1     153.318 166.242 189.658  0.00  0.00    +0.042 C 
ATOM     36  H   UNL     1     153.689 166.937 190.418  0.00  0.00    +0.037 HD
ATOM     37  H   UNL     1     154.163 165.787 189.134  0.00  0.00    +0.037 HD
BRANCH  35  38
ATOM     38  C   UNL     1     152.458 167.010 188.669  0.00  0.00    -0.055 C 
ATOM     39  H   UNL     1     151.414 167.021 189.001  0.00  0.00    +0.023 HD
ATOM     40  H   UNL     1     152.502 166.551 187.675  0.00  0.00    +0.023 HD
ATOM     41  H   UNL     1     152.800 168.046 188.575  0.00  0.00    +0.023 HD
ENDBRANCH  35  38
ENDBRANCH  33  35
ENDBRANCH  32  33
ENDBRANCH  20  32
ENDBRANCH  17  20
ENDBRANCH  15  17
BRANCH  15  42
ATOM     42  O   UNL     1     149.419 165.641 195.115  0.00  0.00    -0.379 OA
BRANCH  42  43
ATOM     43  C   UNL     1     150.487 165.615 196.052  0.00  0.00    +0.037 C 
ATOM     44  H   UNL     1     150.112 165.198 196.991  0.00  0.00    +0.052 HD
ATOM     45  H   UNL     1     151.306 164.988 195.692  0.00  0.00    +0.052 HD
ATOM     46  H   UNL     1     150.858 166.624 196.245  0.00  0.00    +0.052 HD
ENDBRANCH  42  43
ENDBRANCH  15  42
ENDBRANCH   9  15
ENDBRANCH   6   9
ENDBRANCH   3   6
ENDBRANCH   1   3
BRANCH   1  47
ATOM     47  C   UNL     1     147.287 169.882 189.563  0.00  0.00    +0.020 C 
ATOM     48  H   UNL     1     147.876 170.521 188.889  0.00  0.00    +0.036 HD
BRANCH  47  49
ATOM     49  C   UNL     1     145.894 170.533 189.532  0.00  0.00    -0.057 C 
ATOM     50  H   UNL     1     145.097 169.789 189.431  0.00  0.00    +0.023 HD
ATOM     51  H   UNL     1     145.707 171.137 190.424  0.00  0.00    +0.023 HD
ATOM     52  H   UNL     1     145.805 171.204 188.669  0.00  0.00    +0.023 HD
ENDBRANCH  47  49
BRANCH  47  53
ATOM     53  C   UNL     1     147.325 168.456 188.944  0.00  0.00    +0.070 C 
ATOM     54  H   UNL     1     148.133 167.895 189.433  0.00  0.00    +0.061 HD
BRANCH  53  55
ATOM     55  C   UNL     1     146.069 167.536 188.989  0.00  0.00    +0.002 C 
ATOM     56  H   UNL     1     146.441 166.542 188.690  0.00  0.00    +0.037 HD
BRANCH  55  58
ATOM     57  C   UNL     1     144.120 167.324 190.543  0.00  0.00    -0.005 C 
ATOM     58  C   UNL     1     145.448 167.388 190.362  0.00  0.00    -0.065 C 
ATOM     59  H   UNL     1     143.476 167.356 189.664  0.00  0.00    +0.078 HD
ATOM     60  H   UNL     1     146.140 167.384 191.196  0.00  0.00    +0.059 HD
BRANCH  57  62
ATOM     61  C   UNL     1     143.791 166.417 192.811  0.00  0.00    +0.206 C 
ATOM     62  N   UNL     1     143.437 167.239 191.746  0.00  0.00    -0.281 N 
ATOM     63  O   UNL     1     143.226 166.377 193.900  0.00  0.00    -0.279 OA
ATOM     64  H   UNL     1     144.658 165.772 192.613  0.00  0.00    +0.126 HD
BRANCH  62  65
ATOM     65  C   UNL     1     142.286 168.130 191.940  0.00  0.00    +0.016 C 
ATOM     66  H   UNL     1     141.413 167.708 191.427  0.00  0.00    +0.047 HD
ATOM     67  H   UNL     1     142.034 168.171 193.007  0.00  0.00    +0.047 HD
BRANCH  65  68
ATOM     68  C   UNL     1     142.567 169.541 191.442  0.00  0.00    -0.049 C 
ATOM     69  H   UNL     1     142.048 169.718 190.494  0.00  0.00    +0.024 HD
ATOM     70  H   UNL     1     143.639 169.698 191.280  0.00  0.00    +0.024 HD
ATOM     71  H   UNL     1     142.224 170.288 192.164  0.00  0.00    +0.024 HD
ENDBRANCH  65  68
ENDBRANCH  62  65
ENDBRANCH  57  62
ENDBRANCH  55  58
BRANCH  55  72
ATOM     72  C   UNL     1     144.980 167.840 187.956  0.00  0.00    -0.057 C 
ATOM     73  H   UNL     1     145.428 168.003 186.968  0.00  0.00    +0.024 HD
ATOM     74  H   UNL     1     144.422 168.747 188.209  0.00  0.00    +0.024 HD
ATOM     75  H   UNL     1     144.272 167.013 187.842  0.00  0.00    +0.024 HD
ENDBRANCH  55  72
ENDBRANCH  53  55
BRANCH  53  76
ATOM     76  O   UNL     1     147.672 168.572 187.543  0.00  0.00    -0.379 OA
BRANCH  76  77
ATOM     77  C   UNL     1     148.630 167.613 187.108  0.00  0.00    +0.037 C 
ATOM     78  H   UNL     1     149.302 167.343 187.927  0.00  0.00    +0.052 HD
ATOM     79  H   UNL     1     148.094 166.715 186.791  0.00  0.00    +0.052 HD
ATOM     80  H   UNL     1     149.204 167.988 186.258  0.00  0.00    +0.052 HD
ENDBRANCH  76  77
ENDBRANCH  53  76
ENDBRANCH  47  53
ENDBRANCH   1  47
BRANCH   1  81
ATOM     81  O   UNL     1     149.003 171.015 190.825  0.00  0.00    -0.461 OA
BRANCH  81  82
ATOM     82  C   UNL     1     148.734 172.285 191.238  0.00  0.00    +0.310 C 
ATOM     83  O   UNL     1     148.851 173.290 190.549  0.00  0.00    -0.251 OA
BRANCH  82  84
ATOM     84  C   UNL     1     148.251 172.307 192.674  0.00  0.00    +0.051 C 
ATOM     85  H   UNL     1     147.770 171.338 192.860  0.00  0.00    +0.041 HD
BRANCH  84  86
ATOM     86  C   UNL     1     149.422 172.452 193.639  0.00  0.00    -0.053 C 
ATOM     87  H   UNL     1     149.286 171.808 194.514  0.00  0.00    +0.024 HD
ATOM     88  H   UNL     1     149.509 173.487 193.987  0.00  0.00    +0.024 HD
ATOM     89  H   UNL     1     150.369 172.172 193.166  0.00  0.00    +0.024 HD
ENDBRANCH  84  86
BRANCH  84  90
ATOM     90  C   UNL     1     147.205 173.396 192.877  0.00  0.00    -0.053 C 
ATOM     91  H   UNL     1     146.771 173.337 193.882  0.00  0.00    +0.024 HD
ATOM     92  H   UNL     1     146.383 173.307 192.159  0.00  0.00    +0.024 HD
ATOM     93  H   UNL     1     147.650 174.389 192.757  0.00  0.00    +0.024 HD
ENDBRANCH  84  90
ENDBRANCH  82  84
ENDBRANCH  81  82
ENDBRANCH   1  81
TORSDOF 32
ENDMDL
MODEL 10
REMARK VINA RESULT:      -4.7      1.571      2.817
REMARK  Name = 2c_conf3
REMARK  32 active torsions:
REMARK  status: ('A' for Active; 'I' for Inactive)
REMARK    1  A    between atoms: N_2  and  C_3
REMARK    2  A    between atoms: N_2  and  C_5
REMARK    3  A    between atoms: C_3  and  C_4
REMARK    4  A    between atoms: C_6  and  C_7
REMARK    5  A    between atoms: C_7  and  C_8
REMARK    6  A    between atoms: C_7  and  C_9
REMARK    7  A    between atoms: C_9  and  O_10
REMARK    8  A    between atoms: C_9  and  C_12
REMARK    9  A    between atoms: O_10  and  C_11
REMARK   10  A    between atoms: C_12  and  C_13
REMARK   11  A    between atoms: C_12  and  C_14
REMARK   12  A    between atoms: C_14  and  O_15
REMARK   13  A    between atoms: C_14  and  C_21
REMARK   14  A    between atoms: O_15  and  C_16
REMARK   15  A    between atoms: C_16  and  C_17
REMARK   16  A    between atoms: C_17  and  C_18
REMARK   17  A    between atoms: C_17  and  C_19
REMARK   18  A    between atoms: C_21  and  C_22
REMARK   19  A    between atoms: C_22  and  C_23
REMARK   20  A    between atoms: C_23  and  C_24
REMARK   21  A    between atoms: C_23  and  C_25
REMARK   22  A    between atoms: C_25  and  O_26
REMARK   23  A    between atoms: C_25  and  C_28
REMARK   24  A    between atoms: O_26  and  C_27
REMARK   25  A    between atoms: C_28  and  C_29
REMARK   26  A    between atoms: C_29  and  O_30
REMARK   27  A    between atoms: C_29  and  C_35
REMARK   28  A    between atoms: O_30  and  C_31
REMARK   29  A    between atoms: C_31  and  C_32
REMARK   30  A    between atoms: C_32  and  C_33
REMARK   31  A    between atoms: C_35  and  C_36
REMARK   32  A    between atoms: C_35  and  C_37
REMARK                            x       y       z     vdW  Elec       q    Type
REMARK                         _______ _______ _______ _____ _____    ______ ____
ROOT
ATOM      1  C   UNL     1     148.963 168.877 192.097  0.00  0.00    +0.108 C 
ATOM      2  H   UNL     1     148.736 168.803 191.031  0.00  0.00    +0.074 HD
ENDROOT
BRANCH   1   3
ATOM      3  C   UNL     1     148.220 167.741 192.838  0.00  0.00    -0.015 C 
ATOM      4  H   UNL     1     148.940 167.144 193.408  0.00  0.00    +0.030 HD
ATOM      5  H   UNL     1     147.530 168.195 193.560  0.00  0.00    +0.030 HD
BRANCH   3   6
ATOM      6  C   UNL     1     147.404 166.828 191.909  0.00  0.00    -0.045 C 
ATOM      7  H   UNL     1     147.376 167.305 190.921  0.00  0.00    +0.027 HD
ATOM      8  H   UNL     1     147.944 165.890 191.766  0.00  0.00    +0.027 HD
BRANCH   6   9
ATOM      9  C   UNL     1     145.930 166.566 192.309  0.00  0.00    -0.017 C 
ATOM     10  H   UNL     1     145.487 167.554 192.509  0.00  0.00    +0.032 HD
BRANCH   9  11
ATOM     11  C   UNL     1     145.808 165.807 193.636  0.00  0.00    -0.060 C 
ATOM     12  H   UNL     1     146.794 165.549 194.036  0.00  0.00    +0.023 HD
ATOM     13  H   UNL     1     145.271 164.863 193.496  0.00  0.00    +0.023 HD
ATOM     14  H   UNL     1     145.280 166.397 194.391  0.00  0.00    +0.023 HD
ENDBRANCH   9  11
BRANCH   9  15
ATOM     15  C   UNL     1     145.065 165.936 191.169  0.00  0.00    +0.064 C 
ATOM     16  H   UNL     1     144.837 166.691 190.405  0.00  0.00    +0.060 HD
BRANCH  15  17
ATOM     17  C   UNL     1     143.748 165.356 191.739  0.00  0.00    +0.011 C 
ATOM     18  H   UNL     1     143.686 164.307 191.429  0.00  0.00    +0.033 HD
ATOM     19  H   UNL     1     143.793 165.375 192.833  0.00  0.00    +0.033 HD
BRANCH  17  20
ATOM     20  C   UNL     1     142.452 166.068 191.296  0.00  0.00    +0.108 C 
ATOM     21  H   UNL     1     141.655 165.321 191.190  0.00  0.00    +0.074 HD
BRANCH  20  22
ATOM     22  C   UNL     1     142.010 167.141 192.337  0.00  0.00    -0.009 C 
ATOM     23  H   UNL     1     140.915 167.209 192.317  0.00  0.00    +0.033 HD
BRANCH  22  24
ATOM     24  C   UNL     1     142.581 168.530 192.029  0.00  0.00    -0.059 C 
ATOM     25  H   UNL     1     143.384 168.788 192.728  0.00  0.00    +0.023 HD
ATOM     26  H   UNL     1     142.990 168.573 191.014  0.00  0.00    +0.023 HD
ATOM     27  H   UNL     1     141.820 169.310 192.128  0.00  0.00    +0.023 HD
ENDBRANCH  22  24
BRANCH  22  28
ATOM     28  C   UNL     1     142.398 166.759 193.770  0.00  0.00    -0.059 C 
ATOM     29  H   UNL     1     142.357 167.629 194.436  0.00  0.00    +0.023 HD
ATOM     30  H   UNL     1     143.405 166.334 193.811  0.00  0.00    +0.023 HD
ATOM     31  H   UNL     1     141.718 165.999 194.168  0.00  0.00    +0.023 HD
ENDBRANCH  22  28
ENDBRANCH  20  22
BRANCH  20  32
ATOM     32  O   UNL     1     142.726 166.726 190.040  0.00  0.00    -0.461 OA
BRANCH  32  33
ATOM     33  C   UNL     1     142.063 166.262 188.941  0.00  0.00    +0.307 C 
ATOM     34  O   UNL     1     141.710 165.105 188.758  0.00  0.00    -0.251 OA
BRANCH  33  35
ATOM     35  C   UNL     1     141.840 167.392 187.969  0.00  0.00    +0.042 C 
ATOM     36  H   UNL     1     142.814 167.777 187.649  0.00  0.00    +0.037 HD
ATOM     37  H   UNL     1     141.303 166.994 187.103  0.00  0.00    +0.037 HD
BRANCH  35  38
ATOM     38  C   UNL     1     141.043 168.527 188.588  0.00  0.00    -0.055 C 
ATOM     39  H   UNL     1     141.505 169.491 188.349  0.00  0.00    +0.023 HD
ATOM     40  H   UNL     1     140.998 168.423 189.678  0.00  0.00    +0.023 HD
ATOM     41  H   UNL     1     140.015 168.535 188.210  0.00  0.00    +0.023 HD
ENDBRANCH  35  38
ENDBRANCH  33  35
ENDBRANCH  32  33
ENDBRANCH  20  32
ENDBRANCH  17  20
ENDBRANCH  15  17
BRANCH  15  42
ATOM     42  O   UNL     1     145.801 164.839 190.609  0.00  0.00    -0.379 OA
BRANCH  42  43
ATOM     43  C   UNL     1     145.279 164.380 189.370  0.00  0.00    +0.037 C 
ATOM     44  H   UNL     1     144.672 163.490 189.560  0.00  0.00    +0.052 HD
ATOM     45  H   UNL     1     144.650 165.142 188.904  0.00  0.00    +0.052 HD
ATOM     46  H   UNL     1     146.088 164.108 188.686  0.00  0.00    +0.052 HD
ENDBRANCH  42  43
ENDBRANCH  15  42
ENDBRANCH   9  15
ENDBRANCH   6   9
ENDBRANCH   3   6
ENDBRANCH   1   3
BRANCH   1  47
ATOM     47  C   UNL     1     150.499 168.831 192.307  0.00  0.00    +0.020 C 
ATOM     48  H   UNL     1     150.644 168.647 193.382  0.00  0.00    +0.036 HD
BRANCH  47  49
ATOM     49  C   UNL     1     151.126 170.220 192.102  0.00  0.00    -0.057 C 
ATOM     50  H   UNL     1     150.865 170.647 191.129  0.00  0.00    +0.023 HD
ATOM     51  H   UNL     1     150.831 170.919 192.889  0.00  0.00    +0.023 HD
ATOM     52  H   UNL     1     152.220 170.153 192.129  0.00  0.00    +0.023 HD
ENDBRANCH  47  49
BRANCH  47  53
ATOM     53  C   UNL     1     151.255 167.688 191.572  0.00  0.00    +0.070 C 
ATOM     54  H   UNL     1     151.953 168.146 190.858  0.00  0.00    +0.061 HD
BRANCH  53  55
ATOM     55  C   UNL     1     152.081 166.637 192.372  0.00  0.00    +0.002 C 
ATOM     56  H   UNL     1     152.811 167.233 192.943  0.00  0.00    +0.037 HD
BRANCH  55  58
ATOM     57  C   UNL     1     151.522 165.880 194.690  0.00  0.00    -0.005 C 
ATOM     58  C   UNL     1     151.275 165.835 193.372  0.00  0.00    -0.065 C 
ATOM     59  H   UNL     1     152.316 166.537 195.045  0.00  0.00    +0.078 HD
ATOM     60  H   UNL     1     150.514 165.186 192.954  0.00  0.00    +0.059 HD
BRANCH  57  62
ATOM     61  C   UNL     1     151.112 163.817 195.975  0.00  0.00    +0.206 C 
ATOM     62  N   UNL     1     150.889 165.160 195.691  0.00  0.00    -0.281 N 
ATOM     63  O   UNL     1     150.599 163.186 196.894  0.00  0.00    -0.279 OA
ATOM     64  H   UNL     1     151.820 163.324 195.292  0.00  0.00    +0.126 HD
BRANCH  62  65
ATOM     65  C   UNL     1     149.954 165.882 196.563  0.00  0.00    +0.016 C 
ATOM     66  H   UNL     1     149.978 165.437 197.565  0.00  0.00    +0.047 HD
ATOM     67  H   UNL     1     150.289 166.921 196.673  0.00  0.00    +0.047 HD
BRANCH  65  68
ATOM     68  C   UNL     1     148.536 165.874 196.010  0.00  0.00    -0.049 C 
ATOM     69  H   UNL     1     148.310 164.901 195.560  0.00  0.00    +0.024 HD
ATOM     70  H   UNL     1     148.405 166.645 195.242  0.00  0.00    +0.024 HD
ATOM     71  H   UNL     1     147.804 166.062 196.802  0.00  0.00    +0.024 HD
ENDBRANCH  65  68
ENDBRANCH  62  65
ENDBRANCH  57  62
ENDBRANCH  55  58
BRANCH  55  72
ATOM     72  C   UNL     1     152.955 165.696 191.537  0.00  0.00    -0.057 C 
ATOM     73  H   UNL     1     152.486 164.707 191.465  0.00  0.00    +0.024 HD
ATOM     74  H   UNL     1     153.941 165.552 191.988  0.00  0.00    +0.024 HD
ATOM     75  H   UNL     1     153.086 166.051 190.511  0.00  0.00    +0.024 HD
ENDBRANCH  55  72
ENDBRANCH  53  55
BRANCH  53  76
ATOM     76  O   UNL     1     150.296 166.924 190.802  0.00  0.00    -0.379 OA
BRANCH  76  77
ATOM     77  C   UNL     1     150.521 166.970 189.397  0.00  0.00    +0.037 C 
ATOM     78  H   UNL     1     150.713 165.967 189.006  0.00  0.00    +0.052 HD
ATOM     79  H   UNL     1     149.619 167.360 188.920  0.00  0.00    +0.052 HD
ATOM     80  H   UNL     1     151.353 167.634 189.153  0.00  0.00    +0.052 HD
ENDBRANCH  76  77
ENDBRANCH  53  76
ENDBRANCH  47  53
ENDBRANCH   1  47
BRANCH   1  81
ATOM     81  O   UNL     1     148.501 170.147 192.621  0.00  0.00    -0.461 OA
BRANCH  81  82
ATOM     82  C   UNL     1     147.715 170.907 191.808  0.00  0.00    +0.310 C 
ATOM     83  O   UNL     1     146.931 170.470 190.975  0.00  0.00    -0.251 OA
BRANCH  82  84
ATOM     84  C   UNL     1     147.921 172.385 192.067  0.00  0.00    +0.051 C 
ATOM     85  H   UNL     1     146.923 172.843 192.094  0.00  0.00    +0.041 HD
BRANCH  84  86
ATOM     86  C   UNL     1     148.586 172.613 193.420  0.00  0.00    -0.053 C 
ATOM     87  H   UNL     1     149.330 173.414 193.358  0.00  0.00    +0.024 HD
ATOM     88  H   UNL     1     149.091 171.702 193.760  0.00  0.00    +0.024 HD
ATOM     89  H   UNL     1     147.854 172.899 194.184  0.00  0.00    +0.024 HD
ENDBRANCH  84  86
BRANCH  84  90
ATOM     90  C   UNL     1     148.704 173.032 190.931  0.00  0.00    -0.053 C 
ATOM     91  H   UNL     1     148.034 173.325 190.115  0.00  0.00    +0.024 HD
ATOM     92  H   UNL     1     149.451 172.348 190.514  0.00  0.00    +0.024 HD
ATOM     93  H   UNL     1     149.226 173.928 191.280  0.00  0.00    +0.024 HD
ENDBRANCH  84  90
ENDBRANCH  82  84
ENDBRANCH  81  82
ENDBRANCH   1  81
TORSDOF 32
ENDMDL
