MODEL 1
REMARK VINA RESULT:      -5.0      0.000      0.000
REMARK  Name = 2c_conf2
REMARK  32 active torsions:
REMARK  status: ('A' for Active; 'I' for Inactive)
REMARK    1  A    between atoms: N_2  and  C_3
REMARK    2  A    between atoms: N_2  and  C_5
REMARK    3  A    between atoms: C_3  and  C_4
REMARK    4  A    between atoms: C_6  and  C_7
REMARK    5  A    between atoms: C_7  and  C_8
REMARK    6  A    between atoms: C_7  and  C_9
REMARK    7  A    between atoms: C_9  and  O_10
REMARK    8  A    between atoms: C_9  and  C_12
REMARK    9  A    between atoms: O_10  and  C_11
REMARK   10  A    between atoms: C_12  and  C_13
REMARK   11  A    between atoms: C_12  and  C_14
REMARK   12  A    between atoms: C_14  and  O_15
REMARK   13  A    between atoms: C_14  and  C_21
REMARK   14  A    between atoms: O_15  and  C_16
REMARK   15  A    between atoms: C_16  and  C_17
REMARK   16  A    between atoms: C_17  and  C_18
REMARK   17  A    between atoms: C_17  and  C_19
REMARK   18  A    between atoms: C_21  and  C_22
REMARK   19  A    between atoms: C_22  and  C_23
REMARK   20  A    between atoms: C_23  and  C_24
REMARK   21  A    between atoms: C_23  and  C_25
REMARK   22  A    between atoms: C_25  and  O_26
REMARK   23  A    between atoms: C_25  and  C_28
REMARK   24  A    between atoms: O_26  and  C_27
REMARK   25  A    between atoms: C_28  and  C_29
REMARK   26  A    between atoms: C_29  and  O_30
REMARK   27  A    between atoms: C_29  and  C_35
REMARK   28  A    between atoms: O_30  and  C_31
REMARK   29  A    between atoms: C_31  and  C_32
REMARK   30  A    between atoms: C_32  and  C_33
REMARK   31  A    between atoms: C_35  and  C_36
REMARK   32  A    between atoms: C_35  and  C_37
REMARK                            x       y       z     vdW  Elec       q    Type
REMARK                         _______ _______ _______ _____ _____    ______ ____
ROOT
ATOM      1  C   UNL     1     147.245 169.692 191.006  0.00  0.00    +0.108 C 
ATOM      2  H   UNL     1     146.776 170.243 191.835  0.00  0.00    +0.074 HD
ENDROOT
BRANCH   1   3
ATOM      3  C   UNL     1     147.823 168.392 191.589  0.00  0.00    -0.015 C 
ATOM      4  H   UNL     1     147.382 168.201 192.569  0.00  0.00    +0.030 HD
ATOM      5  H   UNL     1     148.908 168.448 191.720  0.00  0.00    +0.030 HD
BRANCH   3   6
ATOM      6  C   UNL     1     147.526 167.194 190.668  0.00  0.00    -0.045 C 
ATOM      7  H   UNL     1     146.653 167.400 190.034  0.00  0.00    +0.027 HD
ATOM      8  H   UNL     1     148.382 167.085 189.988  0.00  0.00    +0.027 HD
BRANCH   6   9
ATOM      9  C   UNL     1     147.312 165.871 191.449  0.00  0.00    -0.017 C 
ATOM     10  H   UNL     1     148.160 165.214 191.236  0.00  0.00    +0.032 HD
BRANCH   9  11
ATOM     11  C   UNL     1     146.044 165.190 190.914  0.00  0.00    -0.060 C 
ATOM     12  H   UNL     1     145.369 165.937 190.483  0.00  0.00    +0.023 HD
ATOM     13  H   UNL     1     145.497 164.668 191.706  0.00  0.00    +0.023 HD
ATOM     14  H   UNL     1     146.263 164.467 190.125  0.00  0.00    +0.023 HD
ENDBRANCH   9  11
BRANCH   9  15
ATOM     15  C   UNL     1     147.232 166.142 192.981  0.00  0.00    +0.064 C 
ATOM     16  H   UNL     1     147.363 167.213 193.148  0.00  0.00    +0.060 HD
BRANCH  15  17
ATOM     17  C   UNL     1     148.266 165.355 193.817  0.00  0.00    +0.011 C 
ATOM     18  H   UNL     1     148.466 164.405 193.309  0.00  0.00    +0.033 HD
ATOM     19  H   UNL     1     147.818 165.033 194.763  0.00  0.00    +0.033 HD
BRANCH  17  20
ATOM     20  C   UNL     1     149.589 166.070 194.146  0.00  0.00    +0.108 C 
ATOM     21  H   UNL     1     149.557 167.134 193.887  0.00  0.00    +0.074 HD
BRANCH  20  22
ATOM     22  C   UNL     1     150.052 165.929 195.624  0.00  0.00    -0.009 C 
ATOM     23  H   UNL     1     150.691 166.789 195.871  0.00  0.00    +0.033 HD
BRANCH  22  24
ATOM     24  C   UNL     1     150.841 164.655 195.917  0.00  0.00    -0.059 C 
ATOM     25  H   UNL     1     151.719 164.860 196.534  0.00  0.00    +0.023 HD
ATOM     26  H   UNL     1     150.213 163.917 196.420  0.00  0.00    +0.023 HD
ATOM     27  H   UNL     1     151.189 164.191 194.988  0.00  0.00    +0.023 HD
ENDBRANCH  22  24
BRANCH  22  28
ATOM     28  C   UNL     1     148.842 166.004 196.570  0.00  0.00    -0.059 C 
ATOM     29  H   UNL     1     147.935 165.646 196.072  0.00  0.00    +0.023 HD
ATOM     30  H   UNL     1     149.006 165.390 197.459  0.00  0.00    +0.023 HD
ATOM     31  H   UNL     1     148.659 167.027 196.909  0.00  0.00    +0.023 HD
ENDBRANCH  22  28
ENDBRANCH  20  22
BRANCH  20  32
ATOM     32  O   UNL     1     150.626 165.420 193.359  0.00  0.00    -0.461 OA
BRANCH  32  33
ATOM     33  C   UNL     1     151.089 166.101 192.275  0.00  0.00    +0.307 C 
ATOM     34  O   UNL     1     150.799 165.869 191.110  0.00  0.00    -0.251 OA
BRANCH  33  35
ATOM     35  C   UNL     1     152.037 167.192 192.710  0.00  0.00    +0.042 C 
ATOM     36  H   UNL     1     152.330 167.766 191.826  0.00  0.00    +0.037 HD
ATOM     37  H   UNL     1     151.507 167.879 193.380  0.00  0.00    +0.037 HD
BRANCH  35  38
ATOM     38  C   UNL     1     153.268 166.615 193.379  0.00  0.00    -0.055 C 
ATOM     39  H   UNL     1     153.528 167.195 194.271  0.00  0.00    +0.023 HD
ATOM     40  H   UNL     1     153.107 165.578 193.691  0.00  0.00    +0.023 HD
ATOM     41  H   UNL     1     154.129 166.625 192.696  0.00  0.00    +0.023 HD
ENDBRANCH  35  38
ENDBRANCH  33  35
ENDBRANCH  32  33
ENDBRANCH  20  32
ENDBRANCH  17  20
ENDBRANCH  15  17
BRANCH  15  42
ATOM     42  O   UNL     1     145.897 165.790 193.397  0.00  0.00    -0.379 OA
BRANCH  42  43
ATOM     43  C   UNL     1     145.818 165.159 194.663  0.00  0.00    +0.037 C 
ATOM     44  H   UNL     1     145.988 164.087 194.520  0.00  0.00    +0.052 HD
ATOM     45  H   UNL     1     146.592 165.531 195.342  0.00  0.00    +0.052 HD
ATOM     46  H   UNL     1     144.825 165.295 195.104  0.00  0.00    +0.052 HD
ENDBRANCH  42  43
ENDBRANCH  15  42
ENDBRANCH   9  15
ENDBRANCH   6   9
ENDBRANCH   3   6
ENDBRANCH   1   3
BRANCH   1  47
ATOM     47  C   UNL     1     146.176 169.546 189.888  0.00  0.00    +0.020 C 
ATOM     48  H   UNL     1     145.819 168.511 189.991  0.00  0.00    +0.036 HD
BRANCH  47  49
ATOM     49  C   UNL     1     146.790 169.560 188.485  0.00  0.00    -0.057 C 
ATOM     50  H   UNL     1     146.603 168.636 187.934  0.00  0.00    +0.023 HD
ATOM     51  H   UNL     1     147.876 169.712 188.525  0.00  0.00    +0.023 HD
ATOM     52  H   UNL     1     146.372 170.382 187.892  0.00  0.00    +0.023 HD
ENDBRANCH  47  49
BRANCH  47  53
ATOM     53  C   UNL     1     144.879 170.398 190.044  0.00  0.00    +0.070 C 
ATOM     54  H   UNL     1     144.831 171.084 189.191  0.00  0.00    +0.061 HD
BRANCH  53  55
ATOM     55  C   UNL     1     143.512 169.653 190.067  0.00  0.00    +0.002 C 
ATOM     56  H   UNL     1     143.027 169.789 189.098  0.00  0.00    +0.037 HD
BRANCH  55  58
ATOM     57  C   UNL     1     142.551 167.412 190.679  0.00  0.00    -0.005 C 
ATOM     58  C   UNL     1     143.614 168.178 190.392  0.00  0.00    -0.065 C 
ATOM     59  H   UNL     1     141.559 167.863 190.686  0.00  0.00    +0.078 HD
ATOM     60  H   UNL     1     144.620 167.768 190.377  0.00  0.00    +0.059 HD
BRANCH  57  62
ATOM     61  C   UNL     1     142.551 165.131 189.933  0.00  0.00    +0.206 C 
ATOM     62  N   UNL     1     142.565 166.056 190.975  0.00  0.00    -0.281 N 
ATOM     63  O   UNL     1     142.503 165.382 188.734  0.00  0.00    -0.279 OA
ATOM     64  H   UNL     1     142.589 164.088 190.286  0.00  0.00    +0.126 HD
BRANCH  62  65
ATOM     65  C   UNL     1     142.624 165.552 192.345  0.00  0.00    +0.016 C 
ATOM     66  H   UNL     1     141.955 164.694 192.455  0.00  0.00    +0.047 HD
ATOM     67  H   UNL     1     143.637 165.175 192.537  0.00  0.00    +0.047 HD
BRANCH  65  68
ATOM     68  C   UNL     1     142.309 166.629 193.372  0.00  0.00    -0.049 C 
ATOM     69  H   UNL     1     143.207 167.215 193.594  0.00  0.00    +0.024 HD
ATOM     70  H   UNL     1     141.532 167.302 193.009  0.00  0.00    +0.024 HD
ATOM     71  H   UNL     1     141.960 166.193 194.316  0.00  0.00    +0.024 HD
ENDBRANCH  65  68
ENDBRANCH  62  65
ENDBRANCH  57  62
ENDBRANCH  55  58
BRANCH  55  72
ATOM     72  C   UNL     1     142.579 170.303 191.101  0.00  0.00    -0.057 C 
ATOM     73  H   UNL     1     143.084 171.083 191.681  0.00  0.00    +0.024 HD
ATOM     74  H   UNL     1     141.714 170.761 190.608  0.00  0.00    +0.024 HD
ATOM     75  H   UNL     1     142.198 169.557 191.809  0.00  0.00    +0.024 HD
ENDBRANCH  55  72
ENDBRANCH  53  55
BRANCH  53  76
ATOM     76  O   UNL     1     144.952 171.197 191.245  0.00  0.00    -0.379 OA
BRANCH  76  77
ATOM     77  C   UNL     1     145.047 172.596 191.001  0.00  0.00    +0.037 C 
ATOM     78  H   UNL     1     145.531 172.784 190.036  0.00  0.00    +0.052 HD
ATOM     79  H   UNL     1     144.034 173.002 190.964  0.00  0.00    +0.052 HD
ATOM     80  H   UNL     1     145.596 173.104 191.802  0.00  0.00    +0.052 HD
ENDBRANCH  76  77
ENDBRANCH  53  76
ENDBRANCH  47  53
ENDBRANCH   1  47
BRANCH   1  81
ATOM     81  O   UNL     1     148.379 170.445 190.520  0.00  0.00    -0.461 OA
BRANCH  81  82
ATOM     82  C   UNL     1     148.706 171.587 191.181  0.00  0.00    +0.310 C 
ATOM     83  O   UNL     1     148.511 172.717 190.755  0.00  0.00    -0.251 OA
BRANCH  82  84
ATOM     84  C   UNL     1     149.336 171.297 192.534  0.00  0.00    +0.051 C 
ATOM     85  H   UNL     1     148.650 170.614 193.054  0.00  0.00    +0.041 HD
BRANCH  84  86
ATOM     86  C   UNL     1     149.497 172.537 193.413  0.00  0.00    -0.053 C 
ATOM     87  H   UNL     1     150.050 172.316 194.334  0.00  0.00    +0.024 HD
ATOM     88  H   UNL     1     148.519 172.941 193.698  0.00  0.00    +0.024 HD
ATOM     89  H   UNL     1     150.042 173.323 192.879  0.00  0.00    +0.024 HD
ENDBRANCH  84  86
BRANCH  84  90
ATOM     90  C   UNL     1     150.678 170.598 192.327  0.00  0.00    -0.053 C 
ATOM     91  H   UNL     1     150.552 169.623 191.840  0.00  0.00    +0.024 HD
ATOM     92  H   UNL     1     151.177 170.424 193.288  0.00  0.00    +0.024 HD
ATOM     93  H   UNL     1     151.347 171.215 191.713  0.00  0.00    +0.024 HD
ENDBRANCH  84  90
ENDBRANCH  82  84
ENDBRANCH  81  82
ENDBRANCH   1  81
TORSDOF 32
ENDMDL
MODEL 2
REMARK VINA RESULT:      -4.9      1.703      3.082
REMARK  Name = 2c_conf2
REMARK  32 active torsions:
REMARK  status: ('A' for Active; 'I' for Inactive)
REMARK    1  A    between atoms: N_2  and  C_3
REMARK    2  A    between atoms: N_2  and  C_5
REMARK    3  A    between atoms: C_3  and  C_4
REMARK    4  A    between atoms: C_6  and  C_7
REMARK    5  A    between atoms: C_7  and  C_8
REMARK    6  A    between atoms: C_7  and  C_9
REMARK    7  A    between atoms: C_9  and  O_10
REMARK    8  A    between atoms: C_9  and  C_12
REMARK    9  A    between atoms: O_10  and  C_11
REMARK   10  A    between atoms: C_12  and  C_13
REMARK   11  A    between atoms: C_12  and  C_14
REMARK   12  A    between atoms: C_14  and  O_15
REMARK   13  A    between atoms: C_14  and  C_21
REMARK   14  A    between atoms: O_15  and  C_16
REMARK   15  A    between atoms: C_16  and  C_17
REMARK   16  A    between atoms: C_17  and  C_18
REMARK   17  A    between atoms: C_17  and  C_19
REMARK   18  A    between atoms: C_21  and  C_22
REMARK   19  A    between atoms: C_22  and  C_23
REMARK   20  A    between atoms: C_23  and  C_24
REMARK   21  A    between atoms: C_23  and  C_25
REMARK   22  A    between atoms: C_25  and  O_26
REMARK   23  A    between atoms: C_25  and  C_28
REMARK   24  A    between atoms: O_26  and  C_27
REMARK   25  A    between atoms: C_28  and  C_29
REMARK   26  A    between atoms: C_29  and  O_30
REMARK   27  A    between atoms: C_29  and  C_35
REMARK   28  A    between atoms: O_30  and  C_31
REMARK   29  A    between atoms: C_31  and  C_32
REMARK   30  A    between atoms: C_32  and  C_33
REMARK   31  A    between atoms: C_35  and  C_36
REMARK   32  A    between atoms: C_35  and  C_37
REMARK                            x       y       z     vdW  Elec       q    Type
REMARK                         _______ _______ _______ _____ _____    ______ ____
ROOT
ATOM      1  C   UNL     1     146.374 171.296 190.140  0.00  0.00    +0.108 C 
ATOM      2  H   UNL     1     145.968 171.173 191.155  0.00  0.00    +0.074 HD
ENDROOT
BRANCH   1   3
ATOM      3  C   UNL     1     147.457 170.221 189.948  0.00  0.00    -0.015 C 
ATOM      4  H   UNL     1     148.395 170.562 190.388  0.00  0.00    +0.030 HD
ATOM      5  H   UNL     1     147.644 170.013 188.890  0.00  0.00    +0.030 HD
BRANCH   3   6
ATOM      6  C   UNL     1     147.045 168.897 190.618  0.00  0.00    -0.045 C 
ATOM      7  H   UNL     1     146.081 169.006 191.132  0.00  0.00    +0.027 HD
ATOM      8  H   UNL     1     146.887 168.161 189.818  0.00  0.00    +0.027 HD
BRANCH   6   9
ATOM      9  C   UNL     1     148.115 168.364 191.608  0.00  0.00    -0.017 C 
ATOM     10  H   UNL     1     147.759 168.559 192.624  0.00  0.00    +0.032 HD
BRANCH   9  11
ATOM     11  C   UNL     1     149.409 169.166 191.402  0.00  0.00    -0.060 C 
ATOM     12  H   UNL     1     149.174 170.217 191.207  0.00  0.00    +0.023 HD
ATOM     13  H   UNL     1     149.988 168.792 190.551  0.00  0.00    +0.023 HD
ATOM     14  H   UNL     1     150.055 169.142 192.283  0.00  0.00    +0.023 HD
ENDBRANCH   9  11
BRANCH   9  15
ATOM     15  C   UNL     1     148.334 166.835 191.412  0.00  0.00    +0.064 C 
ATOM     16  H   UNL     1     147.833 166.308 192.227  0.00  0.00    +0.060 HD
BRANCH  15  17
ATOM     17  C   UNL     1     149.819 166.412 191.356  0.00  0.00    +0.011 C 
ATOM     18  H   UNL     1     150.383 167.204 190.851  0.00  0.00    +0.033 HD
ATOM     19  H   UNL     1     149.942 165.560 190.680  0.00  0.00    +0.033 HD
BRANCH  17  20
ATOM     20  C   UNL     1     150.494 166.049 192.692  0.00  0.00    +0.108 C 
ATOM     21  H   UNL     1     150.634 164.969 192.801  0.00  0.00    +0.074 HD
BRANCH  20  22
ATOM     22  C   UNL     1     151.855 166.759 192.944  0.00  0.00    -0.009 C 
ATOM     23  H   UNL     1     151.654 167.739 193.400  0.00  0.00    +0.033 HD
BRANCH  22  24
ATOM     24  C   UNL     1     152.690 166.985 191.686  0.00  0.00    -0.059 C 
ATOM     25  H   UNL     1     152.181 167.645 190.981  0.00  0.00    +0.023 HD
ATOM     26  H   UNL     1     153.663 167.411 191.939  0.00  0.00    +0.023 HD
ATOM     27  H   UNL     1     152.884 166.037 191.174  0.00  0.00    +0.023 HD
ENDBRANCH  22  24
BRANCH  22  28
ATOM     28  C   UNL     1     152.685 165.968 193.969  0.00  0.00    -0.059 C 
ATOM     29  H   UNL     1     152.099 165.762 194.870  0.00  0.00    +0.023 HD
ATOM     30  H   UNL     1     153.010 165.013 193.550  0.00  0.00    +0.023 HD
ATOM     31  H   UNL     1     153.582 166.516 194.268  0.00  0.00    +0.023 HD
ENDBRANCH  22  28
ENDBRANCH  20  22
BRANCH  20  32
ATOM     32  O   UNL     1     149.615 166.524 193.749  0.00  0.00    -0.461 OA
BRANCH  32  33
ATOM     33  C   UNL     1     149.014 165.576 194.519  0.00  0.00    +0.307 C 
ATOM     34  O   UNL     1     148.375 164.620 194.102  0.00  0.00    -0.251 OA
BRANCH  33  35
ATOM     35  C   UNL     1     149.236 165.873 195.982  0.00  0.00    +0.042 C 
ATOM     36  H   UNL     1     149.634 164.972 196.460  0.00  0.00    +0.037 HD
ATOM     37  H   UNL     1     150.000 166.653 196.076  0.00  0.00    +0.037 HD
BRANCH  35  38
ATOM     38  C   UNL     1     147.945 166.286 196.660  0.00  0.00    -0.055 C 
ATOM     39  H   UNL     1     147.604 165.503 197.346  0.00  0.00    +0.023 HD
ATOM     40  H   UNL     1     148.073 167.206 197.240  0.00  0.00    +0.023 HD
ATOM     41  H   UNL     1     147.153 166.468 195.920  0.00  0.00    +0.023 HD
ENDBRANCH  35  38
ENDBRANCH  33  35
ENDBRANCH  32  33
ENDBRANCH  20  32
ENDBRANCH  17  20
ENDBRANCH  15  17
BRANCH  15  42
ATOM     42  O   UNL     1     147.675 166.473 190.182  0.00  0.00    -0.379 OA
BRANCH  42  43
ATOM     43  C   UNL     1     148.517 165.872 189.214  0.00  0.00    +0.037 C 
ATOM     44  H   UNL     1     148.308 164.797 189.201  0.00  0.00    +0.052 HD
ATOM     45  H   UNL     1     148.313 166.262 188.211  0.00  0.00    +0.052 HD
ATOM     46  H   UNL     1     149.571 166.016 189.473  0.00  0.00    +0.052 HD
ENDBRANCH  42  43
ENDBRANCH  15  42
ENDBRANCH   9  15
ENDBRANCH   6   9
ENDBRANCH   3   6
ENDBRANCH   1   3
BRANCH   1  47
ATOM     47  C   UNL     1     145.171 171.264 189.157  0.00  0.00    +0.020 C 
ATOM     48  H   UNL     1     145.235 170.272 188.684  0.00  0.00    +0.036 HD
BRANCH  47  49
ATOM     49  C   UNL     1     145.354 172.220 187.975  0.00  0.00    -0.057 C 
ATOM     50  H   UNL     1     145.757 173.189 188.277  0.00  0.00    +0.023 HD
ATOM     51  H   UNL     1     144.405 172.400 187.454  0.00  0.00    +0.023 HD
ATOM     52  H   UNL     1     146.048 171.794 187.241  0.00  0.00    +0.023 HD
ENDBRANCH  47  49
BRANCH  47  53
ATOM     53  C   UNL     1     143.747 171.273 189.793  0.00  0.00    +0.070 C 
ATOM     54  H   UNL     1     143.172 172.067 189.303  0.00  0.00    +0.061 HD
BRANCH  53  55
ATOM     55  C   UNL     1     142.881 169.985 189.669  0.00  0.00    +0.002 C 
ATOM     56  H   UNL     1     142.752 169.755 188.610  0.00  0.00    +0.037 HD
BRANCH  55  58
ATOM     57  C   UNL     1     142.789 168.130 191.363  0.00  0.00    -0.005 C 
ATOM     58  C   UNL     1     143.447 168.783 190.395  0.00  0.00    -0.065 C 
ATOM     59  H   UNL     1     141.797 168.474 191.655  0.00  0.00    +0.078 HD
ATOM     60  H   UNL     1     144.439 168.474 190.076  0.00  0.00    +0.059 HD
BRANCH  57  62
ATOM     61  C   UNL     1     142.313 166.213 192.727  0.00  0.00    +0.206 C 
ATOM     62  N   UNL     1     143.237 167.019 192.063  0.00  0.00    -0.281 N 
ATOM     63  O   UNL     1     141.102 166.388 192.787  0.00  0.00    -0.279 OA
ATOM     64  H   UNL     1     142.779 165.349 193.226  0.00  0.00    +0.126 HD
BRANCH  62  65
ATOM     65  C   UNL     1     144.646 166.636 192.111  0.00  0.00    +0.016 C 
ATOM     66  H   UNL     1     144.826 165.794 191.436  0.00  0.00    +0.047 HD
ATOM     67  H   UNL     1     145.249 167.469 191.726  0.00  0.00    +0.047 HD
BRANCH  65  68
ATOM     68  C   UNL     1     145.112 166.318 193.524  0.00  0.00    -0.049 C 
ATOM     69  H   UNL     1     145.268 167.243 194.088  0.00  0.00    +0.024 HD
ATOM     70  H   UNL     1     144.379 165.706 194.049  0.00  0.00    +0.024 HD
ATOM     71  H   UNL     1     146.063 165.772 193.518  0.00  0.00    +0.024 HD
ENDBRANCH  65  68
ENDBRANCH  62  65
ENDBRANCH  57  62
ENDBRANCH  55  58
BRANCH  55  72
ATOM     72  C   UNL     1     141.470 170.248 190.219  0.00  0.00    -0.057 C 
ATOM     73  H   UNL     1     140.823 169.368 190.137  0.00  0.00    +0.024 HD
ATOM     74  H   UNL     1     141.513 170.534 191.276  0.00  0.00    +0.024 HD
ATOM     75  H   UNL     1     140.984 171.068 189.676  0.00  0.00    +0.024 HD
ENDBRANCH  55  72
ENDBRANCH  53  55
BRANCH  53  76
ATOM     76  O   UNL     1     143.833 171.599 191.198  0.00  0.00    -0.379 OA
BRANCH  76  77
ATOM     77  C   UNL     1     143.466 172.940 191.502  0.00  0.00    +0.037 C 
ATOM     78  H   UNL     1     142.651 173.270 190.850  0.00  0.00    +0.052 HD
ATOM     79  H   UNL     1     143.115 172.968 192.536  0.00  0.00    +0.052 HD
ATOM     80  H   UNL     1     144.321 173.618 191.407  0.00  0.00    +0.052 HD
ENDBRANCH  76  77
ENDBRANCH  53  76
ENDBRANCH  47  53
ENDBRANCH   1  47
BRANCH   1  81
ATOM     81  O   UNL     1     147.058 172.566 190.055  0.00  0.00    -0.461 OA
BRANCH  81  82
ATOM     82  C   UNL     1     148.074 172.793 190.928  0.00  0.00    +0.310 C 
ATOM     83  O   UNL     1     149.189 173.182 190.611  0.00  0.00    -0.251 OA
BRANCH  82  84
ATOM     84  C   UNL     1     147.658 172.519 192.364  0.00  0.00    +0.051 C 
ATOM     85  H   UNL     1     147.084 171.581 192.346  0.00  0.00    +0.041 HD
BRANCH  84  86
ATOM     86  C   UNL     1     146.749 173.596 192.955  0.00  0.00    -0.053 C 
ATOM     87  H   UNL     1     145.728 173.227 193.115  0.00  0.00    +0.024 HD
ATOM     88  H   UNL     1     146.690 174.464 192.287  0.00  0.00    +0.024 HD
ATOM     89  H   UNL     1     147.133 173.941 193.921  0.00  0.00    +0.024 HD
ENDBRANCH  84  86
BRANCH  84  90
ATOM     90  C   UNL     1     148.906 172.328 193.224  0.00  0.00    -0.053 C 
ATOM     91  H   UNL     1     148.901 171.353 193.727  0.00  0.00    +0.024 HD
ATOM     92  H   UNL     1     148.962 173.099 194.002  0.00  0.00    +0.024 HD
ATOM     93  H   UNL     1     149.814 172.405 192.613  0.00  0.00    +0.024 HD
ENDBRANCH  84  90
ENDBRANCH  82  84
ENDBRANCH  81  82
ENDBRANCH   1  81
TORSDOF 32
ENDMDL
MODEL 3
REMARK VINA RESULT:      -4.9      1.790      3.483
REMARK  Name = 2c_conf2
REMARK  32 active torsions:
REMARK  status: ('A' for Active; 'I' for Inactive)
REMARK    1  A    between atoms: N_2  and  C_3
REMARK    2  A    between atoms: N_2  and  C_5
REMARK    3  A    between atoms: C_3  and  C_4
REMARK    4  A    between atoms: C_6  and  C_7
REMARK    5  A    between atoms: C_7  and  C_8
REMARK    6  A    between atoms: C_7  and  C_9
REMARK    7  A    between atoms: C_9  and  O_10
REMARK    8  A    between atoms: C_9  and  C_12
REMARK    9  A    between atoms: O_10  and  C_11
REMARK   10  A    between atoms: C_12  and  C_13
REMARK   11  A    between atoms: C_12  and  C_14
REMARK   12  A    between atoms: C_14  and  O_15
REMARK   13  A    between atoms: C_14  and  C_21
REMARK   14  A    between atoms: O_15  and  C_16
REMARK   15  A    between atoms: C_16  and  C_17
REMARK   16  A    between atoms: C_17  and  C_18
REMARK   17  A    between atoms: C_17  and  C_19
REMARK   18  A    between atoms: C_21  and  C_22
REMARK   19  A    between atoms: C_22  and  C_23
REMARK   20  A    between atoms: C_23  and  C_24
REMARK   21  A    between atoms: C_23  and  C_25
REMARK   22  A    between atoms: C_25  and  O_26
REMARK   23  A    between atoms: C_25  and  C_28
REMARK   24  A    between atoms: O_26  and  C_27
REMARK   25  A    between atoms: C_28  and  C_29
REMARK   26  A    between atoms: C_29  and  O_30
REMARK   27  A    between atoms: C_29  and  C_35
REMARK   28  A    between atoms: O_30  and  C_31
REMARK   29  A    between atoms: C_31  and  C_32
REMARK   30  A    between atoms: C_32  and  C_33
REMARK   31  A    between atoms: C_35  and  C_36
REMARK   32  A    between atoms: C_35  and  C_37
REMARK                            x       y       z     vdW  Elec       q    Type
REMARK                         _______ _______ _______ _____ _____    ______ ____
ROOT
ATOM      1  C   UNL     1     146.774 170.678 190.504  0.00  0.00    +0.108 C 
ATOM      2  H   UNL     1     146.302 170.685 191.499  0.00  0.00    +0.074 HD
ENDROOT
BRANCH   1   3
ATOM      3  C   UNL     1     148.083 169.879 190.624  0.00  0.00    -0.015 C 
ATOM      4  H   UNL     1     148.829 170.474 191.154  0.00  0.00    +0.030 HD
ATOM      5  H   UNL     1     148.498 169.624 189.645  0.00  0.00    +0.030 HD
BRANCH   3   6
ATOM      6  C   UNL     1     147.857 168.564 191.393  0.00  0.00    -0.045 C 
ATOM      7  H   UNL     1     148.197 168.660 192.433  0.00  0.00    +0.027 HD
ATOM      8  H   UNL     1     146.773 168.392 191.437  0.00  0.00    +0.027 HD
BRANCH   6   9
ATOM      9  C   UNL     1     148.547 167.347 190.722  0.00  0.00    -0.017 C 
ATOM     10  H   UNL     1     148.981 167.686 189.776  0.00  0.00    +0.032 HD
BRANCH   9  11
ATOM     11  C   UNL     1     147.474 166.298 190.395  0.00  0.00    -0.060 C 
ATOM     12  H   UNL     1     147.171 166.383 189.347  0.00  0.00    +0.023 HD
ATOM     13  H   UNL     1     146.577 166.429 191.011  0.00  0.00    +0.023 HD
ATOM     14  H   UNL     1     147.834 165.278 190.541  0.00  0.00    +0.023 HD
ENDBRANCH   9  11
BRANCH   9  15
ATOM     15  C   UNL     1     149.669 166.774 191.638  0.00  0.00    +0.064 C 
ATOM     16  H   UNL     1     149.750 165.702 191.453  0.00  0.00    +0.060 HD
BRANCH  15  17
ATOM     17  C   UNL     1     149.442 167.026 193.146  0.00  0.00    +0.011 C 
ATOM     18  H   UNL     1     148.806 167.912 193.254  0.00  0.00    +0.033 HD
ATOM     19  H   UNL     1     150.377 167.341 193.620  0.00  0.00    +0.033 HD
BRANCH  17  20
ATOM     20  C   UNL     1     148.871 165.858 193.972  0.00  0.00    +0.108 C 
ATOM     21  H   UNL     1     148.598 165.005 193.343  0.00  0.00    +0.074 HD
BRANCH  20  22
ATOM     22  C   UNL     1     149.799 165.360 195.117  0.00  0.00    -0.009 C 
ATOM     23  H   UNL     1     149.675 164.272 195.214  0.00  0.00    +0.033 HD
BRANCH  22  24
ATOM     24  C   UNL     1     149.513 165.992 196.478  0.00  0.00    -0.059 C 
ATOM     25  H   UNL     1     149.223 165.240 197.215  0.00  0.00    +0.023 HD
ATOM     26  H   UNL     1     150.386 166.536 196.843  0.00  0.00    +0.023 HD
ATOM     27  H   UNL     1     148.697 166.718 196.405  0.00  0.00    +0.023 HD
ENDBRANCH  22  24
BRANCH  22  28
ATOM     28  C   UNL     1     151.272 165.596 194.748  0.00  0.00    -0.059 C 
ATOM     29  H   UNL     1     151.864 164.689 194.901  0.00  0.00    +0.023 HD
ATOM     30  H   UNL     1     151.367 165.889 193.699  0.00  0.00    +0.023 HD
ATOM     31  H   UNL     1     151.715 166.394 195.350  0.00  0.00    +0.023 HD
ENDBRANCH  22  28
ENDBRANCH  20  22
BRANCH  20  32
ATOM     32  O   UNL     1     147.678 166.359 194.639  0.00  0.00    -0.461 OA
BRANCH  32  33
ATOM     33  C   UNL     1     146.522 165.676 194.418  0.00  0.00    +0.307 C 
ATOM     34  O   UNL     1     146.252 164.569 194.862  0.00  0.00    -0.251 OA
BRANCH  33  35
ATOM     35  C   UNL     1     145.605 166.476 193.525  0.00  0.00    +0.042 C 
ATOM     36  H   UNL     1     145.611 167.515 193.868  0.00  0.00    +0.037 HD
ATOM     37  H   UNL     1     146.005 166.470 192.505  0.00  0.00    +0.037 HD
BRANCH  35  38
ATOM     38  C   UNL     1     144.191 165.932 193.562  0.00  0.00    -0.055 C 
ATOM     39  H   UNL     1     143.508 166.667 194.001  0.00  0.00    +0.023 HD
ATOM     40  H   UNL     1     143.825 165.697 192.556  0.00  0.00    +0.023 HD
ATOM     41  H   UNL     1     144.138 165.010 194.158  0.00  0.00    +0.023 HD
ENDBRANCH  35  38
ENDBRANCH  33  35
ENDBRANCH  32  33
ENDBRANCH  20  32
ENDBRANCH  17  20
ENDBRANCH  15  17
BRANCH  15  42
ATOM     42  O   UNL     1     150.904 167.389 191.220  0.00  0.00    -0.379 OA
BRANCH  42  43
ATOM     43  C   UNL     1     151.463 168.293 192.157  0.00  0.00    +0.037 C 
ATOM     44  H   UNL     1     150.892 168.214 193.089  0.00  0.00    +0.052 HD
ATOM     45  H   UNL     1     152.503 168.040 192.383  0.00  0.00    +0.052 HD
ATOM     46  H   UNL     1     151.389 169.324 191.794  0.00  0.00    +0.052 HD
ENDBRANCH  42  43
ENDBRANCH  15  42
ENDBRANCH   9  15
ENDBRANCH   6   9
ENDBRANCH   3   6
ENDBRANCH   1   3
BRANCH   1  47
ATOM     47  C   UNL     1     145.716 170.146 189.498  0.00  0.00    +0.020 C 
ATOM     48  H   UNL     1     145.866 169.056 189.501  0.00  0.00    +0.036 HD
BRANCH  47  49
ATOM     49  C   UNL     1     146.038 170.533 188.051  0.00  0.00    -0.057 C 
ATOM     50  H   UNL     1     145.210 170.334 187.369  0.00  0.00    +0.023 HD
ATOM     51  H   UNL     1     146.917 169.993 187.679  0.00  0.00    +0.023 HD
ATOM     52  H   UNL     1     146.265 171.603 187.983  0.00  0.00    +0.023 HD
ENDBRANCH  47  49
BRANCH  47  53
ATOM     53  C   UNL     1     144.220 170.310 189.903  0.00  0.00    +0.070 C 
ATOM     54  H   UNL     1     143.733 170.913 189.128  0.00  0.00    +0.061 HD
BRANCH  53  55
ATOM     55  C   UNL     1     143.354 169.024 190.047  0.00  0.00    +0.002 C 
ATOM     56  H   UNL     1     142.437 169.157 189.468  0.00  0.00    +0.037 HD
BRANCH  55  58
ATOM     57  C   UNL     1     143.843 167.154 188.439  0.00  0.00    -0.005 C 
ATOM     58  C   UNL     1     144.056 167.752 189.620  0.00  0.00    -0.065 C 
ATOM     59  H   UNL     1     143.128 167.594 187.744  0.00  0.00    +0.078 HD
ATOM     60  H   UNL     1     144.758 167.346 190.343  0.00  0.00    +0.059 HD
BRANCH  57  62
ATOM     61  C   UNL     1     145.616 166.100 187.212  0.00  0.00    +0.206 C 
ATOM     62  N   UNL     1     144.455 165.998 187.976  0.00  0.00    -0.281 N 
ATOM     63  O   UNL     1     146.175 167.135 186.867  0.00  0.00    -0.279 OA
ATOM     64  H   UNL     1     146.025 165.119 186.922  0.00  0.00    +0.126 HD
BRANCH  62  65
ATOM     65  C   UNL     1     143.945 164.663 188.283  0.00  0.00    +0.016 C 
ATOM     66  H   UNL     1     142.856 164.694 188.379  0.00  0.00    +0.047 HD
ATOM     67  H   UNL     1     144.157 164.003 187.432  0.00  0.00    +0.047 HD
BRANCH  65  68
ATOM     68  C   UNL     1     144.590 164.069 189.526  0.00  0.00    -0.049 C 
ATOM     69  H   UNL     1     144.923 163.045 189.327  0.00  0.00    +0.024 HD
ATOM     70  H   UNL     1     145.449 164.661 189.842  0.00  0.00    +0.024 HD
ATOM     71  H   UNL     1     143.884 164.029 190.363  0.00  0.00    +0.024 HD
ENDBRANCH  65  68
ENDBRANCH  62  65
ENDBRANCH  57  62
ENDBRANCH  55  58
BRANCH  55  72
ATOM     72  C   UNL     1     142.910 168.853 191.508  0.00  0.00    -0.057 C 
ATOM     73  H   UNL     1     142.006 168.240 191.596  0.00  0.00    +0.024 HD
ATOM     74  H   UNL     1     143.698 168.372 192.099  0.00  0.00    +0.024 HD
ATOM     75  H   UNL     1     142.699 169.824 191.971  0.00  0.00    +0.024 HD
ENDBRANCH  55  72
ENDBRANCH  53  55
BRANCH  53  76
ATOM     76  O   UNL     1     144.119 171.036 191.149  0.00  0.00    -0.379 OA
BRANCH  76  77
ATOM     77  C   UNL     1     143.667 172.376 191.000  0.00  0.00    +0.037 C 
ATOM     78  H   UNL     1     144.499 173.033 190.728  0.00  0.00    +0.052 HD
ATOM     79  H   UNL     1     142.932 172.397 190.191  0.00  0.00    +0.052 HD
ATOM     80  H   UNL     1     143.185 172.739 191.915  0.00  0.00    +0.052 HD
ENDBRANCH  76  77
ENDBRANCH  53  76
ENDBRANCH  47  53
ENDBRANCH   1  47
BRANCH   1  81
ATOM     81  O   UNL     1     147.164 172.025 190.157  0.00  0.00    -0.461 OA
BRANCH  81  82
ATOM     82  C   UNL     1     148.045 172.657 190.978  0.00  0.00    +0.310 C 
ATOM     83  O   UNL     1     149.027 173.277 190.597  0.00  0.00    -0.251 OA
BRANCH  82  84
ATOM     84  C   UNL     1     147.657 172.514 192.440  0.00  0.00    +0.051 C 
ATOM     85  H   UNL     1     147.166 171.536 192.536  0.00  0.00    +0.041 HD
BRANCH  84  86
ATOM     86  C   UNL     1     146.661 173.572 192.916  0.00  0.00    -0.053 C 
ATOM     87  H   UNL     1     146.018 173.195 193.722  0.00  0.00    +0.024 HD
ATOM     88  H   UNL     1     146.013 173.893 192.093  0.00  0.00    +0.024 HD
ATOM     89  H   UNL     1     147.185 174.455 193.296  0.00  0.00    +0.024 HD
ENDBRANCH  84  86
BRANCH  84  90
ATOM     90  C   UNL     1     148.919 172.528 193.301  0.00  0.00    -0.053 C 
ATOM     91  H   UNL     1     149.712 171.910 192.862  0.00  0.00    +0.024 HD
ATOM     92  H   UNL     1     148.710 172.132 194.302  0.00  0.00    +0.024 HD
ATOM     93  H   UNL     1     149.296 173.552 193.422  0.00  0.00    +0.024 HD
ENDBRANCH  84  90
ENDBRANCH  82  84
ENDBRANCH  81  82
ENDBRANCH   1  81
TORSDOF 32
ENDMDL
MODEL 4
REMARK VINA RESULT:      -4.9      2.399      5.072
REMARK  Name = 2c_conf2
REMARK  32 active torsions:
REMARK  status: ('A' for Active; 'I' for Inactive)
REMARK    1  A    between atoms: N_2  and  C_3
REMARK    2  A    between atoms: N_2  and  C_5
REMARK    3  A    between atoms: C_3  and  C_4
REMARK    4  A    between atoms: C_6  and  C_7
REMARK    5  A    between atoms: C_7  and  C_8
REMARK    6  A    between atoms: C_7  and  C_9
REMARK    7  A    between atoms: C_9  and  O_10
REMARK    8  A    between atoms: C_9  and  C_12
REMARK    9  A    between atoms: O_10  and  C_11
REMARK   10  A    between atoms: C_12  and  C_13
REMARK   11  A    between atoms: C_12  and  C_14
REMARK   12  A    between atoms: C_14  and  O_15
REMARK   13  A    between atoms: C_14  and  C_21
REMARK   14  A    between atoms: O_15  and  C_16
REMARK   15  A    between atoms: C_16  and  C_17
REMARK   16  A    between atoms: C_17  and  C_18
REMARK   17  A    between atoms: C_17  and  C_19
REMARK   18  A    between atoms: C_21  and  C_22
REMARK   19  A    between atoms: C_22  and  C_23
REMARK   20  A    between atoms: C_23  and  C_24
REMARK   21  A    between atoms: C_23  and  C_25
REMARK   22  A    between atoms: C_25  and  O_26
REMARK   23  A    between atoms: C_25  and  C_28
REMARK   24  A    between atoms: O_26  and  C_27
REMARK   25  A    between atoms: C_28  and  C_29
REMARK   26  A    between atoms: C_29  and  O_30
REMARK   27  A    between atoms: C_29  and  C_35
REMARK   28  A    between atoms: O_30  and  C_31
REMARK   29  A    between atoms: C_31  and  C_32
REMARK   30  A    between atoms: C_32  and  C_33
REMARK   31  A    between atoms: C_35  and  C_36
REMARK   32  A    between atoms: C_35  and  C_37
REMARK                            x       y       z     vdW  Elec       q    Type
REMARK                         _______ _______ _______ _____ _____    ______ ____
ROOT
ATOM      1  C   UNL     1     147.625 169.910 190.669  0.00  0.00    +0.108 C 
ATOM      2  H   UNL     1     146.914 169.864 191.507  0.00  0.00    +0.074 HD
ENDROOT
BRANCH   1   3
ATOM      3  C   UNL     1     149.040 169.947 191.271  0.00  0.00    -0.015 C 
ATOM      4  H   UNL     1     149.021 170.487 192.219  0.00  0.00    +0.030 HD
ATOM      5  H   UNL     1     149.751 170.456 190.614  0.00  0.00    +0.030 HD
BRANCH   3   6
ATOM      6  C   UNL     1     149.571 168.523 191.520  0.00  0.00    -0.045 C 
ATOM      7  H   UNL     1     148.855 167.940 192.116  0.00  0.00    +0.027 HD
ATOM      8  H   UNL     1     149.639 168.024 190.544  0.00  0.00    +0.027 HD
BRANCH   6   9
ATOM      9  C   UNL     1     150.962 168.510 192.206  0.00  0.00    -0.017 C 
ATOM     10  H   UNL     1     150.804 168.537 193.288  0.00  0.00    +0.032 HD
BRANCH   9  11
ATOM     11  C   UNL     1     151.712 169.791 191.810  0.00  0.00    -0.060 C 
ATOM     12  H   UNL     1     151.107 170.380 191.113  0.00  0.00    +0.023 HD
ATOM     13  H   UNL     1     152.664 169.569 191.316  0.00  0.00    +0.023 HD
ATOM     14  H   UNL     1     151.921 170.431 192.669  0.00  0.00    +0.023 HD
ENDBRANCH   9  11
BRANCH   9  15
ATOM     15  C   UNL     1     151.754 167.224 191.823  0.00  0.00    +0.064 C 
ATOM     16  H   UNL     1     152.615 167.517 191.221  0.00  0.00    +0.060 HD
BRANCH  15  17
ATOM     17  C   UNL     1     150.918 166.172 191.059  0.00  0.00    +0.011 C 
ATOM     18  H   UNL     1     150.004 166.657 190.697  0.00  0.00    +0.033 HD
ATOM     19  H   UNL     1     150.533 165.420 191.755  0.00  0.00    +0.033 HD
BRANCH  17  20
ATOM     20  C   UNL     1     151.616 165.427 189.906  0.00  0.00    +0.108 C 
ATOM     21  H   UNL     1     151.341 164.368 189.874  0.00  0.00    +0.074 HD
BRANCH  20  22
ATOM     22  C   UNL     1     151.384 166.048 188.499  0.00  0.00    -0.009 C 
ATOM     23  H   UNL     1     151.518 165.258 187.746  0.00  0.00    +0.033 HD
BRANCH  22  24
ATOM     24  C   UNL     1     152.330 167.196 188.153  0.00  0.00    -0.059 C 
ATOM     25  H   UNL     1     152.503 167.845 189.014  0.00  0.00    +0.023 HD
ATOM     26  H   UNL     1     153.287 166.814 187.794  0.00  0.00    +0.023 HD
ATOM     27  H   UNL     1     151.915 167.812 187.349  0.00  0.00    +0.023 HD
ENDBRANCH  22  24
BRANCH  22  28
ATOM     28  C   UNL     1     149.930 166.530 188.364  0.00  0.00    -0.059 C 
ATOM     29  H   UNL     1     149.483 166.168 187.433  0.00  0.00    +0.023 HD
ATOM     30  H   UNL     1     149.322 166.166 189.196  0.00  0.00    +0.023 HD
ATOM     31  H   UNL     1     149.867 167.622 188.367  0.00  0.00    +0.023 HD
ENDBRANCH  22  28
ENDBRANCH  20  22
BRANCH  20  32
ATOM     32  O   UNL     1     153.048 165.540 190.140  0.00  0.00    -0.461 OA
BRANCH  32  33
ATOM     33  C   UNL     1     153.783 164.403 189.997  0.00  0.00    +0.307 C 
ATOM     34  O   UNL     1     153.332 163.281 189.817  0.00  0.00    -0.251 OA
BRANCH  33  35
ATOM     35  C   UNL     1     155.256 164.716 190.105  0.00  0.00    +0.042 C 
ATOM     36  H   UNL     1     155.613 164.362 191.077  0.00  0.00    +0.037 HD
ATOM     37  H   UNL     1     155.798 164.153 189.337  0.00  0.00    +0.037 HD
BRANCH  35  38
ATOM     38  C   UNL     1     155.511 166.204 189.975  0.00  0.00    -0.055 C 
ATOM     39  H   UNL     1     154.568 166.747 189.855  0.00  0.00    +0.023 HD
ATOM     40  H   UNL     1     156.015 166.604 190.862  0.00  0.00    +0.023 HD
ATOM     41  H   UNL     1     156.149 166.420 189.106  0.00  0.00    +0.023 HD
ENDBRANCH  35  38
ENDBRANCH  33  35
ENDBRANCH  32  33
ENDBRANCH  20  32
ENDBRANCH  17  20
ENDBRANCH  15  17
BRANCH  15  42
ATOM     42  O   UNL     1     152.247 166.656 193.053  0.00  0.00    -0.379 OA
BRANCH  42  43
ATOM     43  C   UNL     1     153.615 166.912 193.317  0.00  0.00    +0.037 C 
ATOM     44  H   UNL     1     153.819 166.638 194.358  0.00  0.00    +0.052 HD
ATOM     45  H   UNL     1     154.264 166.301 192.680  0.00  0.00    +0.052 HD
ATOM     46  H   UNL     1     153.844 167.975 193.189  0.00  0.00    +0.052 HD
ENDBRANCH  42  43
ENDBRANCH  15  42
ENDBRANCH   9  15
ENDBRANCH   6   9
ENDBRANCH   3   6
ENDBRANCH   1   3
BRANCH   1  47
ATOM     47  C   UNL     1     147.297 168.723 189.721  0.00  0.00    +0.020 C 
ATOM     48  H   UNL     1     148.197 168.092 189.757  0.00  0.00    +0.036 HD
BRANCH  47  49
ATOM     49  C   UNL     1     147.233 169.148 188.251  0.00  0.00    -0.057 C 
ATOM     50  H   UNL     1     146.373 168.726 187.728  0.00  0.00    +0.023 HD
ATOM     51  H   UNL     1     148.137 168.846 187.708  0.00  0.00    +0.023 HD
ATOM     52  H   UNL     1     147.159 170.239 188.171  0.00  0.00    +0.023 HD
ENDBRANCH  47  49
BRANCH  47  53
ATOM     53  C   UNL     1     146.158 167.760 190.175  0.00  0.00    +0.070 C 
ATOM     54  H   UNL     1     145.602 167.461 189.279  0.00  0.00    +0.061 HD
BRANCH  53  55
ATOM     55  C   UNL     1     146.560 166.434 190.886  0.00  0.00    +0.002 C 
ATOM     56  H   UNL     1     147.416 166.005 190.361  0.00  0.00    +0.037 HD
BRANCH  55  58
ATOM     57  C   UNL     1     147.553 165.673 193.066  0.00  0.00    -0.005 C 
ATOM     58  C   UNL     1     146.879 166.589 192.357  0.00  0.00    -0.065 C 
ATOM     59  H   UNL     1     147.890 164.762 192.570  0.00  0.00    +0.078 HD
ATOM     60  H   UNL     1     146.523 167.510 192.814  0.00  0.00    +0.059 HD
BRANCH  57  62
ATOM     61  C   UNL     1     146.935 165.429 195.372  0.00  0.00    +0.206 C 
ATOM     62  N   UNL     1     147.891 165.750 194.410  0.00  0.00    -0.281 N 
ATOM     63  O   UNL     1     145.775 165.093 195.166  0.00  0.00    -0.279 OA
ATOM     64  H   UNL     1     147.322 165.503 196.401  0.00  0.00    +0.126 HD
BRANCH  62  65
ATOM     65  C   UNL     1     149.227 166.129 194.863  0.00  0.00    +0.016 C 
ATOM     66  H   UNL     1     149.982 165.673 194.217  0.00  0.00    +0.047 HD
ATOM     67  H   UNL     1     149.343 167.215 194.746  0.00  0.00    +0.047 HD
BRANCH  65  68
ATOM     68  C   UNL     1     149.465 165.774 196.323  0.00  0.00    -0.049 C 
ATOM     69  H   UNL     1     150.125 164.904 196.398  0.00  0.00    +0.024 HD
ATOM     70  H   UNL     1     149.921 166.607 196.858  0.00  0.00    +0.024 HD
ATOM     71  H   UNL     1     148.528 165.521 196.831  0.00  0.00    +0.024 HD
ENDBRANCH  65  68
ENDBRANCH  62  65
ENDBRANCH  57  62
ENDBRANCH  55  58
BRANCH  55  72
ATOM     72  C   UNL     1     145.426 165.404 190.753  0.00  0.00    -0.057 C 
ATOM     73  H   UNL     1     144.603 165.773 190.131  0.00  0.00    +0.024 HD
ATOM     74  H   UNL     1     145.796 164.477 190.302  0.00  0.00    +0.024 HD
ATOM     75  H   UNL     1     145.010 165.150 191.735  0.00  0.00    +0.024 HD
ENDBRANCH  55  72
ENDBRANCH  53  55
BRANCH  53  76
ATOM     76  O   UNL     1     145.239 168.453 191.049  0.00  0.00    -0.379 OA
BRANCH  76  77
ATOM     77  C   UNL     1     144.048 168.889 190.403  0.00  0.00    +0.037 C 
ATOM     78  H   UNL     1     143.659 168.102 189.748  0.00  0.00    +0.052 HD
ATOM     79  H   UNL     1     143.303 169.097 191.174  0.00  0.00    +0.052 HD
ATOM     80  H   UNL     1     144.219 169.806 189.829  0.00  0.00    +0.052 HD
ENDBRANCH  76  77
ENDBRANCH  53  76
ENDBRANCH  47  53
ENDBRANCH   1  47
BRANCH   1  81
ATOM     81  O   UNL     1     147.458 171.166 189.976  0.00  0.00    -0.461 OA
BRANCH  81  82
ATOM     82  C   UNL     1     147.614 172.308 190.696  0.00  0.00    +0.310 C 
ATOM     83  O   UNL     1     148.453 173.167 190.465  0.00  0.00    -0.251 OA
BRANCH  82  84
ATOM     84  C   UNL     1     146.605 172.405 191.829  0.00  0.00    +0.051 C 
ATOM     85  H   UNL     1     146.624 171.434 192.344  0.00  0.00    +0.041 HD
BRANCH  84  86
ATOM     86  C   UNL     1     145.171 172.638 191.353  0.00  0.00    -0.053 C 
ATOM     87  H   UNL     1     145.128 173.350 190.519  0.00  0.00    +0.024 HD
ATOM     88  H   UNL     1     144.552 173.036 192.166  0.00  0.00    +0.024 HD
ATOM     89  H   UNL     1     144.718 171.701 191.013  0.00  0.00    +0.024 HD
ENDBRANCH  84  86
BRANCH  84  90
ATOM     90  C   UNL     1     147.040 173.498 192.802  0.00  0.00    -0.053 C 
ATOM     91  H   UNL     1     146.239 174.229 192.970  0.00  0.00    +0.024 HD
ATOM     92  H   UNL     1     147.906 174.045 192.410  0.00  0.00    +0.024 HD
ATOM     93  H   UNL     1     147.331 173.065 193.768  0.00  0.00    +0.024 HD
ENDBRANCH  84  90
ENDBRANCH  82  84
ENDBRANCH  81  82
ENDBRANCH   1  81
TORSDOF 32
ENDMDL
MODEL 5
REMARK VINA RESULT:      -4.8      2.382      4.752
REMARK  Name = 2c_conf2
REMARK  32 active torsions:
REMARK  status: ('A' for Active; 'I' for Inactive)
REMARK    1  A    between atoms: N_2  and  C_3
REMARK    2  A    between atoms: N_2  and  C_5
REMARK    3  A    between atoms: C_3  and  C_4
REMARK    4  A    between atoms: C_6  and  C_7
REMARK    5  A    between atoms: C_7  and  C_8
REMARK    6  A    between atoms: C_7  and  C_9
REMARK    7  A    between atoms: C_9  and  O_10
REMARK    8  A    between atoms: C_9  and  C_12
REMARK    9  A    between atoms: O_10  and  C_11
REMARK   10  A    between atoms: C_12  and  C_13
REMARK   11  A    between atoms: C_12  and  C_14
REMARK   12  A    between atoms: C_14  and  O_15
REMARK   13  A    between atoms: C_14  and  C_21
REMARK   14  A    between atoms: O_15  and  C_16
REMARK   15  A    between atoms: C_16  and  C_17
REMARK   16  A    between atoms: C_17  and  C_18
REMARK   17  A    between atoms: C_17  and  C_19
REMARK   18  A    between atoms: C_21  and  C_22
REMARK   19  A    between atoms: C_22  and  C_23
REMARK   20  A    between atoms: C_23  and  C_24
REMARK   21  A    between atoms: C_23  and  C_25
REMARK   22  A    between atoms: C_25  and  O_26
REMARK   23  A    between atoms: C_25  and  C_28
REMARK   24  A    between atoms: O_26  and  C_27
REMARK   25  A    between atoms: C_28  and  C_29
REMARK   26  A    between atoms: C_29  and  O_30
REMARK   27  A    between atoms: C_29  and  C_35
REMARK   28  A    between atoms: O_30  and  C_31
REMARK   29  A    between atoms: C_31  and  C_32
REMARK   30  A    between atoms: C_32  and  C_33
REMARK   31  A    between atoms: C_35  and  C_36
REMARK   32  A    between atoms: C_35  and  C_37
REMARK                            x       y       z     vdW  Elec       q    Type
REMARK                         _______ _______ _______ _____ _____    ______ ____
ROOT
ATOM      1  C   UNL     1     146.970 169.498 190.483  0.00  0.00    +0.108 C 
ATOM      2  H   UNL     1     146.402 169.372 191.417  0.00  0.00    +0.074 HD
ENDROOT
BRANCH   1   3
ATOM      3  C   UNL     1     148.389 168.962 190.735  0.00  0.00    -0.015 C 
ATOM      4  H   UNL     1     149.119 169.610 190.246  0.00  0.00    +0.030 HD
ATOM      5  H   UNL     1     148.523 167.953 190.336  0.00  0.00    +0.030 HD
BRANCH   3   6
ATOM      6  C   UNL     1     148.700 168.913 192.243  0.00  0.00    -0.045 C 
ATOM      7  H   UNL     1     148.417 169.857 192.728  0.00  0.00    +0.027 HD
ATOM      8  H   UNL     1     148.059 168.136 192.683  0.00  0.00    +0.027 HD
BRANCH   6   9
ATOM      9  C   UNL     1     150.187 168.590 192.542  0.00  0.00    -0.017 C 
ATOM     10  H   UNL     1     150.379 168.828 193.592  0.00  0.00    +0.032 HD
BRANCH   9  11
ATOM     11  C   UNL     1     151.067 169.511 191.684  0.00  0.00    -0.060 C 
ATOM     12  H   UNL     1     150.917 170.555 191.977  0.00  0.00    +0.023 HD
ATOM     13  H   UNL     1     150.825 169.429 190.619  0.00  0.00    +0.023 HD
ATOM     14  H   UNL     1     152.131 169.296 191.803  0.00  0.00    +0.023 HD
ENDBRANCH   9  11
BRANCH   9  15
ATOM     15  C   UNL     1     150.486 167.083 192.282  0.00  0.00    +0.064 C 
ATOM     16  H   UNL     1     149.548 166.584 192.033  0.00  0.00    +0.060 HD
BRANCH  15  17
ATOM     17  C   UNL     1     151.161 166.360 193.470  0.00  0.00    +0.011 C 
ATOM     18  H   UNL     1     151.707 167.104 194.060  0.00  0.00    +0.033 HD
ATOM     19  H   UNL     1     151.961 165.706 193.107  0.00  0.00    +0.033 HD
BRANCH  17  20
ATOM     20  C   UNL     1     150.251 165.519 194.385  0.00  0.00    +0.108 C 
ATOM     21  H   UNL     1     150.058 164.524 193.971  0.00  0.00    +0.074 HD
BRANCH  20  22
ATOM     22  C   UNL     1     150.765 165.365 195.845  0.00  0.00    -0.009 C 
ATOM     23  H   UNL     1     151.737 165.871 195.925  0.00  0.00    +0.033 HD
BRANCH  22  24
ATOM     24  C   UNL     1     150.947 163.918 196.298  0.00  0.00    -0.059 C 
ATOM     25  H   UNL     1     150.489 163.218 195.596  0.00  0.00    +0.023 HD
ATOM     26  H   UNL     1     152.006 163.676 196.407  0.00  0.00    +0.023 HD
ATOM     27  H   UNL     1     150.485 163.757 197.278  0.00  0.00    +0.023 HD
ENDBRANCH  22  24
BRANCH  22  28
ATOM     28  C   UNL     1     149.820 166.087 196.820  0.00  0.00    -0.059 C 
ATOM     29  H   UNL     1     148.816 166.178 196.396  0.00  0.00    +0.023 HD
ATOM     30  H   UNL     1     149.742 165.538 197.762  0.00  0.00    +0.023 HD
ATOM     31  H   UNL     1     150.179 167.092 197.057  0.00  0.00    +0.023 HD
ENDBRANCH  22  28
ENDBRANCH  20  22
BRANCH  20  32
ATOM     32  O   UNL     1     148.991 166.239 194.500  0.00  0.00    -0.461 OA
BRANCH  32  33
ATOM     33  C   UNL     1     147.862 165.550 194.180  0.00  0.00    +0.307 C 
ATOM     34  O   UNL     1     147.815 164.376 193.841  0.00  0.00    -0.251 OA
BRANCH  33  35
ATOM     35  C   UNL     1     146.654 166.449 194.287  0.00  0.00    +0.042 C 
ATOM     36  H   UNL     1     146.721 167.006 195.226  0.00  0.00    +0.037 HD
ATOM     37  H   UNL     1     146.681 167.183 193.473  0.00  0.00    +0.037 HD
BRANCH  35  38
ATOM     38  C   UNL     1     145.368 165.646 194.258  0.00  0.00    -0.055 C 
ATOM     39  H   UNL     1     144.795 165.806 195.177  0.00  0.00    +0.023 HD
ATOM     40  H   UNL     1     144.733 165.937 193.414  0.00  0.00    +0.023 HD
ATOM     41  H   UNL     1     145.577 164.572 194.161  0.00  0.00    +0.023 HD
ENDBRANCH  35  38
ENDBRANCH  33  35
ENDBRANCH  32  33
ENDBRANCH  20  32
ENDBRANCH  17  20
ENDBRANCH  15  17
BRANCH  15  42
ATOM     42  O   UNL     1     151.341 167.021 191.123  0.00  0.00    -0.379 OA
BRANCH  42  43
ATOM     43  C   UNL     1     151.610 165.712 190.654  0.00  0.00    +0.037 C 
ATOM     44  H   UNL     1     152.581 165.724 190.148  0.00  0.00    +0.052 HD
ATOM     45  H   UNL     1     151.676 164.999 191.482  0.00  0.00    +0.052 HD
ATOM     46  H   UNL     1     150.849 165.393 189.934  0.00  0.00    +0.052 HD
ENDBRANCH  42  43
ENDBRANCH  15  42
ENDBRANCH   9  15
ENDBRANCH   6   9
ENDBRANCH   3   6
ENDBRANCH   1   3
BRANCH   1  47
ATOM     47  C   UNL     1     146.152 168.815 189.352  0.00  0.00    +0.020 C 
ATOM     48  H   UNL     1     146.917 168.383 188.690  0.00  0.00    +0.036 HD
BRANCH  47  49
ATOM     49  C   UNL     1     145.445 169.828 188.446  0.00  0.00    -0.057 C 
ATOM     50  H   UNL     1     144.634 170.352 188.954  0.00  0.00    +0.023 HD
ATOM     51  H   UNL     1     145.026 169.344 187.555  0.00  0.00    +0.023 HD
ATOM     52  H   UNL     1     146.154 170.587 188.095  0.00  0.00    +0.023 HD
ENDBRANCH  47  49
BRANCH  47  53
ATOM     53  C   UNL     1     145.285 167.585 189.761  0.00  0.00    +0.070 C 
ATOM     54  H   UNL     1     144.337 167.654 189.215  0.00  0.00    +0.061 HD
BRANCH  53  55
ATOM     55  C   UNL     1     145.845 166.163 189.461  0.00  0.00    +0.002 C 
ATOM     56  H   UNL     1     145.016 165.523 189.150  0.00  0.00    +0.037 HD
BRANCH  55  58
ATOM     57  C   UNL     1     148.211 165.798 188.695  0.00  0.00    -0.005 C 
ATOM     58  C   UNL     1     146.942 166.133 188.419  0.00  0.00    -0.065 C 
ATOM     59  H   UNL     1     148.479 165.536 189.719  0.00  0.00    +0.078 HD
ATOM     60  H   UNL     1     146.633 166.403 187.413  0.00  0.00    +0.059 HD
BRANCH  57  62
ATOM     61  C   UNL     1     149.602 164.513 187.221  0.00  0.00    +0.206 C 
ATOM     62  N   UNL     1     149.265 165.739 187.794  0.00  0.00    -0.281 N 
ATOM     63  O   UNL     1     149.071 163.432 187.443  0.00  0.00    -0.279 OA
ATOM     64  H   UNL     1     150.436 164.591 186.505  0.00  0.00    +0.126 HD
BRANCH  62  65
ATOM     65  C   UNL     1     150.024 166.921 187.394  0.00  0.00    +0.016 C 
ATOM     66  H   UNL     1     150.218 167.551 188.267  0.00  0.00    +0.047 HD
ATOM     67  H   UNL     1     151.007 166.599 187.027  0.00  0.00    +0.047 HD
BRANCH  65  68
ATOM     68  C   UNL     1     149.333 167.707 186.291  0.00  0.00    -0.049 C 
ATOM     69  H   UNL     1     148.949 168.654 186.684  0.00  0.00    +0.024 HD
ATOM     70  H   UNL     1     150.020 167.920 185.472  0.00  0.00    +0.024 HD
ATOM     71  H   UNL     1     148.482 167.153 185.878  0.00  0.00    +0.024 HD
ENDBRANCH  65  68
ENDBRANCH  62  65
ENDBRANCH  57  62
ENDBRANCH  55  58
BRANCH  55  72
ATOM     72  C   UNL     1     146.399 165.536 190.751  0.00  0.00    -0.057 C 
ATOM     73  H   UNL     1     145.744 165.713 191.611  0.00  0.00    +0.024 HD
ATOM     74  H   UNL     1     146.514 164.453 190.637  0.00  0.00    +0.024 HD
ATOM     75  H   UNL     1     147.385 165.948 190.995  0.00  0.00    +0.024 HD
ENDBRANCH  55  72
ENDBRANCH  53  55
BRANCH  53  76
ATOM     76  O   UNL     1     144.982 167.638 191.173  0.00  0.00    -0.379 OA
BRANCH  76  77
ATOM     77  C   UNL     1     143.600 167.817 191.458  0.00  0.00    +0.037 C 
ATOM     78  H   UNL     1     143.358 168.883 191.528  0.00  0.00    +0.052 HD
ATOM     79  H   UNL     1     143.026 167.386 190.635  0.00  0.00    +0.052 HD
ATOM     80  H   UNL     1     143.314 167.306 192.384  0.00  0.00    +0.052 HD
ENDBRANCH  76  77
ENDBRANCH  53  76
ENDBRANCH  47  53
ENDBRANCH   1  47
BRANCH   1  81
ATOM     81  O   UNL     1     147.123 170.909 190.209  0.00  0.00    -0.461 OA
BRANCH  81  82
ATOM     82  C   UNL     1     146.621 171.784 191.119  0.00  0.00    +0.310 C 
ATOM     83  O   UNL     1     145.431 172.023 191.271  0.00  0.00    -0.251 OA
BRANCH  82  84
ATOM     84  C   UNL     1     147.719 172.432 191.947  0.00  0.00    +0.051 C 
ATOM     85  H   UNL     1     148.197 171.620 192.515  0.00  0.00    +0.041 HD
BRANCH  84  86
ATOM     86  C   UNL     1     147.201 173.452 192.961  0.00  0.00    -0.053 C 
ATOM     87  H   UNL     1     147.979 174.170 193.252  0.00  0.00    +0.024 HD
ATOM     88  H   UNL     1     146.850 172.951 193.871  0.00  0.00    +0.024 HD
ATOM     89  H   UNL     1     146.363 174.021 192.545  0.00  0.00    +0.024 HD
ENDBRANCH  84  86
BRANCH  84  90
ATOM     90  C   UNL     1     148.748 173.065 191.014  0.00  0.00    -0.053 C 
ATOM     91  H   UNL     1     148.512 174.117 190.810  0.00  0.00    +0.024 HD
ATOM     92  H   UNL     1     148.774 172.541 190.051  0.00  0.00    +0.024 HD
ATOM     93  H   UNL     1     149.755 173.008 191.449  0.00  0.00    +0.024 HD
ENDBRANCH  84  90
ENDBRANCH  82  84
ENDBRANCH  81  82
ENDBRANCH   1  81
TORSDOF 32
ENDMDL
MODEL 6
REMARK VINA RESULT:      -4.8      1.981      3.259
REMARK  Name = 2c_conf2
REMARK  32 active torsions:
REMARK  status: ('A' for Active; 'I' for Inactive)
REMARK    1  A    between atoms: N_2  and  C_3
REMARK    2  A    between atoms: N_2  and  C_5
REMARK    3  A    between atoms: C_3  and  C_4
REMARK    4  A    between atoms: C_6  and  C_7
REMARK    5  A    between atoms: C_7  and  C_8
REMARK    6  A    between atoms: C_7  and  C_9
REMARK    7  A    between atoms: C_9  and  O_10
REMARK    8  A    between atoms: C_9  and  C_12
REMARK    9  A    between atoms: O_10  and  C_11
REMARK   10  A    between atoms: C_12  and  C_13
REMARK   11  A    between atoms: C_12  and  C_14
REMARK   12  A    between atoms: C_14  and  O_15
REMARK   13  A    between atoms: C_14  and  C_21
REMARK   14  A    between atoms: O_15  and  C_16
REMARK   15  A    between atoms: C_16  and  C_17
REMARK   16  A    between atoms: C_17  and  C_18
REMARK   17  A    between atoms: C_17  and  C_19
REMARK   18  A    between atoms: C_21  and  C_22
REMARK   19  A    between atoms: C_22  and  C_23
REMARK   20  A    between atoms: C_23  and  C_24
REMARK   21  A    between atoms: C_23  and  C_25
REMARK   22  A    between atoms: C_25  and  O_26
REMARK   23  A    between atoms: C_25  and  C_28
REMARK   24  A    between atoms: O_26  and  C_27
REMARK   25  A    between atoms: C_28  and  C_29
REMARK   26  A    between atoms: C_29  and  O_30
REMARK   27  A    between atoms: C_29  and  C_35
REMARK   28  A    between atoms: O_30  and  C_31
REMARK   29  A    between atoms: C_31  and  C_32
REMARK   30  A    between atoms: C_32  and  C_33
REMARK   31  A    between atoms: C_35  and  C_36
REMARK   32  A    between atoms: C_35  and  C_37
REMARK                            x       y       z     vdW  Elec       q    Type
REMARK                         _______ _______ _______ _____ _____    ______ ____
ROOT
ATOM      1  C   UNL     1     146.799 171.116 190.367  0.00  0.00    +0.108 C 
ATOM      2  H   UNL     1     146.251 171.020 191.317  0.00  0.00    +0.074 HD
ENDROOT
BRANCH   1   3
ATOM      3  C   UNL     1     148.019 170.182 190.446  0.00  0.00    -0.015 C 
ATOM      4  H   UNL     1     148.896 170.750 190.760  0.00  0.00    +0.030 HD
ATOM      5  H   UNL     1     148.248 169.725 189.479  0.00  0.00    +0.030 HD
BRANCH   3   6
ATOM      6  C   UNL     1     147.776 169.043 191.454  0.00  0.00    -0.045 C 
ATOM      7  H   UNL     1     147.185 169.401 192.308  0.00  0.00    +0.027 HD
ATOM      8  H   UNL     1     147.162 168.285 190.949  0.00  0.00    +0.027 HD
BRANCH   6   9
ATOM      9  C   UNL     1     149.092 168.393 191.957  0.00  0.00    -0.017 C 
ATOM     10  H   UNL     1     148.984 168.202 193.028  0.00  0.00    +0.032 HD
BRANCH   9  11
ATOM     11  C   UNL     1     150.234 169.405 191.775  0.00  0.00    -0.060 C 
ATOM     12  H   UNL     1     150.794 169.179 190.862  0.00  0.00    +0.023 HD
ATOM     13  H   UNL     1     150.940 169.376 192.611  0.00  0.00    +0.023 HD
ATOM     14  H   UNL     1     149.869 170.429 191.679  0.00  0.00    +0.023 HD
ENDBRANCH   9  11
BRANCH   9  15
ATOM     15  C   UNL     1     149.367 167.055 191.209  0.00  0.00    +0.064 C 
ATOM     16  H   UNL     1     148.408 166.610 190.937  0.00  0.00    +0.060 HD
BRANCH  15  17
ATOM     17  C   UNL     1     150.201 166.038 192.021  0.00  0.00    +0.011 C 
ATOM     18  H   UNL     1     149.823 165.033 191.804  0.00  0.00    +0.033 HD
ATOM     19  H   UNL     1     149.992 166.149 193.090  0.00  0.00    +0.033 HD
BRANCH  17  20
ATOM     20  C   UNL     1     151.730 166.083 191.838  0.00  0.00    +0.108 C 
ATOM     21  H   UNL     1     152.058 167.003 191.344  0.00  0.00    +0.074 HD
BRANCH  20  22
ATOM     22  C   UNL     1     152.545 165.898 193.149  0.00  0.00    -0.009 C 
ATOM     23  H   UNL     1     153.125 164.968 193.068  0.00  0.00    +0.033 HD
BRANCH  22  24
ATOM     24  C   UNL     1     151.694 165.817 194.414  0.00  0.00    -0.059 C 
ATOM     25  H   UNL     1     152.136 165.145 195.152  0.00  0.00    +0.023 HD
ATOM     26  H   UNL     1     151.567 166.806 194.859  0.00  0.00    +0.023 HD
ATOM     27  H   UNL     1     150.690 165.444 194.183  0.00  0.00    +0.023 HD
ENDBRANCH  22  24
BRANCH  22  28
ATOM     28  C   UNL     1     153.571 167.034 193.300  0.00  0.00    -0.059 C 
ATOM     29  H   UNL     1     153.354 167.852 192.607  0.00  0.00    +0.023 HD
ATOM     30  H   UNL     1     153.556 167.437 194.316  0.00  0.00    +0.023 HD
ATOM     31  H   UNL     1     154.588 166.686 193.103  0.00  0.00    +0.023 HD
ENDBRANCH  22  28
ENDBRANCH  20  22
BRANCH  20  32
ATOM     32  O   UNL     1     152.086 164.944 191.005  0.00  0.00    -0.461 OA
BRANCH  32  33
ATOM     33  C   UNL     1     152.995 165.168 190.017  0.00  0.00    +0.307 C 
ATOM     34  O   UNL     1     152.784 165.779 188.980  0.00  0.00    -0.251 OA
BRANCH  33  35
ATOM     35  C   UNL     1     154.320 164.538 190.374  0.00  0.00    +0.042 C 
ATOM     36  H   UNL     1     154.255 164.155 191.397  0.00  0.00    +0.037 HD
ATOM     37  H   UNL     1     154.495 163.678 189.718  0.00  0.00    +0.037 HD
BRANCH  35  38
ATOM     38  C   UNL     1     155.450 165.543 190.273  0.00  0.00    -0.055 C 
ATOM     39  H   UNL     1     155.563 166.090 191.216  0.00  0.00    +0.023 HD
ATOM     40  H   UNL     1     156.405 165.053 190.056  0.00  0.00    +0.023 HD
ATOM     41  H   UNL     1     155.260 166.270 189.471  0.00  0.00    +0.023 HD
ENDBRANCH  35  38
ENDBRANCH  33  35
ENDBRANCH  32  33
ENDBRANCH  20  32
ENDBRANCH  17  20
ENDBRANCH  15  17
BRANCH  15  42
ATOM     42  O   UNL     1     150.059 167.393 189.990  0.00  0.00    -0.379 OA
BRANCH  42  43
ATOM     43  C   UNL     1     149.454 166.899 188.809  0.00  0.00    +0.037 C 
ATOM     44  H   UNL     1     150.227 166.823 188.036  0.00  0.00    +0.052 HD
ATOM     45  H   UNL     1     149.039 165.898 188.963  0.00  0.00    +0.052 HD
ATOM     46  H   UNL     1     148.678 167.585 188.454  0.00  0.00    +0.052 HD
ENDBRANCH  42  43
ENDBRANCH  15  42
ENDBRANCH   9  15
ENDBRANCH   6   9
ENDBRANCH   3   6
ENDBRANCH   1   3
BRANCH   1  47
ATOM     47  C   UNL     1     145.784 170.850 189.221  0.00  0.00    +0.020 C 
ATOM     48  H   UNL     1     146.291 170.116 188.577  0.00  0.00    +0.036 HD
BRANCH  47  49
ATOM     49  C   UNL     1     145.614 172.060 188.297  0.00  0.00    -0.057 C 
ATOM     50  H   UNL     1     145.172 171.795 187.335  0.00  0.00    +0.023 HD
ATOM     51  H   UNL     1     146.575 172.551 188.100  0.00  0.00    +0.023 HD
ATOM     52  H   UNL     1     144.960 172.807 188.761  0.00  0.00    +0.023 HD
ENDBRANCH  47  49
BRANCH  47  53
ATOM     53  C   UNL     1     144.456 170.135 189.615  0.00  0.00    +0.070 C 
ATOM     54  H   UNL     1     143.683 170.462 188.910  0.00  0.00    +0.061 HD
BRANCH  53  55
ATOM     55  C   UNL     1     144.426 168.578 189.586  0.00  0.00    +0.002 C 
ATOM     56  H   UNL     1     145.391 168.220 189.221  0.00  0.00    +0.037 HD
BRANCH  55  58
ATOM     57  C   UNL     1     144.568 166.735 191.288  0.00  0.00    -0.005 C 
ATOM     58  C   UNL     1     144.105 167.937 190.919  0.00  0.00    -0.065 C 
ATOM     59  H   UNL     1     145.205 166.178 190.601  0.00  0.00    +0.078 HD
ATOM     60  H   UNL     1     143.466 168.524 191.574  0.00  0.00    +0.059 HD
BRANCH  57  62
ATOM     61  C   UNL     1     145.394 165.832 193.353  0.00  0.00    +0.206 C 
ATOM     62  N   UNL     1     144.327 166.090 192.493  0.00  0.00    -0.281 N 
ATOM     63  O   UNL     1     146.573 166.097 193.154  0.00  0.00    -0.279 OA
ATOM     64  H   UNL     1     145.080 165.340 194.288  0.00  0.00    +0.126 HD
BRANCH  62  65
ATOM     65  C   UNL     1     142.987 165.693 192.918  0.00  0.00    +0.016 C 
ATOM     66  H   UNL     1     142.339 165.576 192.044  0.00  0.00    +0.047 HD
ATOM     67  H   UNL     1     143.046 164.703 193.388  0.00  0.00    +0.047 HD
BRANCH  65  68
ATOM     68  C   UNL     1     142.385 166.666 193.920  0.00  0.00    -0.049 C 
ATOM     69  H   UNL     1     141.912 166.119 194.742  0.00  0.00    +0.024 HD
ATOM     70  H   UNL     1     143.149 167.326 194.332  0.00  0.00    +0.024 HD
ATOM     71  H   UNL     1     141.615 167.294 193.457  0.00  0.00    +0.024 HD
ENDBRANCH  65  68
ENDBRANCH  62  65
ENDBRANCH  57  62
ENDBRANCH  55  58
BRANCH  55  72
ATOM     72  C   UNL     1     143.383 168.095 188.565  0.00  0.00    -0.057 C 
ATOM     73  H   UNL     1     143.313 168.761 187.698  0.00  0.00    +0.024 HD
ATOM     74  H   UNL     1     143.637 167.094 188.197  0.00  0.00    +0.024 HD
ATOM     75  H   UNL     1     142.387 168.035 189.019  0.00  0.00    +0.024 HD
ENDBRANCH  55  72
ENDBRANCH  53  55
BRANCH  53  76
ATOM     76  O   UNL     1     144.043 170.547 190.937  0.00  0.00    -0.379 OA
BRANCH  76  77
ATOM     77  C   UNL     1     142.993 171.507 190.940  0.00  0.00    +0.037 C 
ATOM     78  H   UNL     1     142.024 171.015 191.070  0.00  0.00    +0.052 HD
ATOM     79  H   UNL     1     143.154 172.182 191.784  0.00  0.00    +0.052 HD
ATOM     80  H   UNL     1     142.993 172.099 190.018  0.00  0.00    +0.052 HD
ENDBRANCH  76  77
ENDBRANCH  53  76
ENDBRANCH  47  53
ENDBRANCH   1  47
BRANCH   1  81
ATOM     81  O   UNL     1     147.333 172.455 190.263  0.00  0.00    -0.461 OA
BRANCH  81  82
ATOM     82  C   UNL     1     148.264 172.834 191.179  0.00  0.00    +0.310 C 
ATOM     83  O   UNL     1     149.347 173.331 190.904  0.00  0.00    -0.251 OA
BRANCH  82  84
ATOM     84  C   UNL     1     147.795 172.579 192.602  0.00  0.00    +0.051 C 
ATOM     85  H   UNL     1     147.300 171.597 192.593  0.00  0.00    +0.041 HD
BRANCH  84  86
ATOM     86  C   UNL     1     146.771 173.599 193.101  0.00  0.00    -0.053 C 
ATOM     87  H   UNL     1     146.621 173.530 194.186  0.00  0.00    +0.024 HD
ATOM     88  H   UNL     1     145.800 173.443 192.617  0.00  0.00    +0.024 HD
ATOM     89  H   UNL     1     147.099 174.620 192.876  0.00  0.00    +0.024 HD
ENDBRANCH  84  86
BRANCH  84  90
ATOM     90  C   UNL     1     149.005 172.523 193.531  0.00  0.00    -0.053 C 
ATOM     91  H   UNL     1     149.478 171.533 193.515  0.00  0.00    +0.024 HD
ATOM     92  H   UNL     1     148.709 172.729 194.567  0.00  0.00    +0.024 HD
ATOM     93  H   UNL     1     149.751 173.275 193.243  0.00  0.00    +0.024 HD
ENDBRANCH  84  90
ENDBRANCH  82  84
ENDBRANCH  81  82
ENDBRANCH   1  81
TORSDOF 32
ENDMDL
MODEL 7
REMARK VINA RESULT:      -4.8      2.201      5.878
REMARK  Name = 2c_conf2
REMARK  32 active torsions:
REMARK  status: ('A' for Active; 'I' for Inactive)
REMARK    1  A    between atoms: N_2  and  C_3
REMARK    2  A    between atoms: N_2  and  C_5
REMARK    3  A    between atoms: C_3  and  C_4
REMARK    4  A    between atoms: C_6  and  C_7
REMARK    5  A    between atoms: C_7  and  C_8
REMARK    6  A    between atoms: C_7  and  C_9
REMARK    7  A    between atoms: C_9  and  O_10
REMARK    8  A    between atoms: C_9  and  C_12
REMARK    9  A    between atoms: O_10  and  C_11
REMARK   10  A    between atoms: C_12  and  C_13
REMARK   11  A    between atoms: C_12  and  C_14
REMARK   12  A    between atoms: C_14  and  O_15
REMARK   13  A    between atoms: C_14  and  C_21
REMARK   14  A    between atoms: O_15  and  C_16
REMARK   15  A    between atoms: C_16  and  C_17
REMARK   16  A    between atoms: C_17  and  C_18
REMARK   17  A    between atoms: C_17  and  C_19
REMARK   18  A    between atoms: C_21  and  C_22
REMARK   19  A    between atoms: C_22  and  C_23
REMARK   20  A    between atoms: C_23  and  C_24
REMARK   21  A    between atoms: C_23  and  C_25
REMARK   22  A    between atoms: C_25  and  O_26
REMARK   23  A    between atoms: C_25  and  C_28
REMARK   24  A    between atoms: O_26  and  C_27
REMARK   25  A    between atoms: C_28  and  C_29
REMARK   26  A    between atoms: C_29  and  O_30
REMARK   27  A    between atoms: C_29  and  C_35
REMARK   28  A    between atoms: O_30  and  C_31
REMARK   29  A    between atoms: C_31  and  C_32
REMARK   30  A    between atoms: C_32  and  C_33
REMARK   31  A    between atoms: C_35  and  C_36
REMARK   32  A    between atoms: C_35  and  C_37
REMARK                            x       y       z     vdW  Elec       q    Type
REMARK                         _______ _______ _______ _____ _____    ______ ____
ROOT
ATOM      1  C   UNL     1     144.942 166.107 192.662  0.00  0.00    +0.108 C 
ATOM      2  H   UNL     1     144.638 165.067 192.859  0.00  0.00    +0.074 HD
ENDROOT
BRANCH   1   3
ATOM      3  C   UNL     1     145.905 166.083 191.464  0.00  0.00    -0.015 C 
ATOM      4  H   UNL     1     145.335 166.034 190.535  0.00  0.00    +0.030 HD
ATOM      5  H   UNL     1     146.571 165.216 191.490  0.00  0.00    +0.030 HD
BRANCH   3   6
ATOM      6  C   UNL     1     146.787 167.346 191.440  0.00  0.00    -0.045 C 
ATOM      7  H   UNL     1     146.214 168.225 191.768  0.00  0.00    +0.027 HD
ATOM      8  H   UNL     1     147.584 167.202 192.183  0.00  0.00    +0.027 HD
BRANCH   6   9
ATOM      9  C   UNL     1     147.417 167.615 190.049  0.00  0.00    -0.017 C 
ATOM     10  H   UNL     1     146.653 167.424 189.290  0.00  0.00    +0.032 HD
BRANCH   9  11
ATOM     11  C   UNL     1     148.558 166.609 189.830  0.00  0.00    -0.060 C 
ATOM     12  H   UNL     1     148.793 166.534 188.763  0.00  0.00    +0.023 HD
ATOM     13  H   UNL     1     148.290 165.607 190.181  0.00  0.00    +0.023 HD
ATOM     14  H   UNL     1     149.477 166.908 190.338  0.00  0.00    +0.023 HD
ENDBRANCH   9  11
BRANCH   9  15
ATOM     15  C   UNL     1     147.906 169.090 189.941  0.00  0.00    +0.064 C 
ATOM     16  H   UNL     1     148.927 169.087 189.552  0.00  0.00    +0.060 HD
BRANCH  15  17
ATOM     17  C   UNL     1     147.860 169.870 191.274  0.00  0.00    +0.011 C 
ATOM     18  H   UNL     1     147.313 169.266 192.006  0.00  0.00    +0.033 HD
ATOM     19  H   UNL     1     147.226 170.756 191.170  0.00  0.00    +0.033 HD
BRANCH  17  20
ATOM     20  C   UNL     1     149.207 170.327 191.864  0.00  0.00    +0.108 C 
ATOM     21  H   UNL     1     149.121 170.602 192.921  0.00  0.00    +0.074 HD
BRANCH  20  22
ATOM     22  C   UNL     1     150.366 169.303 191.705  0.00  0.00    -0.009 C 
ATOM     23  H   UNL     1     150.326 168.891 190.686  0.00  0.00    +0.033 HD
BRANCH  22  24
ATOM     24  C   UNL     1     150.315 168.136 192.689  0.00  0.00    -0.059 C 
ATOM     25  H   UNL     1     149.821 168.420 193.620  0.00  0.00    +0.023 HD
ATOM     26  H   UNL     1     149.793 167.283 192.251  0.00  0.00    +0.023 HD
ATOM     27  H   UNL     1     151.325 167.794 192.938  0.00  0.00    +0.023 HD
ENDBRANCH  22  24
BRANCH  22  28
ATOM     28  C   UNL     1     151.724 170.013 191.830  0.00  0.00    -0.059 C 
ATOM     29  H   UNL     1     152.359 169.515 192.569  0.00  0.00    +0.023 HD
ATOM     30  H   UNL     1     152.253 170.011 190.873  0.00  0.00    +0.023 HD
ATOM     31  H   UNL     1     151.606 171.056 192.135  0.00  0.00    +0.023 HD
ENDBRANCH  22  28
ENDBRANCH  20  22
BRANCH  20  32
ATOM     32  O   UNL     1     149.624 171.495 191.102  0.00  0.00    -0.461 OA
BRANCH  32  33
ATOM     33  C   UNL     1     148.856 172.612 191.225  0.00  0.00    +0.307 C 
ATOM     34  O   UNL     1     148.365 173.244 190.300  0.00  0.00    -0.251 OA
BRANCH  33  35
ATOM     35  C   UNL     1     148.699 172.981 192.680  0.00  0.00    +0.042 C 
ATOM     36  H   UNL     1     149.000 172.122 193.287  0.00  0.00    +0.037 HD
ATOM     37  H   UNL     1     149.387 173.801 192.917  0.00  0.00    +0.037 HD
BRANCH  35  38
ATOM     38  C   UNL     1     147.267 173.360 192.999  0.00  0.00    -0.055 C 
ATOM     39  H   UNL     1     147.194 174.427 193.234  0.00  0.00    +0.023 HD
ATOM     40  H   UNL     1     146.601 173.159 192.153  0.00  0.00    +0.023 HD
ATOM     41  H   UNL     1     146.890 172.788 193.859  0.00  0.00    +0.023 HD
ENDBRANCH  35  38
ENDBRANCH  33  35
ENDBRANCH  32  33
ENDBRANCH  20  32
ENDBRANCH  17  20
ENDBRANCH  15  17
BRANCH  15  42
ATOM     42  O   UNL     1     147.065 169.738 188.966  0.00  0.00    -0.379 OA
BRANCH  42  43
ATOM     43  C   UNL     1     147.057 169.125 187.689  0.00  0.00    +0.037 C 
ATOM     44  H   UNL     1     146.991 169.914 186.932  0.00  0.00    +0.052 HD
ATOM     45  H   UNL     1     147.983 168.570 187.508  0.00  0.00    +0.052 HD
ATOM     46  H   UNL     1     146.189 168.467 187.578  0.00  0.00    +0.052 HD
ENDBRANCH  42  43
ENDBRANCH  15  42
ENDBRANCH   9  15
ENDBRANCH   6   9
ENDBRANCH   3   6
ENDBRANCH   1   3
BRANCH   1  47
ATOM     47  C   UNL     1     143.642 166.943 192.502  0.00  0.00    +0.020 C 
ATOM     48  H   UNL     1     144.000 167.974 192.363  0.00  0.00    +0.036 HD
BRANCH  47  49
ATOM     49  C   UNL     1     142.839 167.031 193.804  0.00  0.00    -0.057 C 
ATOM     50  H   UNL     1     143.087 167.916 194.392  0.00  0.00    +0.023 HD
ATOM     51  H   UNL     1     143.004 166.151 194.437  0.00  0.00    +0.023 HD
ATOM     52  H   UNL     1     141.765 167.075 193.589  0.00  0.00    +0.023 HD
ENDBRANCH  47  49
BRANCH  47  53
ATOM     53  C   UNL     1     142.791 166.675 191.224  0.00  0.00    +0.070 C 
ATOM     54  H   UNL     1     141.819 166.286 191.550  0.00  0.00    +0.061 HD
BRANCH  53  55
ATOM     55  C   UNL     1     142.473 167.881 190.290  0.00  0.00    +0.002 C 
ATOM     56  H   UNL     1     141.994 167.501 189.385  0.00  0.00    +0.037 HD
BRANCH  55  58
ATOM     57  C   UNL     1     140.858 169.805 190.219  0.00  0.00    -0.005 C 
ATOM     58  C   UNL     1     141.608 168.948 190.926  0.00  0.00    -0.065 C 
ATOM     59  H   UNL     1     140.865 169.743 189.131  0.00  0.00    +0.078 HD
ATOM     60  H   UNL     1     141.631 168.977 192.012  0.00  0.00    +0.059 HD
BRANCH  57  62
ATOM     61  C   UNL     1     138.703 170.501 191.015  0.00  0.00    +0.206 C 
ATOM     62  N   UNL     1     140.035 170.799 190.730  0.00  0.00    -0.281 N 
ATOM     63  O   UNL     1     138.141 169.426 190.841  0.00  0.00    -0.279 OA
ATOM     64  H   UNL     1     138.154 171.358 191.438  0.00  0.00    +0.126 HD
BRANCH  62  65
ATOM     65  C   UNL     1     140.516 172.149 191.012  0.00  0.00    +0.016 C 
ATOM     66  H   UNL     1     141.450 172.331 190.474  0.00  0.00    +0.047 HD
ATOM     67  H   UNL     1     139.790 172.871 190.615  0.00  0.00    +0.047 HD
BRANCH  65  68
ATOM     68  C   UNL     1     140.682 172.405 192.503  0.00  0.00    -0.049 C 
ATOM     69  H   UNL     1     141.625 172.926 192.695  0.00  0.00    +0.024 HD
ATOM     70  H   UNL     1     139.862 173.010 192.889  0.00  0.00    +0.024 HD
ATOM     71  H   UNL     1     140.703 171.467 193.070  0.00  0.00    +0.024 HD
ENDBRANCH  65  68
ENDBRANCH  62  65
ENDBRANCH  57  62
ENDBRANCH  55  58
BRANCH  55  72
ATOM     72  C   UNL     1     143.781 168.543 189.828  0.00  0.00    -0.057 C 
ATOM     73  H   UNL     1     144.652 168.160 190.370  0.00  0.00    +0.024 HD
ATOM     74  H   UNL     1     143.948 168.366 188.760  0.00  0.00    +0.024 HD
ATOM     75  H   UNL     1     143.746 169.628 189.980  0.00  0.00    +0.024 HD
ENDBRANCH  55  72
ENDBRANCH  53  55
BRANCH  53  76
ATOM     76  O   UNL     1     143.419 165.658 190.412  0.00  0.00    -0.379 OA
BRANCH  76  77
ATOM     77  C   UNL     1     142.541 165.044 189.477  0.00  0.00    +0.037 C 
ATOM     78  H   UNL     1     143.075 164.805 188.551  0.00  0.00    +0.052 HD
ATOM     79  H   UNL     1     142.177 164.112 189.915  0.00  0.00    +0.052 HD
ATOM     80  H   UNL     1     141.679 165.685 189.259  0.00  0.00    +0.052 HD
ENDBRANCH  76  77
ENDBRANCH  53  76
ENDBRANCH  47  53
ENDBRANCH   1  47
BRANCH   1  81
ATOM     81  O   UNL     1     145.716 166.592 193.782  0.00  0.00    -0.461 OA
BRANCH  81  82
ATOM     82  C   UNL     1     146.357 165.672 194.550  0.00  0.00    +0.310 C 
ATOM     83  O   UNL     1     145.873 164.609 194.910  0.00  0.00    -0.251 OA
BRANCH  82  84
ATOM     84  C   UNL     1     147.767 166.115 194.904  0.00  0.00    +0.051 C 
ATOM     85  H   UNL     1     147.847 167.168 194.597  0.00  0.00    +0.041 HD
BRANCH  84  86
ATOM     86  C   UNL     1     148.857 165.342 194.161  0.00  0.00    -0.053 C 
ATOM     87  H   UNL     1     148.703 164.257 194.224  0.00  0.00    +0.024 HD
ATOM     88  H   UNL     1     149.845 165.564 194.580  0.00  0.00    +0.024 HD
ATOM     89  H   UNL     1     148.872 165.614 193.101  0.00  0.00    +0.024 HD
ENDBRANCH  84  86
BRANCH  84  90
ATOM     90  C   UNL     1     147.964 166.017 196.415  0.00  0.00    -0.053 C 
ATOM     91  H   UNL     1     147.003 165.952 196.942  0.00  0.00    +0.024 HD
ATOM     92  H   UNL     1     148.489 166.901 196.796  0.00  0.00    +0.024 HD
ATOM     93  H   UNL     1     148.567 165.136 196.672  0.00  0.00    +0.024 HD
ENDBRANCH  84  90
ENDBRANCH  82  84
ENDBRANCH  81  82
ENDBRANCH   1  81
TORSDOF 32
ENDMDL
MODEL 8
REMARK VINA RESULT:      -4.8      3.584      6.746
REMARK  Name = 2c_conf2
REMARK  32 active torsions:
REMARK  status: ('A' for Active; 'I' for Inactive)
REMARK    1  A    between atoms: N_2  and  C_3
REMARK    2  A    between atoms: N_2  and  C_5
REMARK    3  A    between atoms: C_3  and  C_4
REMARK    4  A    between atoms: C_6  and  C_7
REMARK    5  A    between atoms: C_7  and  C_8
REMARK    6  A    between atoms: C_7  and  C_9
REMARK    7  A    between atoms: C_9  and  O_10
REMARK    8  A    between atoms: C_9  and  C_12
REMARK    9  A    between atoms: O_10  and  C_11
REMARK   10  A    between atoms: C_12  and  C_13
REMARK   11  A    between atoms: C_12  and  C_14
REMARK   12  A    between atoms: C_14  and  O_15
REMARK   13  A    between atoms: C_14  and  C_21
REMARK   14  A    between atoms: O_15  and  C_16
REMARK   15  A    between atoms: C_16  and  C_17
REMARK   16  A    between atoms: C_17  and  C_18
REMARK   17  A    between atoms: C_17  and  C_19
REMARK   18  A    between atoms: C_21  and  C_22
REMARK   19  A    between atoms: C_22  and  C_23
REMARK   20  A    between atoms: C_23  and  C_24
REMARK   21  A    between atoms: C_23  and  C_25
REMARK   22  A    between atoms: C_25  and  O_26
REMARK   23  A    between atoms: C_25  and  C_28
REMARK   24  A    between atoms: O_26  and  C_27
REMARK   25  A    between atoms: C_28  and  C_29
REMARK   26  A    between atoms: C_29  and  O_30
REMARK   27  A    between atoms: C_29  and  C_35
REMARK   28  A    between atoms: O_30  and  C_31
REMARK   29  A    between atoms: C_31  and  C_32
REMARK   30  A    between atoms: C_32  and  C_33
REMARK   31  A    between atoms: C_35  and  C_36
REMARK   32  A    between atoms: C_35  and  C_37
REMARK                            x       y       z     vdW  Elec       q    Type
REMARK                         _______ _______ _______ _____ _____    ______ ____
ROOT
ATOM      1  C   UNL     1     150.891 166.454 192.383  0.00  0.00    +0.108 C 
ATOM      2  H   UNL     1     150.263 165.643 191.985  0.00  0.00    +0.074 HD
ENDROOT
BRANCH   1   3
ATOM      3  C   UNL     1     152.344 165.951 192.377  0.00  0.00    -0.015 C 
ATOM      4  H   UNL     1     152.369 164.894 192.646  0.00  0.00    +0.030 HD
ATOM      5  H   UNL     1     152.967 166.491 193.097  0.00  0.00    +0.030 HD
BRANCH   3   6
ATOM      6  C   UNL     1     152.983 166.125 190.986  0.00  0.00    -0.045 C 
ATOM      7  H   UNL     1     152.213 166.115 190.202  0.00  0.00    +0.027 HD
ATOM      8  H   UNL     1     153.438 167.125 190.958  0.00  0.00    +0.027 HD
BRANCH   6   9
ATOM      9  C   UNL     1     154.063 165.055 190.680  0.00  0.00    -0.017 C 
ATOM     10  H   UNL     1     154.237 164.482 191.595  0.00  0.00    +0.032 HD
BRANCH   9  11
ATOM     11  C   UNL     1     155.372 165.774 190.321  0.00  0.00    -0.060 C 
ATOM     12  H   UNL     1     156.162 165.042 190.127  0.00  0.00    +0.023 HD
ATOM     13  H   UNL     1     155.715 166.424 191.133  0.00  0.00    +0.023 HD
ATOM     14  H   UNL     1     155.276 166.385 189.421  0.00  0.00    +0.023 HD
ENDBRANCH   9  11
BRANCH   9  15
ATOM     15  C   UNL     1     153.587 164.100 189.545  0.00  0.00    +0.064 C 
ATOM     16  H   UNL     1     154.187 164.298 188.655  0.00  0.00    +0.060 HD
BRANCH  15  17
ATOM     17  C   UNL     1     152.086 164.229 189.200  0.00  0.00    +0.011 C 
ATOM     18  H   UNL     1     151.597 164.796 189.999  0.00  0.00    +0.033 HD
ATOM     19  H   UNL     1     151.599 163.250 189.267  0.00  0.00    +0.033 HD
BRANCH  17  20
ATOM     20  C   UNL     1     151.732 164.832 187.828  0.00  0.00    +0.108 C 
ATOM     21  H   UNL     1     150.958 164.255 187.312  0.00  0.00    +0.074 HD
BRANCH  20  22
ATOM     22  C   UNL     1     151.302 166.326 187.868  0.00  0.00    -0.009 C 
ATOM     23  H   UNL     1     150.942 166.555 188.881  0.00  0.00    +0.033 HD
BRANCH  22  24
ATOM     24  C   UNL     1     150.196 166.689 186.880  0.00  0.00    -0.059 C 
ATOM     25  H   UNL     1     149.980 167.759 186.896  0.00  0.00    +0.023 HD
ATOM     26  H   UNL     1     150.471 166.394 185.865  0.00  0.00    +0.023 HD
ATOM     27  H   UNL     1     149.269 166.159 187.122  0.00  0.00    +0.023 HD
ENDBRANCH  22  24
BRANCH  22  28
ATOM     28  C   UNL     1     152.518 167.236 187.626  0.00  0.00    -0.059 C 
ATOM     29  H   UNL     1     153.310 166.697 187.098  0.00  0.00    +0.023 HD
ATOM     30  H   UNL     1     152.238 168.104 187.023  0.00  0.00    +0.023 HD
ATOM     31  H   UNL     1     152.932 167.611 188.565  0.00  0.00    +0.023 HD
ENDBRANCH  22  28
ENDBRANCH  20  22
BRANCH  20  32
ATOM     32  O   UNL     1     152.951 164.808 187.033  0.00  0.00    -0.461 OA
BRANCH  32  33
ATOM     33  C   UNL     1     153.027 163.863 186.057  0.00  0.00    +0.307 C 
ATOM     34  O   UNL     1     154.027 163.225 185.759  0.00  0.00    -0.251 OA
BRANCH  33  35
ATOM     35  C   UNL     1     151.692 163.713 185.370  0.00  0.00    +0.042 C 
ATOM     36  H   UNL     1     151.549 162.657 185.121  0.00  0.00    +0.037 HD
ATOM     37  H   UNL     1     150.896 163.990 186.071  0.00  0.00    +0.037 HD
BRANCH  35  38
ATOM     38  C   UNL     1     151.627 164.550 184.108  0.00  0.00    -0.055 C 
ATOM     39  H   UNL     1     152.348 164.187 183.368  0.00  0.00    +0.023 HD
ATOM     40  H   UNL     1     150.632 164.511 183.651  0.00  0.00    +0.023 HD
ATOM     41  H   UNL     1     151.851 165.605 184.323  0.00  0.00    +0.023 HD
ENDBRANCH  35  38
ENDBRANCH  33  35
ENDBRANCH  32  33
ENDBRANCH  20  32
ENDBRANCH  17  20
ENDBRANCH  15  17
BRANCH  15  42
ATOM     42  O   UNL     1     153.875 162.757 189.982  0.00  0.00    -0.379 OA
BRANCH  42  43
ATOM     43  C   UNL     1     153.796 161.774 188.965  0.00  0.00    +0.037 C 
ATOM     44  H   UNL     1     152.839 161.896 188.446  0.00  0.00    +0.052 HD
ATOM     45  H   UNL     1     154.593 161.901 188.225  0.00  0.00    +0.052 HD
ATOM     46  H   UNL     1     153.829 160.767 189.394  0.00  0.00    +0.052 HD
ENDBRANCH  42  43
ENDBRANCH  15  42
ENDBRANCH   9  15
ENDBRANCH   6   9
ENDBRANCH   3   6
ENDBRANCH   1   3
BRANCH   1  47
ATOM     47  C   UNL     1     150.585 167.727 191.545  0.00  0.00    +0.020 C 
ATOM     48  H   UNL     1     151.248 167.640 190.671  0.00  0.00    +0.036 HD
BRANCH  47  49
ATOM     49  C   UNL     1     151.077 169.008 192.224  0.00  0.00    -0.057 C 
ATOM     50  H   UNL     1     151.372 169.777 191.508  0.00  0.00    +0.023 HD
ATOM     51  H   UNL     1     151.937 168.810 192.876  0.00  0.00    +0.023 HD
ATOM     52  H   UNL     1     150.288 169.436 192.854  0.00  0.00    +0.023 HD
ENDBRANCH  47  49
BRANCH  47  53
ATOM     53  C   UNL     1     149.161 167.824 190.916  0.00  0.00    +0.070 C 
ATOM     54  H   UNL     1     149.287 168.013 189.844  0.00  0.00    +0.061 HD
BRANCH  53  55
ATOM     55  C   UNL     1     148.228 166.582 191.021  0.00  0.00    +0.002 C 
ATOM     56  H   UNL     1     148.816 165.736 191.383  0.00  0.00    +0.037 HD
BRANCH  55  58
ATOM     57  C   UNL     1     146.249 165.782 192.348  0.00  0.00    -0.005 C 
ATOM     58  C   UNL     1     147.017 166.787 191.905  0.00  0.00    -0.065 C 
ATOM     59  H   UNL     1     146.495 164.760 192.059  0.00  0.00    +0.078 HD
ATOM     60  H   UNL     1     146.804 167.821 192.168  0.00  0.00    +0.059 HD
BRANCH  57  62
ATOM     61  C   UNL     1     145.172 165.340 194.447  0.00  0.00    +0.206 C 
ATOM     62  N   UNL     1     145.134 165.891 193.167  0.00  0.00    -0.281 N 
ATOM     63  O   UNL     1     146.105 164.724 194.949  0.00  0.00    -0.279 OA
ATOM     64  H   UNL     1     144.243 165.509 195.014  0.00  0.00    +0.126 HD
BRANCH  62  65
ATOM     65  C   UNL     1     143.921 166.592 192.753  0.00  0.00    +0.016 C 
ATOM     66  H   UNL     1     144.157 167.631 192.505  0.00  0.00    +0.047 HD
ATOM     67  H   UNL     1     143.550 166.135 191.827  0.00  0.00    +0.047 HD
BRANCH  65  68
ATOM     68  C   UNL     1     142.821 166.514 193.802  0.00  0.00    -0.049 C 
ATOM     69  H   UNL     1     143.255 166.524 194.807  0.00  0.00    +0.024 HD
ATOM     70  H   UNL     1     142.132 167.354 193.709  0.00  0.00    +0.024 HD
ATOM     71  H   UNL     1     142.239 165.591 193.703  0.00  0.00    +0.024 HD
ENDBRANCH  65  68
ENDBRANCH  62  65
ENDBRANCH  57  62
ENDBRANCH  55  58
BRANCH  55  72
ATOM     72  C   UNL     1     147.731 166.182 189.622  0.00  0.00    -0.057 C 
ATOM     73  H   UNL     1     147.888 166.976 188.884  0.00  0.00    +0.024 HD
ATOM     74  H   UNL     1     148.254 165.287 189.267  0.00  0.00    +0.024 HD
ATOM     75  H   UNL     1     146.659 165.951 189.638  0.00  0.00    +0.024 HD
ENDBRANCH  55  72
ENDBRANCH  53  55
BRANCH  53  76
ATOM     76  O   UNL     1     148.446 168.947 191.477  0.00  0.00    -0.379 OA
BRANCH  76  77
ATOM     77  C   UNL     1     147.960 169.864 190.504  0.00  0.00    +0.037 C 
ATOM     78  H   UNL     1     148.714 170.032 189.727  0.00  0.00    +0.052 HD
ATOM     79  H   UNL     1     147.075 169.426 190.037  0.00  0.00    +0.052 HD
ATOM     80  H   UNL     1     147.675 170.817 190.962  0.00  0.00    +0.052 HD
ENDBRANCH  76  77
ENDBRANCH  53  76
ENDBRANCH  47  53
ENDBRANCH   1  47
BRANCH   1  81
ATOM     81  O   UNL     1     150.555 166.675 193.771  0.00  0.00    -0.461 OA
BRANCH  81  82
ATOM     82  C   UNL     1     149.938 165.664 194.437  0.00  0.00    +0.310 C 
ATOM     83  O   UNL     1     149.192 164.844 193.920  0.00  0.00    -0.251 OA
BRANCH  82  84
ATOM     84  C   UNL     1     150.295 165.659 195.915  0.00  0.00    +0.051 C 
ATOM     85  H   UNL     1     151.127 166.368 196.034  0.00  0.00    +0.041 HD
BRANCH  84  86
ATOM     86  C   UNL     1     150.778 164.301 196.424  0.00  0.00    -0.053 C 
ATOM     87  H   UNL     1     150.115 163.486 196.106  0.00  0.00    +0.024 HD
ATOM     88  H   UNL     1     150.821 164.290 197.519  0.00  0.00    +0.024 HD
ATOM     89  H   UNL     1     151.781 164.080 196.045  0.00  0.00    +0.024 HD
ENDBRANCH  84  86
BRANCH  84  90
ATOM     90  C   UNL     1     149.097 166.150 196.726  0.00  0.00    -0.053 C 
ATOM     91  H   UNL     1     148.674 165.348 197.343  0.00  0.00    +0.024 HD
ATOM     92  H   UNL     1     148.301 166.510 196.063  0.00  0.00    +0.024 HD
ATOM     93  H   UNL     1     149.386 166.983 197.380  0.00  0.00    +0.024 HD
ENDBRANCH  84  90
ENDBRANCH  82  84
ENDBRANCH  81  82
ENDBRANCH   1  81
TORSDOF 32
ENDMDL
MODEL 9
REMARK VINA RESULT:      -4.7      5.336      8.372
REMARK  Name = 2c_conf2
REMARK  32 active torsions:
REMARK  status: ('A' for Active; 'I' for Inactive)
REMARK    1  A    between atoms: N_2  and  C_3
REMARK    2  A    between atoms: N_2  and  C_5
REMARK    3  A    between atoms: C_3  and  C_4
REMARK    4  A    between atoms: C_6  and  C_7
REMARK    5  A    between atoms: C_7  and  C_8
REMARK    6  A    between atoms: C_7  and  C_9
REMARK    7  A    between atoms: C_9  and  O_10
REMARK    8  A    between atoms: C_9  and  C_12
REMARK    9  A    between atoms: O_10  and  C_11
REMARK   10  A    between atoms: C_12  and  C_13
REMARK   11  A    between atoms: C_12  and  C_14
REMARK   12  A    between atoms: C_14  and  O_15
REMARK   13  A    between atoms: C_14  and  C_21
REMARK   14  A    between atoms: O_15  and  C_16
REMARK   15  A    between atoms: C_16  and  C_17
REMARK   16  A    between atoms: C_17  and  C_18
REMARK   17  A    between atoms: C_17  and  C_19
REMARK   18  A    between atoms: C_21  and  C_22
REMARK   19  A    between atoms: C_22  and  C_23
REMARK   20  A    between atoms: C_23  and  C_24
REMARK   21  A    between atoms: C_23  and  C_25
REMARK   22  A    between atoms: C_25  and  O_26
REMARK   23  A    between atoms: C_25  and  C_28
REMARK   24  A    between atoms: O_26  and  C_27
REMARK   25  A    between atoms: C_28  and  C_29
REMARK   26  A    between atoms: C_29  and  O_30
REMARK   27  A    between atoms: C_29  and  C_35
REMARK   28  A    between atoms: O_30  and  C_31
REMARK   29  A    between atoms: C_31  and  C_32
REMARK   30  A    between atoms: C_32  and  C_33
REMARK   31  A    between atoms: C_35  and  C_36
REMARK   32  A    between atoms: C_35  and  C_37
REMARK                            x       y       z     vdW  Elec       q    Type
REMARK                         _______ _______ _______ _____ _____    ______ ____
ROOT
ATOM      1  C   UNL     1     152.885 166.386 190.600  0.00  0.00    +0.108 C 
ATOM      2  H   UNL     1     153.977 166.512 190.538  0.00  0.00    +0.074 HD
ENDROOT
BRANCH   1   3
ATOM      3  C   UNL     1     152.599 164.875 190.617  0.00  0.00    -0.015 C 
ATOM      4  H   UNL     1     151.861 164.632 189.852  0.00  0.00    +0.030 HD
ATOM      5  H   UNL     1     152.199 164.545 191.581  0.00  0.00    +0.030 HD
BRANCH   3   6
ATOM      6  C   UNL     1     153.882 164.068 190.345  0.00  0.00    -0.045 C 
ATOM      7  H   UNL     1     154.755 164.733 190.291  0.00  0.00    +0.027 HD
ATOM      8  H   UNL     1     154.047 163.413 191.212  0.00  0.00    +0.027 HD
BRANCH   6   9
ATOM      9  C   UNL     1     153.792 163.209 189.056  0.00  0.00    -0.017 C 
ATOM     10  H   UNL     1     154.140 163.821 188.219  0.00  0.00    +0.032 HD
BRANCH   9  11
ATOM     11  C   UNL     1     152.316 162.865 188.804  0.00  0.00    -0.060 C 
ATOM     12  H   UNL     1     152.088 162.944 187.737  0.00  0.00    +0.023 HD
ATOM     13  H   UNL     1     151.643 163.544 189.338  0.00  0.00    +0.023 HD
ATOM     14  H   UNL     1     152.071 161.844 189.107  0.00  0.00    +0.023 HD
ENDBRANCH   9  11
BRANCH   9  15
ATOM     15  C   UNL     1     154.679 161.935 189.179  0.00  0.00    +0.064 C 
ATOM     16  H   UNL     1     155.291 162.027 190.079  0.00  0.00    +0.060 HD
BRANCH  15  17
ATOM     17  C   UNL     1     155.589 161.679 187.956  0.00  0.00    +0.011 C 
ATOM     18  H   UNL     1     155.123 162.140 187.079  0.00  0.00    +0.033 HD
ATOM     19  H   UNL     1     155.584 160.614 187.700  0.00  0.00    +0.033 HD
BRANCH  17  20
ATOM     20  C   UNL     1     157.059 162.124 188.073  0.00  0.00    +0.108 C 
ATOM     21  H   UNL     1     157.738 161.441 187.550  0.00  0.00    +0.074 HD
BRANCH  20  22
ATOM     22  C   UNL     1     157.337 163.575 187.588  0.00  0.00    -0.009 C 
ATOM     23  H   UNL     1     158.365 163.620 187.201  0.00  0.00    +0.033 HD
BRANCH  22  24
ATOM     24  C   UNL     1     157.194 164.639 188.674  0.00  0.00    -0.059 C 
ATOM     25  H   UNL     1     158.164 165.047 188.966  0.00  0.00    +0.023 HD
ATOM     26  H   UNL     1     156.549 165.453 188.337  0.00  0.00    +0.023 HD
ATOM     27  H   UNL     1     156.726 164.219 189.571  0.00  0.00    +0.023 HD
ENDBRANCH  22  24
BRANCH  22  28
ATOM     28  C   UNL     1     156.416 163.927 186.409  0.00  0.00    -0.059 C 
ATOM     29  H   UNL     1     156.597 164.949 186.063  0.00  0.00    +0.023 HD
ATOM     30  H   UNL     1     156.586 163.249 185.568  0.00  0.00    +0.023 HD
ATOM     31  H   UNL     1     155.361 163.847 186.684  0.00  0.00    +0.023 HD
ENDBRANCH  22  28
ENDBRANCH  20  22
BRANCH  20  32
ATOM     32  O   UNL     1     157.386 162.126 189.491  0.00  0.00    -0.461 OA
BRANCH  32  33
ATOM     33  C   UNL     1     158.258 161.173 189.920  0.00  0.00    +0.307 C 
ATOM     34  O   UNL     1     158.013 159.979 190.024  0.00  0.00    -0.251 OA
BRANCH  33  35
ATOM     35  C   UNL     1     159.586 161.799 190.269  0.00  0.00    +0.042 C 
ATOM     36  H   UNL     1     160.218 161.032 190.726  0.00  0.00    +0.037 HD
ATOM     37  H   UNL     1     160.083 162.119 189.346  0.00  0.00    +0.037 HD
BRANCH  35  38
ATOM     38  C   UNL     1     159.411 162.959 191.228  0.00  0.00    -0.055 C 
ATOM     39  H   UNL     1     158.495 162.837 191.815  0.00  0.00    +0.023 HD
ATOM     40  H   UNL     1     160.250 163.030 191.929  0.00  0.00    +0.023 HD
ATOM     41  H   UNL     1     159.350 163.913 190.685  0.00  0.00    +0.023 HD
ENDBRANCH  35  38
ENDBRANCH  33  35
ENDBRANCH  32  33
ENDBRANCH  20  32
ENDBRANCH  17  20
ENDBRANCH  15  17
BRANCH  15  42
ATOM     42  O   UNL     1     153.785 160.819 189.366  0.00  0.00    -0.379 OA
BRANCH  42  43
ATOM     43  C   UNL     1     154.408 159.548 189.328  0.00  0.00    +0.037 C 
ATOM     44  H   UNL     1     155.334 159.604 189.910  0.00  0.00    +0.052 HD
ATOM     45  H   UNL     1     153.775 158.781 189.785  0.00  0.00    +0.052 HD
ATOM     46  H   UNL     1     154.663 159.271 188.300  0.00  0.00    +0.052 HD
ENDBRANCH  42  43
ENDBRANCH  15  42
ENDBRANCH   9  15
ENDBRANCH   6   9
ENDBRANCH   3   6
ENDBRANCH   1   3
BRANCH   1  47
ATOM     47  C   UNL     1     152.397 167.207 191.826  0.00  0.00    +0.020 C 
ATOM     48  H   UNL     1     153.025 168.111 191.811  0.00  0.00    +0.036 HD
BRANCH  47  49
ATOM     49  C   UNL     1     152.771 166.550 193.158  0.00  0.00    -0.057 C 
ATOM     50  H   UNL     1     153.670 165.936 193.086  0.00  0.00    +0.023 HD
ATOM     51  H   UNL     1     151.959 165.914 193.532  0.00  0.00    +0.023 HD
ATOM     52  H   UNL     1     152.959 167.313 193.922  0.00  0.00    +0.023 HD
ENDBRANCH  47  49
BRANCH  47  53
ATOM     53  C   UNL     1     150.944 167.770 191.757  0.00  0.00    +0.070 C 
ATOM     54  H   UNL     1     150.809 168.212 190.764  0.00  0.00    +0.061 HD
BRANCH  53  55
ATOM     55  C   UNL     1     149.763 166.772 191.942  0.00  0.00    +0.002 C 
ATOM     56  H   UNL     1     150.136 165.759 191.773  0.00  0.00    +0.037 HD
BRANCH  55  58
ATOM     57  C   UNL     1     149.129 165.874 194.202  0.00  0.00    -0.005 C 
ATOM     58  C   UNL     1     149.083 166.857 193.292  0.00  0.00    -0.065 C 
ATOM     59  H   UNL     1     149.677 164.961 193.969  0.00  0.00    +0.078 HD
ATOM     60  H   UNL     1     148.547 167.783 193.483  0.00  0.00    +0.059 HD
BRANCH  57  62
ATOM     61  C   UNL     1     149.352 165.777 196.590  0.00  0.00    +0.206 C 
ATOM     62  N   UNL     1     148.543 165.884 195.460  0.00  0.00    -0.281 N 
ATOM     63  O   UNL     1     150.570 165.648 196.607  0.00  0.00    -0.279 OA
ATOM     64  H   UNL     1     148.780 165.822 197.531  0.00  0.00    +0.126 HD
BRANCH  62  65
ATOM     65  C   UNL     1     147.102 166.033 195.654  0.00  0.00    +0.016 C 
ATOM     66  H   UNL     1     146.857 165.928 196.714  0.00  0.00    +0.047 HD
ATOM     67  H   UNL     1     146.814 167.055 195.375  0.00  0.00    +0.047 HD
BRANCH  65  68
ATOM     68  C   UNL     1     146.300 165.059 194.804  0.00  0.00    -0.049 C 
ATOM     69  H   UNL     1     145.422 164.709 195.356  0.00  0.00    +0.024 HD
ATOM     70  H   UNL     1     145.968 165.529 193.878  0.00  0.00    +0.024 HD
ATOM     71  H   UNL     1     146.894 164.177 194.538  0.00  0.00    +0.024 HD
ENDBRANCH  65  68
ENDBRANCH  62  65
ENDBRANCH  57  62
ENDBRANCH  55  58
BRANCH  55  72
ATOM     72  C   UNL     1     148.699 167.016 190.859  0.00  0.00    -0.057 C 
ATOM     73  H   UNL     1     149.103 167.556 189.996  0.00  0.00    +0.024 HD
ATOM     74  H   UNL     1     148.291 166.065 190.497  0.00  0.00    +0.024 HD
ATOM     75  H   UNL     1     147.863 167.603 191.257  0.00  0.00    +0.024 HD
ENDBRANCH  55  72
ENDBRANCH  53  55
BRANCH  53  76
ATOM     76  O   UNL     1     150.773 168.823 192.732  0.00  0.00    -0.379 OA
BRANCH  76  77
ATOM     77  C   UNL     1     150.781 170.131 192.173  0.00  0.00    +0.037 C 
ATOM     78  H   UNL     1     151.687 170.670 192.472  0.00  0.00    +0.052 HD
ATOM     79  H   UNL     1     150.781 170.034 191.085  0.00  0.00    +0.052 HD
ATOM     80  H   UNL     1     149.892 170.698 192.471  0.00  0.00    +0.052 HD
ENDBRANCH  76  77
ENDBRANCH  53  76
ENDBRANCH  47  53
ENDBRANCH   1  47
BRANCH   1  81
ATOM     81  O   UNL     1     152.282 166.888 189.387  0.00  0.00    -0.461 OA
BRANCH  81  82
ATOM     82  C   UNL     1     153.048 166.908 188.265  0.00  0.00    +0.310 C 
ATOM     83  O   UNL     1     154.240 167.181 188.241  0.00  0.00    -0.251 OA
BRANCH  82  84
ATOM     84  C   UNL     1     152.248 166.533 187.028  0.00  0.00    +0.051 C 
ATOM     85  H   UNL     1     152.125 167.458 186.447  0.00  0.00    +0.041 HD
BRANCH  84  86
ATOM     86  C   UNL     1     150.849 166.003 187.339  0.00  0.00    -0.053 C 
ATOM     87  H   UNL     1     150.387 165.529 186.464  0.00  0.00    +0.024 HD
ATOM     88  H   UNL     1     150.190 166.815 187.668  0.00  0.00    +0.024 HD
ATOM     89  H   UNL     1     150.887 165.256 188.140  0.00  0.00    +0.024 HD
ENDBRANCH  84  86
BRANCH  84  90
ATOM     90  C   UNL     1     153.041 165.523 186.200  0.00  0.00    -0.053 C 
ATOM     91  H   UNL     1     153.684 166.023 185.464  0.00  0.00    +0.024 HD
ATOM     92  H   UNL     1     152.365 164.859 185.648  0.00  0.00    +0.024 HD
ATOM     93  H   UNL     1     153.667 164.896 186.848  0.00  0.00    +0.024 HD
ENDBRANCH  84  90
ENDBRANCH  82  84
ENDBRANCH  81  82
ENDBRANCH   1  81
TORSDOF 32
ENDMDL
MODEL 10
REMARK VINA RESULT:      -4.7      3.302      8.610
REMARK  Name = 2c_conf2
REMARK  32 active torsions:
REMARK  status: ('A' for Active; 'I' for Inactive)
REMARK    1  A    between atoms: N_2  and  C_3
REMARK    2  A    between atoms: N_2  and  C_5
REMARK    3  A    between atoms: C_3  and  C_4
REMARK    4  A    between atoms: C_6  and  C_7
REMARK    5  A    between atoms: C_7  and  C_8
REMARK    6  A    between atoms: C_7  and  C_9
REMARK    7  A    between atoms: C_9  and  O_10
REMARK    8  A    between atoms: C_9  and  C_12
REMARK    9  A    between atoms: O_10  and  C_11
REMARK   10  A    between atoms: C_12  and  C_13
REMARK   11  A    between atoms: C_12  and  C_14
REMARK   12  A    between atoms: C_14  and  O_15
REMARK   13  A    between atoms: C_14  and  C_21
REMARK   14  A    between atoms: O_15  and  C_16
REMARK   15  A    between atoms: C_16  and  C_17
REMARK   16  A    between atoms: C_17  and  C_18
REMARK   17  A    between atoms: C_17  and  C_19
REMARK   18  A    between atoms: C_21  and  C_22
REMARK   19  A    between atoms: C_22  and  C_23
REMARK   20  A    between atoms: C_23  and  C_24
REMARK   21  A    between atoms: C_23  and  C_25
REMARK   22  A    between atoms: C_25  and  O_26
REMARK   23  A    between atoms: C_25  and  C_28
REMARK   24  A    between atoms: O_26  and  C_27
REMARK   25  A    between atoms: C_28  and  C_29
REMARK   26  A    between atoms: C_29  and  O_30
REMARK   27  A    between atoms: C_29  and  C_35
REMARK   28  A    between atoms: O_30  and  C_31
REMARK   29  A    between atoms: C_31  and  C_32
REMARK   30  A    between atoms: C_32  and  C_33
REMARK   31  A    between atoms: C_35  and  C_36
REMARK   32  A    between atoms: C_35  and  C_37
REMARK                            x       y       z     vdW  Elec       q    Type
REMARK                         _______ _______ _______ _____ _____    ______ ____
ROOT
ATOM      1  C   UNL     1     149.228 167.501 193.077  0.00  0.00    +0.108 C 
ATOM      2  H   UNL     1     149.192 167.909 194.098  0.00  0.00    +0.074 HD
ENDROOT
BRANCH   1   3
ATOM      3  C   UNL     1     148.161 168.239 192.252  0.00  0.00    -0.015 C 
ATOM      4  H   UNL     1     148.607 169.109 191.768  0.00  0.00    +0.030 HD
ATOM      5  H   UNL     1     147.335 168.595 192.875  0.00  0.00    +0.030 HD
BRANCH   3   6
ATOM      6  C   UNL     1     147.565 167.318 191.170  0.00  0.00    -0.045 C 
ATOM      7  H   UNL     1     147.623 167.794 190.182  0.00  0.00    +0.027 HD
ATOM      8  H   UNL     1     148.199 166.422 191.119  0.00  0.00    +0.027 HD
BRANCH   6   9
ATOM      9  C   UNL     1     146.102 166.901 191.472  0.00  0.00    -0.017 C 
ATOM     10  H   UNL     1     145.938 167.003 192.549  0.00  0.00    +0.032 HD
BRANCH   9  11
ATOM     11  C   UNL     1     145.935 165.418 191.111  0.00  0.00    -0.060 C 
ATOM     12  H   UNL     1     146.038 164.798 192.008  0.00  0.00    +0.023 HD
ATOM     13  H   UNL     1     146.691 165.086 190.391  0.00  0.00    +0.023 HD
ATOM     14  H   UNL     1     144.952 165.203 190.687  0.00  0.00    +0.023 HD
ENDBRANCH   9  11
BRANCH   9  15
ATOM     15  C   UNL     1     145.100 167.810 190.700  0.00  0.00    +0.064 C 
ATOM     16  H   UNL     1     144.956 168.728 191.273  0.00  0.00    +0.060 HD
BRANCH  15  17
ATOM     17  C   UNL     1     143.730 167.148 190.426  0.00  0.00    +0.011 C 
ATOM     18  H   UNL     1     143.836 166.068 190.572  0.00  0.00    +0.033 HD
ATOM     19  H   UNL     1     143.482 167.225 189.363  0.00  0.00    +0.033 HD
BRANCH  17  20
ATOM     20  C   UNL     1     142.525 167.677 191.226  0.00  0.00    +0.108 C 
ATOM     21  H   UNL     1     141.618 167.732 190.615  0.00  0.00    +0.074 HD
BRANCH  20  22
ATOM     22  C   UNL     1     142.208 166.880 192.523  0.00  0.00    -0.009 C 
ATOM     23  H   UNL     1     141.136 166.987 192.742  0.00  0.00    +0.033 HD
BRANCH  22  24
ATOM     24  C   UNL     1     142.990 167.339 193.751  0.00  0.00    -0.059 C 
ATOM     25  H   UNL     1     143.409 166.493 194.299  0.00  0.00    +0.023 HD
ATOM     26  H   UNL     1     143.797 168.016 193.465  0.00  0.00    +0.023 HD
ATOM     27  H   UNL     1     142.343 167.893 194.439  0.00  0.00    +0.023 HD
ENDBRANCH  22  24
BRANCH  22  28
ATOM     28  C   UNL     1     142.454 165.378 192.298  0.00  0.00    -0.059 C 
ATOM     29  H   UNL     1     143.522 165.171 192.183  0.00  0.00    +0.023 HD
ATOM     30  H   UNL     1     142.083 164.793 193.143  0.00  0.00    +0.023 HD
ATOM     31  H   UNL     1     141.942 165.017 191.402  0.00  0.00    +0.023 HD
ENDBRANCH  22  28
ENDBRANCH  20  22
BRANCH  20  32
ATOM     32  O   UNL     1     142.875 169.015 191.678  0.00  0.00    -0.461 OA
BRANCH  32  33
ATOM     33  C   UNL     1     142.056 170.028 191.285  0.00  0.00    +0.307 C 
ATOM     34  O   UNL     1     140.889 169.907 190.939  0.00  0.00    -0.251 OA
BRANCH  33  35
ATOM     35  C   UNL     1     142.796 171.343 191.322  0.00  0.00    +0.042 C 
ATOM     36  H   UNL     1     142.140 172.119 190.916  0.00  0.00    +0.037 HD
ATOM     37  H   UNL     1     143.001 171.608 192.366  0.00  0.00    +0.037 HD
BRANCH  35  38
ATOM     38  C   UNL     1     144.075 171.276 190.512  0.00  0.00    -0.055 C 
ATOM     39  H   UNL     1     143.876 171.508 189.460  0.00  0.00    +0.023 HD
ATOM     40  H   UNL     1     144.818 171.993 190.877  0.00  0.00    +0.023 HD
ATOM     41  H   UNL     1     144.524 170.275 190.567  0.00  0.00    +0.023 HD
ENDBRANCH  35  38
ENDBRANCH  33  35
ENDBRANCH  32  33
ENDBRANCH  20  32
ENDBRANCH  17  20
ENDBRANCH  15  17
BRANCH  15  42
ATOM     42  O   UNL     1     145.731 168.163 189.453  0.00  0.00    -0.379 OA
BRANCH  42  43
ATOM     43  C   UNL     1     144.851 168.245 188.346  0.00  0.00    +0.037 C 
ATOM     44  H   UNL     1     145.287 168.934 187.615  0.00  0.00    +0.052 HD
ATOM     45  H   UNL     1     144.734 167.273 187.857  0.00  0.00    +0.052 HD
ATOM     46  H   UNL     1     143.876 168.639 188.653  0.00  0.00    +0.052 HD
ENDBRANCH  42  43
ENDBRANCH  15  42
ENDBRANCH   9  15
ENDBRANCH   6   9
ENDBRANCH   3   6
ENDBRANCH   1   3
BRANCH   1  47
ATOM     47  C   UNL     1     150.698 167.615 192.587  0.00  0.00    +0.020 C 
ATOM     48  H   UNL     1     151.297 167.499 193.503  0.00  0.00    +0.036 HD
BRANCH  47  49
ATOM     49  C   UNL     1     151.052 169.031 192.123  0.00  0.00    -0.057 C 
ATOM     50  H   UNL     1     150.217 169.534 191.631  0.00  0.00    +0.023 HD
ATOM     51  H   UNL     1     151.898 169.023 191.423  0.00  0.00    +0.023 HD
ATOM     52  H   UNL     1     151.348 169.651 192.977  0.00  0.00    +0.023 HD
ENDBRANCH  47  49
BRANCH  47  53
ATOM     53  C   UNL     1     151.218 166.472 191.662  0.00  0.00    +0.070 C 
ATOM     54  H   UNL     1     150.417 165.731 191.573  0.00  0.00    +0.061 HD
BRANCH  53  55
ATOM     55  C   UNL     1     151.624 166.838 190.204  0.00  0.00    +0.002 C 
ATOM     56  H   UNL     1     151.182 167.805 189.954  0.00  0.00    +0.037 HD
BRANCH  55  58
ATOM     57  C   UNL     1     153.731 166.132 189.030  0.00  0.00    -0.005 C 
ATOM     58  C   UNL     1     153.118 166.872 189.964  0.00  0.00    -0.065 C 
ATOM     59  H   UNL     1     153.135 165.464 188.407  0.00  0.00    +0.078 HD
ATOM     60  H   UNL     1     153.675 167.549 190.607  0.00  0.00    +0.059 HD
BRANCH  57  62
ATOM     61  C   UNL     1     155.507 166.115 187.415  0.00  0.00    +0.206 C 
ATOM     62  N   UNL     1     155.089 166.118 188.745  0.00  0.00    -0.281 N 
ATOM     63  O   UNL     1     154.787 166.099 186.424  0.00  0.00    -0.279 OA
ATOM     64  H   UNL     1     156.603 166.129 187.311  0.00  0.00    +0.126 HD
BRANCH  62  65
ATOM     65  C   UNL     1     156.110 166.137 189.790  0.00  0.00    +0.016 C 
ATOM     66  H   UNL     1     156.834 166.932 189.587  0.00  0.00    +0.047 HD
ATOM     67  H   UNL     1     155.633 166.397 190.743  0.00  0.00    +0.047 HD
BRANCH  65  68
ATOM     68  C   UNL     1     156.801 164.791 189.949  0.00  0.00    -0.049 C 
ATOM     69  H   UNL     1     156.059 163.990 190.015  0.00  0.00    +0.024 HD
ATOM     70  H   UNL     1     157.462 164.589 189.105  0.00  0.00    +0.024 HD
ATOM     71  H   UNL     1     157.405 164.757 190.863  0.00  0.00    +0.024 HD
ENDBRANCH  65  68
ENDBRANCH  62  65
ENDBRANCH  57  62
ENDBRANCH  55  58
BRANCH  55  72
ATOM     72  C   UNL     1     151.009 165.828 189.222  0.00  0.00    -0.057 C 
ATOM     73  H   UNL     1     150.964 166.220 188.200  0.00  0.00    +0.024 HD
ATOM     74  H   UNL     1     151.597 164.903 189.199  0.00  0.00    +0.024 HD
ATOM     75  H   UNL     1     149.988 165.561 189.520  0.00  0.00    +0.024 HD
ENDBRANCH  55  72
ENDBRANCH  53  55
BRANCH  53  76
ATOM     76  O   UNL     1     152.353 165.818 192.272  0.00  0.00    -0.379 OA
BRANCH  76  77
ATOM     77  C   UNL     1     152.518 166.118 193.653  0.00  0.00    +0.037 C 
ATOM     78  H   UNL     1     151.544 166.286 194.126  0.00  0.00    +0.052 HD
ATOM     79  H   UNL     1     152.990 165.258 194.132  0.00  0.00    +0.052 HD
ATOM     80  H   UNL     1     153.161 166.992 193.797  0.00  0.00    +0.052 HD
ENDBRANCH  76  77
ENDBRANCH  53  76
ENDBRANCH  47  53
ENDBRANCH   1  47
BRANCH   1  81
ATOM     81  O   UNL     1     148.815 166.116 193.107  0.00  0.00    -0.461 OA
BRANCH  81  82
ATOM     82  C   UNL     1     148.699 165.521 194.323  0.00  0.00    +0.310 C 
ATOM     83  O   UNL     1     149.448 164.651 194.747  0.00  0.00    -0.251 OA
BRANCH  82  84
ATOM     84  C   UNL     1     147.525 166.074 195.114  0.00  0.00    +0.051 C 
ATOM     85  H   UNL     1     147.352 167.092 194.738  0.00  0.00    +0.041 HD
BRANCH  84  86
ATOM     86  C   UNL     1     147.794 166.184 196.615  0.00  0.00    -0.053 C 
ATOM     87  H   UNL     1     148.842 165.967 196.859  0.00  0.00    +0.024 HD
ATOM     88  H   UNL     1     147.167 165.480 197.175  0.00  0.00    +0.024 HD
ATOM     89  H   UNL     1     147.572 167.194 196.976  0.00  0.00    +0.024 HD
ENDBRANCH  84  86
BRANCH  84  90
ATOM     90  C   UNL     1     146.287 165.222 194.844  0.00  0.00    -0.053 C 
ATOM     91  H   UNL     1     146.517 164.377 194.183  0.00  0.00    +0.024 HD
ATOM     92  H   UNL     1     145.505 165.817 194.358  0.00  0.00    +0.024 HD
ATOM     93  H   UNL     1     145.871 164.832 195.783  0.00  0.00    +0.024 HD
ENDBRANCH  84  90
ENDBRANCH  82  84
ENDBRANCH  81  82
ENDBRANCH   1  81
TORSDOF 32
ENDMDL
