MODEL 1
REMARK VINA RESULT:      -5.3      0.000      0.000
REMARK  Name = 2u_conf2
REMARK  31 active torsions:
REMARK  status: ('A' for Active; 'I' for Inactive)
REMARK    1  A    between atoms: C_2  and  C_3
REMARK    2  A    between atoms: C_2  and  O_8
REMARK    3  A    between atoms: O_8  and  C_9
REMARK    4  A    between atoms: C_9  and  C_10
REMARK    5  A    between atoms: C_9  and  C_29
REMARK    6  A    between atoms: C_10  and  C_11
REMARK    7  A    between atoms: C_11  and  C_12
REMARK    8  A    between atoms: C_12  and  C_13
REMARK    9  A    between atoms: C_12  and  C_14
REMARK   10  A    between atoms: C_14  and  O_15
REMARK   11  A    between atoms: C_14  and  C_17
REMARK   12  A    between atoms: O_15  and  C_16
REMARK   13  A    between atoms: C_17  and  C_18
REMARK   14  A    between atoms: C_18  and  O_19
REMARK   15  A    between atoms: C_18  and  C_26
REMARK   16  A    between atoms: O_19  and  C_20
REMARK   17  A    between atoms: C_20  and  C_21
REMARK   18  A    between atoms: C_21  and  C_22
REMARK   19  A    between atoms: C_22  and  C_23
REMARK   20  A    between atoms: C_23  and  N_24
REMARK   21  A    between atoms: C_26  and  C_27
REMARK   22  A    between atoms: C_26  and  C_28
REMARK   23  A    between atoms: C_29  and  C_30
REMARK   24  A    between atoms: C_29  and  C_31
REMARK   25  A    between atoms: C_31  and  O_32
REMARK   26  A    between atoms: C_31  and  C_34
REMARK   27  A    between atoms: O_32  and  C_33
REMARK   28  A    between atoms: C_34  and  C_35
REMARK   29  A    between atoms: C_34  and  C_36
REMARK   30  A    between atoms: C_37  and  N_38
REMARK   31  A    between atoms: N_38  and  C_39
REMARK                            x       y       z     vdW  Elec       q    Type
REMARK                         _______ _______ _______ _____ _____    ______ ____
ROOT
ATOM      1  C   UNL     1     146.508 166.430 191.471  0.00  0.00    -0.015 C 
ATOM      2  H   UNL     1     147.397 165.825 191.643  0.00  0.00    +0.030 HD
ATOM      3  H   UNL     1     146.110 166.098 190.506  0.00  0.00    +0.030 HD
ENDROOT
BRANCH   1   4
ATOM      4  C   UNL     1     146.928 167.905 191.366  0.00  0.00    -0.045 C 
ATOM      5  H   UNL     1     147.737 168.107 192.076  0.00  0.00    +0.027 HD
ATOM      6  H   UNL     1     146.095 168.542 191.686  0.00  0.00    +0.027 HD
BRANCH   4   7
ATOM      7  C   UNL     1     147.363 168.357 189.953  0.00  0.00    -0.017 C 
ATOM      8  H   UNL     1     146.554 168.070 189.264  0.00  0.00    +0.032 HD
BRANCH   7   9
ATOM      9  C   UNL     1     148.595 167.561 189.496  0.00  0.00    -0.060 C 
ATOM     10  H   UNL     1     149.092 168.055 188.654  0.00  0.00    +0.023 HD
ATOM     11  H   UNL     1     148.313 166.558 189.156  0.00  0.00    +0.023 HD
ATOM     12  H   UNL     1     149.329 167.453 190.301  0.00  0.00    +0.023 HD
ENDBRANCH   7   9
BRANCH   7  13
ATOM     13  C   UNL     1     147.590 169.886 189.798  0.00  0.00    +0.064 C 
ATOM     14  H   UNL     1     148.543 170.068 189.288  0.00  0.00    +0.060 HD
BRANCH  13  15
ATOM     15  C   UNL     1     147.581 170.610 191.161  0.00  0.00    +0.011 C 
ATOM     16  H   UNL     1     146.847 171.420 191.119  0.00  0.00    +0.033 HD
ATOM     17  H   UNL     1     147.268 169.903 191.935  0.00  0.00    +0.033 HD
BRANCH  15  18
ATOM     18  C   UNL     1     148.958 171.184 191.541  0.00  0.00    +0.108 C 
ATOM     19  H   UNL     1     149.560 171.307 190.632  0.00  0.00    +0.074 HD
BRANCH  18  20
ATOM     20  C   UNL     1     148.891 172.548 192.277  0.00  0.00    -0.009 C 
ATOM     21  H   UNL     1     149.496 173.260 191.700  0.00  0.00    +0.033 HD
BRANCH  20  22
ATOM     22  C   UNL     1     147.468 173.106 192.334  0.00  0.00    -0.059 C 
ATOM     23  H   UNL     1     147.479 174.141 192.692  0.00  0.00    +0.023 HD
ATOM     24  H   UNL     1     146.830 172.533 193.014  0.00  0.00    +0.023 HD
ATOM     25  H   UNL     1     147.005 173.104 191.343  0.00  0.00    +0.023 HD
ENDBRANCH  20  22
BRANCH  20  26
ATOM     26  C   UNL     1     149.502 172.509 193.681  0.00  0.00    -0.059 C 
ATOM     27  H   UNL     1     148.914 173.123 194.371  0.00  0.00    +0.023 HD
ATOM     28  H   UNL     1     149.529 171.493 194.086  0.00  0.00    +0.023 HD
ATOM     29  H   UNL     1     150.521 172.905 193.682  0.00  0.00    +0.023 HD
ENDBRANCH  20  26
ENDBRANCH  18  20
BRANCH  18  30
ATOM     30  O   UNL     1     149.585 170.218 192.421  0.00  0.00    -0.461 OA
BRANCH  30  31
ATOM     31  C   UNL     1     150.756 169.663 191.998  0.00  0.00    +0.307 C 
ATOM     32  O   UNL     1     151.659 170.261 191.430  0.00  0.00    -0.251 OA
BRANCH  31  33
ATOM     33  C   UNL     1     150.771 168.200 192.374  0.00  0.00    +0.046 C 
ATOM     34  H   UNL     1     149.787 167.782 192.138  0.00  0.00    +0.038 HD
ATOM     35  H   UNL     1     150.940 168.136 193.453  0.00  0.00    +0.038 HD
BRANCH  33  36
ATOM     36  C   UNL     1     151.858 167.427 191.629  0.00  0.00    -0.031 C 
ATOM     37  H   UNL     1     151.989 167.849 190.625  0.00  0.00    +0.028 HD
ATOM     38  H   UNL     1     152.819 167.557 192.146  0.00  0.00    +0.028 HD
BRANCH  36  39
ATOM     39  C   UNL     1     151.574 165.928 191.532  0.00  0.00    -0.006 C 
ATOM     40  H   UNL     1     150.740 165.682 192.199  0.00  0.00    +0.042 HD
ATOM     41  H   UNL     1     151.265 165.664 190.514  0.00  0.00    +0.042 HD
BRANCH  39  42
ATOM     42  N   UNL     1     152.727 165.120 191.914  0.00  0.00    -0.330 NA
ATOM     43  H   UNL     1     152.923 164.427 191.193  0.00  0.00    +0.118 HD
ATOM     44  H   UNL     1     152.494 164.585 192.752  0.00  0.00    +0.118 HD
ENDBRANCH  39  42
ENDBRANCH  36  39
ENDBRANCH  33  36
ENDBRANCH  31  33
ENDBRANCH  30  31
ENDBRANCH  18  30
ENDBRANCH  15  18
ENDBRANCH  13  15
BRANCH  13  45
ATOM     45  O   UNL     1     146.499 170.420 189.027  0.00  0.00    -0.379 OA
BRANCH  45  46
ATOM     46  C   UNL     1     146.469 169.937 187.690  0.00  0.00    +0.037 C 
ATOM     47  H   UNL     1     146.401 168.846 187.721  0.00  0.00    +0.052 HD
ATOM     48  H   UNL     1     147.383 170.215 187.156  0.00  0.00    +0.052 HD
ATOM     49  H   UNL     1     145.595 170.328 187.162  0.00  0.00    +0.052 HD
ENDBRANCH  45  46
ENDBRANCH  13  45
ENDBRANCH   7  13
ENDBRANCH   4   7
ENDBRANCH   1   4
BRANCH   1  50
ATOM     50  C   UNL     1     145.447 166.197 192.572  0.00  0.00    +0.108 C 
ATOM     51  H   UNL     1     145.276 165.118 192.682  0.00  0.00    +0.074 HD
BRANCH  50  52
ATOM     52  C   UNL     1     144.034 166.813 192.338  0.00  0.00    +0.020 C 
ATOM     53  H   UNL     1     144.199 167.889 192.193  0.00  0.00    +0.036 HD
BRANCH  52  54
ATOM     54  C   UNL     1     143.190 166.695 193.617  0.00  0.00    -0.057 C 
ATOM     55  H   UNL     1     142.486 165.861 193.542  0.00  0.00    +0.023 HD
ATOM     56  H   UNL     1     142.617 167.603 193.814  0.00  0.00    +0.023 HD
ATOM     57  H   UNL     1     143.828 166.504 194.484  0.00  0.00    +0.023 HD
ENDBRANCH  52  54
BRANCH  52  58
ATOM     58  C   UNL     1     143.203 166.336 191.104  0.00  0.00    +0.070 C 
ATOM     59  H   UNL     1     142.225 166.009 191.492  0.00  0.00    +0.061 HD
BRANCH  58  60
ATOM     60  C   UNL     1     142.904 167.413 190.011  0.00  0.00    +0.002 C 
ATOM     61  H   UNL     1     141.956 167.168 189.518  0.00  0.00    +0.037 HD
BRANCH  60  62
ATOM     62  C   UNL     1     143.998 167.461 188.937  0.00  0.00    -0.057 C 
ATOM     63  H   UNL     1     144.854 168.060 189.260  0.00  0.00    +0.024 HD
ATOM     64  H   UNL     1     144.383 166.458 188.722  0.00  0.00    +0.024 HD
ATOM     65  H   UNL     1     143.626 167.893 188.002  0.00  0.00    +0.024 HD
ENDBRANCH  60  62
BRANCH  60  66
ATOM     66  C   UNL     1     142.646 168.772 190.664  0.00  0.00    -0.065 C 
ATOM     67  C   UNL     1     143.240 169.939 190.379  0.00  0.00    -0.005 C 
ATOM     68  H   UNL     1     141.885 168.712 191.438  0.00  0.00    +0.059 HD
ATOM     69  H   UNL     1     143.998 169.974 189.598  0.00  0.00    +0.078 HD
BRANCH  67  70
ATOM     70  N   UNL     1     143.008 171.168 190.982  0.00  0.00    -0.284 N 
ATOM     71  C   UNL     1     141.820 171.555 191.589  0.00  0.00    +0.206 C 
ATOM     72  O   UNL     1     141.599 172.634 192.130  0.00  0.00    -0.279 OA
ATOM     73  H   UNL     1     141.033 170.791 191.562  0.00  0.00    +0.126 HD
BRANCH  70  74
ATOM     74  C   UNL     1     144.106 172.129 190.971  0.00  0.00    +0.007 C 
ATOM     75  H   UNL     1     144.100 172.664 190.015  0.00  0.00    +0.043 HD
ATOM     76  H   UNL     1     145.080 171.646 191.094  0.00  0.00    +0.043 HD
ATOM     77  H   UNL     1     143.960 172.840 191.791  0.00  0.00    +0.043 HD
ENDBRANCH  70  74
ENDBRANCH  67  70
ENDBRANCH  60  66
ENDBRANCH  58  60
BRANCH  58  78
ATOM     78  O   UNL     1     143.862 165.220 190.486  0.00  0.00    -0.379 OA
BRANCH  78  79
ATOM     79  C   UNL     1     142.960 164.217 190.033  0.00  0.00    +0.037 C 
ATOM     80  H   UNL     1     143.504 163.337 189.673  0.00  0.00    +0.052 HD
ATOM     81  H   UNL     1     142.311 164.605 189.242  0.00  0.00    +0.052 HD
ATOM     82  H   UNL     1     142.336 163.914 190.875  0.00  0.00    +0.052 HD
ENDBRANCH  78  79
ENDBRANCH  58  78
ENDBRANCH  52  58
ENDBRANCH  50  52
BRANCH  50  83
ATOM     83  O   UNL     1     145.978 166.683 193.827  0.00  0.00    -0.459 OA
BRANCH  83  85
ATOM     84  O   UNL     1     146.216 164.659 194.888  0.00  0.00    -0.248 OA
ATOM     85  C   UNL     1     146.648 165.765 194.592  0.00  0.00    +0.337 C 
BRANCH  85  86
ATOM     86  C   UNL     1     148.026 166.315 194.976  0.00  0.00    +0.155 C 
ATOM     87  O   UNL     1     149.081 165.825 194.129  0.00  0.00    -0.365 OA
ATOM     88  C   UNL     1     150.079 165.206 194.949  0.00  0.00    +0.049 C 
ATOM     89  C   UNL     1     149.906 165.800 196.327  0.00  0.00    -0.027 C 
ATOM     90  C   UNL     1     148.409 165.954 196.406  0.00  0.00    -0.014 C 
ATOM     91  H   UNL     1     148.001 167.403 194.836  0.00  0.00    +0.071 HD
ATOM     92  H   UNL     1     149.897 164.124 194.954  0.00  0.00    +0.056 HD
ATOM     93  H   UNL     1     151.071 165.394 194.528  0.00  0.00    +0.056 HD
ATOM     94  H   UNL     1     150.381 166.788 196.372  0.00  0.00    +0.029 HD
ATOM     95  H   UNL     1     150.326 165.174 197.121  0.00  0.00    +0.029 HD
ATOM     96  H   UNL     1     148.101 166.721 197.124  0.00  0.00    +0.030 HD
ATOM     97  H   UNL     1     147.950 165.005 196.711  0.00  0.00    +0.030 HD
ENDBRANCH  85  86
ENDBRANCH  83  85
ENDBRANCH  50  83
ENDBRANCH   1  50
TORSDOF 31
ENDMDL
MODEL 2
REMARK VINA RESULT:      -5.2      2.891      8.537
REMARK  Name = 2u_conf2
REMARK  31 active torsions:
REMARK  status: ('A' for Active; 'I' for Inactive)
REMARK    1  A    between atoms: C_2  and  C_3
REMARK    2  A    between atoms: C_2  and  O_8
REMARK    3  A    between atoms: O_8  and  C_9
REMARK    4  A    between atoms: C_9  and  C_10
REMARK    5  A    between atoms: C_9  and  C_29
REMARK    6  A    between atoms: C_10  and  C_11
REMARK    7  A    between atoms: C_11  and  C_12
REMARK    8  A    between atoms: C_12  and  C_13
REMARK    9  A    between atoms: C_12  and  C_14
REMARK   10  A    between atoms: C_14  and  O_15
REMARK   11  A    between atoms: C_14  and  C_17
REMARK   12  A    between atoms: O_15  and  C_16
REMARK   13  A    between atoms: C_17  and  C_18
REMARK   14  A    between atoms: C_18  and  O_19
REMARK   15  A    between atoms: C_18  and  C_26
REMARK   16  A    between atoms: O_19  and  C_20
REMARK   17  A    between atoms: C_20  and  C_21
REMARK   18  A    between atoms: C_21  and  C_22
REMARK   19  A    between atoms: C_22  and  C_23
REMARK   20  A    between atoms: C_23  and  N_24
REMARK   21  A    between atoms: C_26  and  C_27
REMARK   22  A    between atoms: C_26  and  C_28
REMARK   23  A    between atoms: C_29  and  C_30
REMARK   24  A    between atoms: C_29  and  C_31
REMARK   25  A    between atoms: C_31  and  O_32
REMARK   26  A    between atoms: C_31  and  C_34
REMARK   27  A    between atoms: O_32  and  C_33
REMARK   28  A    between atoms: C_34  and  C_35
REMARK   29  A    between atoms: C_34  and  C_36
REMARK   30  A    between atoms: C_37  and  N_38
REMARK   31  A    between atoms: N_38  and  C_39
REMARK                            x       y       z     vdW  Elec       q    Type
REMARK                         _______ _______ _______ _____ _____    ______ ____
ROOT
ATOM      1  C   UNL     1     149.412 167.144 191.631  0.00  0.00    -0.015 C 
ATOM      2  H   UNL     1     149.453 166.074 191.829  0.00  0.00    +0.030 HD
ATOM      3  H   UNL     1     148.908 167.584 192.498  0.00  0.00    +0.030 HD
ENDROOT
BRANCH   1   4
ATOM      4  C   UNL     1     148.558 167.381 190.374  0.00  0.00    -0.045 C 
ATOM      5  H   UNL     1     149.206 167.419 189.492  0.00  0.00    +0.027 HD
ATOM      6  H   UNL     1     148.092 168.371 190.436  0.00  0.00    +0.027 HD
BRANCH   4   7
ATOM      7  C   UNL     1     147.441 166.338 190.144  0.00  0.00    -0.017 C 
ATOM      8  H   UNL     1     147.746 165.422 190.672  0.00  0.00    +0.032 HD
BRANCH   7   9
ATOM      9  C   UNL     1     147.372 165.953 188.657  0.00  0.00    -0.060 C 
ATOM     10  H   UNL     1     146.334 165.910 188.310  0.00  0.00    +0.023 HD
ATOM     11  H   UNL     1     147.807 164.962 188.487  0.00  0.00    +0.023 HD
ATOM     12  H   UNL     1     147.906 166.671 188.027  0.00  0.00    +0.023 HD
ENDBRANCH   7   9
BRANCH   7  13
ATOM     13  C   UNL     1     146.043 166.747 190.686  0.00  0.00    +0.064 C 
ATOM     14  H   UNL     1     146.109 167.727 191.174  0.00  0.00    +0.060 HD
BRANCH  13  15
ATOM     15  C   UNL     1     145.484 165.706 191.678  0.00  0.00    +0.011 C 
ATOM     16  H   UNL     1     144.683 165.149 191.182  0.00  0.00    +0.033 HD
ATOM     17  H   UNL     1     146.280 165.003 191.940  0.00  0.00    +0.033 HD
BRANCH  15  18
ATOM     18  C   UNL     1     144.941 166.344 192.970  0.00  0.00    +0.108 C 
ATOM     19  H   UNL     1     145.029 167.435 192.897  0.00  0.00    +0.074 HD
BRANCH  18  20
ATOM     20  C   UNL     1     143.462 165.988 193.276  0.00  0.00    -0.009 C 
ATOM     21  H   UNL     1     143.467 165.244 194.085  0.00  0.00    +0.033 HD
BRANCH  20  22
ATOM     22  C   UNL     1     142.668 167.195 193.777  0.00  0.00    -0.059 C 
ATOM     23  H   UNL     1     141.650 167.176 193.373  0.00  0.00    +0.023 HD
ATOM     24  H   UNL     1     143.123 168.141 193.470  0.00  0.00    +0.023 HD
ATOM     25  H   UNL     1     142.589 167.189 194.869  0.00  0.00    +0.023 HD
ENDBRANCH  20  22
BRANCH  20  26
ATOM     26  C   UNL     1     142.742 165.331 192.096  0.00  0.00    -0.059 C 
ATOM     27  H   UNL     1     143.067 165.780 191.152  0.00  0.00    +0.023 HD
ATOM     28  H   UNL     1     142.947 164.258 192.039  0.00  0.00    +0.023 HD
ATOM     29  H   UNL     1     141.659 165.469 192.165  0.00  0.00    +0.023 HD
ENDBRANCH  20  26
ENDBRANCH  18  20
BRANCH  18  30
ATOM     30  O   UNL     1     145.766 165.853 194.056  0.00  0.00    -0.461 OA
BRANCH  30  31
ATOM     31  C   UNL     1     146.900 166.555 194.338  0.00  0.00    +0.307 C 
ATOM     32  O   UNL     1     147.048 167.758 194.175  0.00  0.00    -0.251 OA
BRANCH  31  33
ATOM     33  C   UNL     1     147.930 165.614 194.917  0.00  0.00    +0.046 C 
ATOM     34  H   UNL     1     148.777 165.575 194.224  0.00  0.00    +0.038 HD
ATOM     35  H   UNL     1     147.473 164.621 194.984  0.00  0.00    +0.038 HD
BRANCH  33  36
ATOM     36  C   UNL     1     148.406 166.062 196.298  0.00  0.00    -0.031 C 
ATOM     37  H   UNL     1     148.103 167.101 196.474  0.00  0.00    +0.028 HD
ATOM     38  H   UNL     1     147.906 165.460 197.070  0.00  0.00    +0.028 HD
BRANCH  36  39
ATOM     39  C   UNL     1     149.915 165.918 196.493  0.00  0.00    -0.006 C 
ATOM     40  H   UNL     1     150.426 166.344 195.622  0.00  0.00    +0.042 HD
ATOM     41  H   UNL     1     150.241 166.487 197.371  0.00  0.00    +0.042 HD
BRANCH  39  42
ATOM     42  N   UNL     1     150.326 164.525 196.636  0.00  0.00    -0.330 NA
ATOM     43  H   UNL     1     149.555 163.906 196.389  0.00  0.00    +0.118 HD
ATOM     44  H   UNL     1     150.523 164.339 197.621  0.00  0.00    +0.118 HD
ENDBRANCH  39  42
ENDBRANCH  36  39
ENDBRANCH  33  36
ENDBRANCH  31  33
ENDBRANCH  30  31
ENDBRANCH  18  30
ENDBRANCH  15  18
ENDBRANCH  13  15
BRANCH  13  45
ATOM     45  O   UNL     1     145.135 166.802 189.572  0.00  0.00    -0.379 OA
BRANCH  45  46
ATOM     46  C   UNL     1     144.230 167.897 189.641  0.00  0.00    +0.037 C 
ATOM     47  H   UNL     1     143.434 167.638 190.345  0.00  0.00    +0.052 HD
ATOM     48  H   UNL     1     143.782 168.093 188.662  0.00  0.00    +0.052 HD
ATOM     49  H   UNL     1     144.741 168.793 190.004  0.00  0.00    +0.052 HD
ENDBRANCH  45  46
ENDBRANCH  13  45
ENDBRANCH   7  13
ENDBRANCH   4   7
ENDBRANCH   1   4
BRANCH   1  50
ATOM     50  C   UNL     1     150.831 167.746 191.499  0.00  0.00    +0.108 C 
ATOM     51  H   UNL     1     150.952 168.159 190.488  0.00  0.00    +0.074 HD
BRANCH  50  52
ATOM     52  C   UNL     1     152.034 166.775 191.691  0.00  0.00    +0.020 C 
ATOM     53  H   UNL     1     151.593 165.792 191.905  0.00  0.00    +0.036 HD
BRANCH  52  54
ATOM     54  C   UNL     1     152.823 167.155 192.954  0.00  0.00    -0.057 C 
ATOM     55  H   UNL     1     152.339 166.754 193.850  0.00  0.00    +0.023 HD
ATOM     56  H   UNL     1     152.909 168.237 193.074  0.00  0.00    +0.023 HD
ATOM     57  H   UNL     1     153.833 166.738 192.918  0.00  0.00    +0.023 HD
ENDBRANCH  52  54
BRANCH  52  58
ATOM     58  C   UNL     1     153.017 166.552 190.496  0.00  0.00    +0.070 C 
ATOM     59  H   UNL     1     153.516 167.517 190.316  0.00  0.00    +0.061 HD
BRANCH  58  60
ATOM     60  C   UNL     1     154.154 165.504 190.719  0.00  0.00    +0.002 C 
ATOM     61  H   UNL     1     154.324 165.384 191.796  0.00  0.00    +0.037 HD
BRANCH  60  62
ATOM     62  C   UNL     1     155.476 165.945 190.077  0.00  0.00    -0.057 C 
ATOM     63  H   UNL     1     156.322 165.797 190.754  0.00  0.00    +0.024 HD
ATOM     64  H   UNL     1     155.691 165.360 189.177  0.00  0.00    +0.024 HD
ATOM     65  H   UNL     1     155.455 167.005 189.801  0.00  0.00    +0.024 HD
ENDBRANCH  60  62
BRANCH  60  66
ATOM     66  C   UNL     1     153.696 164.120 190.257  0.00  0.00    -0.065 C 
ATOM     67  C   UNL     1     154.371 163.252 189.490  0.00  0.00    -0.005 C 
ATOM     68  H   UNL     1     152.703 163.877 190.627  0.00  0.00    +0.059 HD
ATOM     69  H   UNL     1     155.365 163.517 189.133  0.00  0.00    +0.078 HD
BRANCH  67  70
ATOM     70  N   UNL     1     153.945 162.000 189.066  0.00  0.00    -0.284 N 
ATOM     71  C   UNL     1     152.681 161.704 188.573  0.00  0.00    +0.206 C 
ATOM     72  O   UNL     1     152.289 160.606 188.191  0.00  0.00    -0.279 OA
ATOM     73  H   UNL     1     152.001 162.565 188.537  0.00  0.00    +0.126 HD
BRANCH  70  74
ATOM     74  C   UNL     1     154.911 160.909 189.151  0.00  0.00    +0.007 C 
ATOM     75  H   UNL     1     154.612 160.232 189.958  0.00  0.00    +0.043 HD
ATOM     76  H   UNL     1     155.924 161.268 189.354  0.00  0.00    +0.043 HD
ATOM     77  H   UNL     1     154.914 160.367 188.199  0.00  0.00    +0.043 HD
ENDBRANCH  70  74
ENDBRANCH  67  70
ENDBRANCH  60  66
ENDBRANCH  58  60
BRANCH  58  78
ATOM     78  O   UNL     1     152.270 166.183 189.326  0.00  0.00    -0.379 OA
BRANCH  78  79
ATOM     79  C   UNL     1     152.446 167.087 188.241  0.00  0.00    +0.037 C 
ATOM     80  H   UNL     1     153.132 166.671 187.495  0.00  0.00    +0.052 HD
ATOM     81  H   UNL     1     152.820 168.052 188.594  0.00  0.00    +0.052 HD
ATOM     82  H   UNL     1     151.476 167.244 187.766  0.00  0.00    +0.052 HD
ENDBRANCH  78  79
ENDBRANCH  58  78
ENDBRANCH  52  58
ENDBRANCH  50  52
BRANCH  50  83
ATOM     83  O   UNL     1     150.950 168.845 192.433  0.00  0.00    -0.459 OA
BRANCH  83  85
ATOM     84  O   UNL     1     151.906 170.558 191.238  0.00  0.00    -0.248 OA
ATOM     85  C   UNL     1     150.974 170.100 191.886  0.00  0.00    +0.337 C 
BRANCH  85  86
ATOM     86  C   UNL     1     149.648 170.816 192.168  0.00  0.00    +0.155 C 
ATOM     87  O   UNL     1     149.063 171.398 190.989  0.00  0.00    -0.365 OA
ATOM     88  C   UNL     1     148.849 172.795 191.224  0.00  0.00    +0.049 C 
ATOM     89  C   UNL     1     148.790 172.956 192.725  0.00  0.00    -0.027 C 
ATOM     90  C   UNL     1     149.810 171.944 193.180  0.00  0.00    -0.014 C 
ATOM     91  H   UNL     1     148.934 170.064 192.525  0.00  0.00    +0.071 HD
ATOM     92  H   UNL     1     149.694 173.349 190.796  0.00  0.00    +0.056 HD
ATOM     93  H   UNL     1     147.929 173.116 190.728  0.00  0.00    +0.056 HD
ATOM     94  H   UNL     1     147.797 172.670 193.095  0.00  0.00    +0.029 HD
ATOM     95  H   UNL     1     149.005 173.976 193.057  0.00  0.00    +0.029 HD
ATOM     96  H   UNL     1     149.641 171.606 194.207  0.00  0.00    +0.030 HD
ATOM     97  H   UNL     1     150.818 172.378 193.130  0.00  0.00    +0.030 HD
ENDBRANCH  85  86
ENDBRANCH  83  85
ENDBRANCH  50  83
ENDBRANCH   1  50
TORSDOF 31
ENDMDL
MODEL 3
REMARK VINA RESULT:      -5.1      2.083      5.711
REMARK  Name = 2u_conf2
REMARK  31 active torsions:
REMARK  status: ('A' for Active; 'I' for Inactive)
REMARK    1  A    between atoms: C_2  and  C_3
REMARK    2  A    between atoms: C_2  and  O_8
REMARK    3  A    between atoms: O_8  and  C_9
REMARK    4  A    between atoms: C_9  and  C_10
REMARK    5  A    between atoms: C_9  and  C_29
REMARK    6  A    between atoms: C_10  and  C_11
REMARK    7  A    between atoms: C_11  and  C_12
REMARK    8  A    between atoms: C_12  and  C_13
REMARK    9  A    between atoms: C_12  and  C_14
REMARK   10  A    between atoms: C_14  and  O_15
REMARK   11  A    between atoms: C_14  and  C_17
REMARK   12  A    between atoms: O_15  and  C_16
REMARK   13  A    between atoms: C_17  and  C_18
REMARK   14  A    between atoms: C_18  and  O_19
REMARK   15  A    between atoms: C_18  and  C_26
REMARK   16  A    between atoms: O_19  and  C_20
REMARK   17  A    between atoms: C_20  and  C_21
REMARK   18  A    between atoms: C_21  and  C_22
REMARK   19  A    between atoms: C_22  and  C_23
REMARK   20  A    between atoms: C_23  and  N_24
REMARK   21  A    between atoms: C_26  and  C_27
REMARK   22  A    between atoms: C_26  and  C_28
REMARK   23  A    between atoms: C_29  and  C_30
REMARK   24  A    between atoms: C_29  and  C_31
REMARK   25  A    between atoms: C_31  and  O_32
REMARK   26  A    between atoms: C_31  and  C_34
REMARK   27  A    between atoms: O_32  and  C_33
REMARK   28  A    between atoms: C_34  and  C_35
REMARK   29  A    between atoms: C_34  and  C_36
REMARK   30  A    between atoms: C_37  and  N_38
REMARK   31  A    between atoms: N_38  and  C_39
REMARK                            x       y       z     vdW  Elec       q    Type
REMARK                         _______ _______ _______ _____ _____    ______ ____
ROOT
ATOM      1  C   UNL     1     147.237 169.346 189.214  0.00  0.00    -0.015 C 
ATOM      2  H   UNL     1     146.989 168.698 188.374  0.00  0.00    +0.030 HD
ATOM      3  H   UNL     1     148.194 169.811 188.953  0.00  0.00    +0.030 HD
ENDROOT
BRANCH   1   4
ATOM      4  C   UNL     1     147.422 168.477 190.468  0.00  0.00    -0.045 C 
ATOM      5  H   UNL     1     146.466 168.389 190.996  0.00  0.00    +0.027 HD
ATOM      6  H   UNL     1     148.094 168.990 191.167  0.00  0.00    +0.027 HD
BRANCH   4   7
ATOM      7  C   UNL     1     147.992 167.065 190.202  0.00  0.00    -0.017 C 
ATOM      8  H   UNL     1     148.615 167.139 189.298  0.00  0.00    +0.032 HD
BRANCH   7   9
ATOM      9  C   UNL     1     146.857 166.093 189.843  0.00  0.00    -0.060 C 
ATOM     10  H   UNL     1     147.082 165.080 190.194  0.00  0.00    +0.023 HD
ATOM     11  H   UNL     1     146.721 166.031 188.757  0.00  0.00    +0.023 HD
ATOM     12  H   UNL     1     145.905 166.399 190.288  0.00  0.00    +0.023 HD
ENDBRANCH   7   9
BRANCH   7  13
ATOM     13  C   UNL     1     148.884 166.496 191.340  0.00  0.00    +0.064 C 
ATOM     14  H   UNL     1     148.580 165.467 191.567  0.00  0.00    +0.060 HD
BRANCH  13  15
ATOM     15  C   UNL     1     148.805 167.358 192.618  0.00  0.00    +0.011 C 
ATOM     16  H   UNL     1     149.749 167.900 192.729  0.00  0.00    +0.033 HD
ATOM     17  H   UNL     1     148.000 168.089 192.502  0.00  0.00    +0.033 HD
BRANCH  15  18
ATOM     18  C   UNL     1     148.540 166.524 193.885  0.00  0.00    +0.108 C 
ATOM     19  H   UNL     1     148.679 167.158 194.768  0.00  0.00    +0.074 HD
BRANCH  18  20
ATOM     20  C   UNL     1     147.121 165.899 193.944  0.00  0.00    -0.009 C 
ATOM     21  H   UNL     1     147.128 165.013 193.294  0.00  0.00    +0.033 HD
BRANCH  20  22
ATOM     22  C   UNL     1     146.755 165.425 195.351  0.00  0.00    -0.059 C 
ATOM     23  H   UNL     1     146.475 164.366 195.336  0.00  0.00    +0.023 HD
ATOM     24  H   UNL     1     145.907 165.980 195.763  0.00  0.00    +0.023 HD
ATOM     25  H   UNL     1     147.602 165.533 196.035  0.00  0.00    +0.023 HD
ENDBRANCH  20  22
BRANCH  20  26
ATOM     26  C   UNL     1     146.030 166.822 193.395  0.00  0.00    -0.059 C 
ATOM     27  H   UNL     1     146.470 167.598 192.759  0.00  0.00    +0.023 HD
ATOM     28  H   UNL     1     145.299 166.277 192.790  0.00  0.00    +0.023 HD
ATOM     29  H   UNL     1     145.495 167.330 194.203  0.00  0.00    +0.023 HD
ENDBRANCH  20  26
ENDBRANCH  18  20
BRANCH  18  30
ATOM     30  O   UNL     1     149.514 165.451 193.889  0.00  0.00    -0.461 OA
BRANCH  30  31
ATOM     31  C   UNL     1     150.736 165.726 194.427  0.00  0.00    +0.307 C 
ATOM     32  O   UNL     1     151.776 165.854 193.797  0.00  0.00    -0.251 OA
BRANCH  31  33
ATOM     33  C   UNL     1     150.591 165.880 195.923  0.00  0.00    +0.046 C 
ATOM     34  H   UNL     1     149.886 166.698 196.110  0.00  0.00    +0.038 HD
ATOM     35  H   UNL     1     151.572 166.152 196.326  0.00  0.00    +0.038 HD
BRANCH  33  36
ATOM     36  C   UNL     1     150.091 164.599 196.587  0.00  0.00    -0.031 C 
ATOM     37  H   UNL     1     149.645 164.837 197.560  0.00  0.00    +0.028 HD
ATOM     38  H   UNL     1     149.288 164.161 195.978  0.00  0.00    +0.028 HD
BRANCH  36  39
ATOM     39  C   UNL     1     151.183 163.541 196.758  0.00  0.00    -0.006 C 
ATOM     40  H   UNL     1     152.153 163.995 196.528  0.00  0.00    +0.042 HD
ATOM     41  H   UNL     1     151.221 163.200 197.798  0.00  0.00    +0.042 HD
BRANCH  39  42
ATOM     42  N   UNL     1     150.986 162.395 195.877  0.00  0.00    -0.330 NA
ATOM     43  H   UNL     1     151.621 161.642 196.135  0.00  0.00    +0.118 HD
ATOM     44  H   UNL     1     151.246 162.660 194.926  0.00  0.00    +0.118 HD
ENDBRANCH  39  42
ENDBRANCH  36  39
ENDBRANCH  33  36
ENDBRANCH  31  33
ENDBRANCH  30  31
ENDBRANCH  18  30
ENDBRANCH  15  18
ENDBRANCH  13  15
BRANCH  13  45
ATOM     45  O   UNL     1     150.249 166.528 190.890  0.00  0.00    -0.379 OA
BRANCH  45  46
ATOM     46  C   UNL     1     150.874 167.791 191.085  0.00  0.00    +0.037 C 
ATOM     47  H   UNL     1     150.227 168.397 191.724  0.00  0.00    +0.052 HD
ATOM     48  H   UNL     1     151.008 168.309 190.130  0.00  0.00    +0.052 HD
ATOM     49  H   UNL     1     151.841 167.667 191.581  0.00  0.00    +0.052 HD
ENDBRANCH  45  46
ENDBRANCH  13  45
ENDBRANCH   7  13
ENDBRANCH   4   7
ENDBRANCH   1   4
BRANCH   1  50
ATOM     50  C   UNL     1     146.168 170.445 189.411  0.00  0.00    +0.108 C 
ATOM     51  H   UNL     1     145.564 170.202 190.296  0.00  0.00    +0.074 HD
BRANCH  50  52
ATOM     52  C   UNL     1     145.139 170.651 188.259  0.00  0.00    +0.020 C 
ATOM     53  H   UNL     1     145.532 170.083 187.405  0.00  0.00    +0.036 HD
BRANCH  52  54
ATOM     54  C   UNL     1     145.137 172.120 187.809  0.00  0.00    -0.057 C 
ATOM     55  H   UNL     1     145.716 172.246 186.889  0.00  0.00    +0.023 HD
ATOM     56  H   UNL     1     145.562 172.782 188.567  0.00  0.00    +0.023 HD
ATOM     57  H   UNL     1     144.118 172.458 187.600  0.00  0.00    +0.023 HD
ENDBRANCH  52  54
BRANCH  52  58
ATOM     58  C   UNL     1     143.672 170.154 188.465  0.00  0.00    +0.070 C 
ATOM     59  H   UNL     1     143.023 170.855 187.916  0.00  0.00    +0.061 HD
BRANCH  58  60
ATOM     60  C   UNL     1     143.339 168.728 187.920  0.00  0.00    +0.002 C 
ATOM     61  H   UNL     1     144.097 168.442 187.181  0.00  0.00    +0.037 HD
BRANCH  60  62
ATOM     62  C   UNL     1     141.967 168.681 187.233  0.00  0.00    -0.057 C 
ATOM     63  H   UNL     1     142.061 168.703 186.144  0.00  0.00    +0.024 HD
ATOM     64  H   UNL     1     141.433 167.758 187.482  0.00  0.00    +0.024 HD
ATOM     65  H   UNL     1     141.341 169.531 187.528  0.00  0.00    +0.024 HD
ENDBRANCH  60  62
BRANCH  60  66
ATOM     66  C   UNL     1     143.488 167.688 189.031  0.00  0.00    -0.065 C 
ATOM     67  C   UNL     1     142.590 166.770 189.415  0.00  0.00    -0.005 C 
ATOM     68  H   UNL     1     144.454 167.758 189.525  0.00  0.00    +0.059 HD
ATOM     69  H   UNL     1     141.630 166.718 188.903  0.00  0.00    +0.078 HD
BRANCH  67  70
ATOM     70  N   UNL     1     142.728 165.835 190.431  0.00  0.00    -0.284 N 
ATOM     71  C   UNL     1     142.391 166.037 191.763  0.00  0.00    +0.206 C 
ATOM     72  O   UNL     1     142.503 165.222 192.673  0.00  0.00    -0.279 OA
ATOM     73  H   UNL     1     141.988 167.035 191.976  0.00  0.00    +0.126 HD
BRANCH  70  74
ATOM     74  C   UNL     1     143.277 164.533 190.062  0.00  0.00    +0.007 C 
ATOM     75  H   UNL     1     144.336 164.653 189.810  0.00  0.00    +0.043 HD
ATOM     76  H   UNL     1     142.761 164.095 189.203  0.00  0.00    +0.043 HD
ATOM     77  H   UNL     1     143.177 163.855 190.916  0.00  0.00    +0.043 HD
ENDBRANCH  70  74
ENDBRANCH  67  70
ENDBRANCH  60  66
ENDBRANCH  58  60
BRANCH  58  78
ATOM     78  O   UNL     1     143.343 170.204 189.863  0.00  0.00    -0.379 OA
BRANCH  78  79
ATOM     79  C   UNL     1     142.317 171.143 190.163  0.00  0.00    +0.037 C 
ATOM     80  H   UNL     1     141.776 171.433 189.256  0.00  0.00    +0.052 HD
ATOM     81  H   UNL     1     142.730 172.030 190.652  0.00  0.00    +0.052 HD
ATOM     82  H   UNL     1     141.610 170.669 190.847  0.00  0.00    +0.052 HD
ENDBRANCH  78  79
ENDBRANCH  58  78
ENDBRANCH  52  58
ENDBRANCH  50  52
BRANCH  50  83
ATOM     83  O   UNL     1     146.843 171.697 189.678  0.00  0.00    -0.459 OA
BRANCH  83  85
ATOM     84  O   UNL     1     145.699 172.233 191.597  0.00  0.00    -0.248 OA
ATOM     85  C   UNL     1     146.741 172.176 190.958  0.00  0.00    +0.337 C 
BRANCH  85  86
ATOM     86  C   UNL     1     148.127 172.578 191.474  0.00  0.00    +0.155 C 
ATOM     87  O   UNL     1     149.144 171.609 191.165  0.00  0.00    -0.365 OA
ATOM     88  C   UNL     1     149.781 171.206 192.383  0.00  0.00    +0.049 C 
ATOM     89  C   UNL     1     149.534 172.326 193.367  0.00  0.00    -0.027 C 
ATOM     90  C   UNL     1     148.143 172.763 192.987  0.00  0.00    -0.014 C 
ATOM     91  H   UNL     1     148.418 173.502 190.960  0.00  0.00    +0.071 HD
ATOM     92  H   UNL     1     149.318 170.270 192.719  0.00  0.00    +0.056 HD
ATOM     93  H   UNL     1     150.844 171.028 192.203  0.00  0.00    +0.056 HD
ATOM     94  H   UNL     1     150.240 173.146 193.187  0.00  0.00    +0.029 HD
ATOM     95  H   UNL     1     149.625 172.010 194.411  0.00  0.00    +0.029 HD
ATOM     96  H   UNL     1     147.930 173.796 193.280  0.00  0.00    +0.030 HD
ATOM     97  H   UNL     1     147.400 172.116 193.472  0.00  0.00    +0.030 HD
ENDBRANCH  85  86
ENDBRANCH  83  85
ENDBRANCH  50  83
ENDBRANCH   1  50
TORSDOF 31
ENDMDL
MODEL 4
REMARK VINA RESULT:      -5.1      3.442      7.326
REMARK  Name = 2u_conf2
REMARK  31 active torsions:
REMARK  status: ('A' for Active; 'I' for Inactive)
REMARK    1  A    between atoms: C_2  and  C_3
REMARK    2  A    between atoms: C_2  and  O_8
REMARK    3  A    between atoms: O_8  and  C_9
REMARK    4  A    between atoms: C_9  and  C_10
REMARK    5  A    between atoms: C_9  and  C_29
REMARK    6  A    between atoms: C_10  and  C_11
REMARK    7  A    between atoms: C_11  and  C_12
REMARK    8  A    between atoms: C_12  and  C_13
REMARK    9  A    between atoms: C_12  and  C_14
REMARK   10  A    between atoms: C_14  and  O_15
REMARK   11  A    between atoms: C_14  and  C_17
REMARK   12  A    between atoms: O_15  and  C_16
REMARK   13  A    between atoms: C_17  and  C_18
REMARK   14  A    between atoms: C_18  and  O_19
REMARK   15  A    between atoms: C_18  and  C_26
REMARK   16  A    between atoms: O_19  and  C_20
REMARK   17  A    between atoms: C_20  and  C_21
REMARK   18  A    between atoms: C_21  and  C_22
REMARK   19  A    between atoms: C_22  and  C_23
REMARK   20  A    between atoms: C_23  and  N_24
REMARK   21  A    between atoms: C_26  and  C_27
REMARK   22  A    between atoms: C_26  and  C_28
REMARK   23  A    between atoms: C_29  and  C_30
REMARK   24  A    between atoms: C_29  and  C_31
REMARK   25  A    between atoms: C_31  and  O_32
REMARK   26  A    between atoms: C_31  and  C_34
REMARK   27  A    between atoms: O_32  and  C_33
REMARK   28  A    between atoms: C_34  and  C_35
REMARK   29  A    between atoms: C_34  and  C_36
REMARK   30  A    between atoms: C_37  and  N_38
REMARK   31  A    between atoms: N_38  and  C_39
REMARK                            x       y       z     vdW  Elec       q    Type
REMARK                         _______ _______ _______ _____ _____    ______ ____
ROOT
ATOM      1  C   UNL     1     150.667 167.520 192.743  0.00  0.00    -0.015 C 
ATOM      2  H   UNL     1     151.465 168.135 192.327  0.00  0.00    +0.030 HD
ATOM      3  H   UNL     1     150.635 167.763 193.810  0.00  0.00    +0.030 HD
ENDROOT
BRANCH   1   4
ATOM      4  C   UNL     1     151.044 166.040 192.570  0.00  0.00    -0.045 C 
ATOM      5  H   UNL     1     150.496 165.619 191.720  0.00  0.00    +0.027 HD
ATOM      6  H   UNL     1     150.701 165.475 193.446  0.00  0.00    +0.027 HD
BRANCH   4   7
ATOM      7  C   UNL     1     152.555 165.772 192.389  0.00  0.00    -0.017 C 
ATOM      8  H   UNL     1     152.816 164.944 193.066  0.00  0.00    +0.032 HD
BRANCH   7   9
ATOM      9  C   UNL     1     153.371 166.978 192.881  0.00  0.00    -0.060 C 
ATOM     10  H   UNL     1     154.282 167.106 192.286  0.00  0.00    +0.023 HD
ATOM     11  H   UNL     1     153.687 166.842 193.921  0.00  0.00    +0.023 HD
ATOM     12  H   UNL     1     152.798 167.909 192.819  0.00  0.00    +0.023 HD
ENDBRANCH   7   9
BRANCH   7  13
ATOM     13  C   UNL     1     152.976 165.354 190.953  0.00  0.00    +0.064 C 
ATOM     14  H   UNL     1     153.833 164.671 191.004  0.00  0.00    +0.060 HD
BRANCH  13  15
ATOM     15  C   UNL     1     153.334 166.575 190.080  0.00  0.00    +0.011 C 
ATOM     16  H   UNL     1     152.547 166.709 189.331  0.00  0.00    +0.033 HD
ATOM     17  H   UNL     1     153.360 167.467 190.713  0.00  0.00    +0.033 HD
BRANCH  15  18
ATOM     18  C   UNL     1     154.695 166.427 189.375  0.00  0.00    +0.108 C 
ATOM     19  H   UNL     1     155.099 167.423 189.161  0.00  0.00    +0.074 HD
BRANCH  18  20
ATOM     20  C   UNL     1     155.746 165.632 190.193  0.00  0.00    -0.009 C 
ATOM     21  H   UNL     1     155.199 165.041 190.939  0.00  0.00    +0.033 HD
BRANCH  20  22
ATOM     22  C   UNL     1     156.531 164.647 189.324  0.00  0.00    -0.059 C 
ATOM     23  H   UNL     1     157.427 164.304 189.852  0.00  0.00    +0.023 HD
ATOM     24  H   UNL     1     156.860 165.101 188.385  0.00  0.00    +0.023 HD
ATOM     25  H   UNL     1     155.929 163.765 189.088  0.00  0.00    +0.023 HD
ENDBRANCH  20  22
BRANCH  20  26
ATOM     26  C   UNL     1     156.707 166.528 190.978  0.00  0.00    -0.059 C 
ATOM     27  H   UNL     1     157.056 167.356 190.350  0.00  0.00    +0.023 HD
ATOM     28  H   UNL     1     156.229 166.964 191.861  0.00  0.00    +0.023 HD
ATOM     29  H   UNL     1     157.591 165.974 191.305  0.00  0.00    +0.023 HD
ENDBRANCH  20  26
ENDBRANCH  18  20
BRANCH  18  30
ATOM     30  O   UNL     1     154.446 165.718 188.135  0.00  0.00    -0.461 OA
BRANCH  30  31
ATOM     31  C   UNL     1     154.270 166.474 187.014  0.00  0.00    +0.307 C 
ATOM     32  O   UNL     1     154.509 167.670 186.921  0.00  0.00    -0.251 OA
BRANCH  31  33
ATOM     33  C   UNL     1     153.765 165.590 185.899  0.00  0.00    +0.046 C 
ATOM     34  H   UNL     1     154.221 165.934 184.964  0.00  0.00    +0.038 HD
ATOM     35  H   UNL     1     152.680 165.718 185.838  0.00  0.00    +0.038 HD
BRANCH  33  36
ATOM     36  C   UNL     1     154.104 164.119 186.134  0.00  0.00    -0.031 C 
ATOM     37  H   UNL     1     155.126 163.916 185.792  0.00  0.00    +0.028 HD
ATOM     38  H   UNL     1     154.092 163.909 187.212  0.00  0.00    +0.028 HD
BRANCH  36  39
ATOM     39  C   UNL     1     153.127 163.158 185.456  0.00  0.00    -0.006 C 
ATOM     40  H   UNL     1     153.257 163.229 184.370  0.00  0.00    +0.042 HD
ATOM     41  H   UNL     1     153.350 162.124 185.743  0.00  0.00    +0.042 HD
BRANCH  39  42
ATOM     42  N   UNL     1     151.737 163.462 185.778  0.00  0.00    -0.330 NA
ATOM     43  H   UNL     1     151.670 163.835 186.723  0.00  0.00    +0.118 HD
ATOM     44  H   UNL     1     151.202 162.593 185.787  0.00  0.00    +0.118 HD
ENDBRANCH  39  42
ENDBRANCH  36  39
ENDBRANCH  33  36
ENDBRANCH  31  33
ENDBRANCH  30  31
ENDBRANCH  18  30
ENDBRANCH  15  18
ENDBRANCH  13  15
BRANCH  13  45
ATOM     45  O   UNL     1     151.853 164.704 190.334  0.00  0.00    -0.379 OA
BRANCH  45  46
ATOM     46  C   UNL     1     152.231 163.693 189.408  0.00  0.00    +0.037 C 
ATOM     47  H   UNL     1     151.321 163.246 188.999  0.00  0.00    +0.052 HD
ATOM     48  H   UNL     1     152.814 162.911 189.904  0.00  0.00    +0.052 HD
ATOM     49  H   UNL     1     152.809 164.125 188.586  0.00  0.00    +0.052 HD
ENDBRANCH  45  46
ENDBRANCH  13  45
ENDBRANCH   7  13
ENDBRANCH   4   7
ENDBRANCH   1   4
BRANCH   1  50
ATOM     50  C   UNL     1     149.303 167.859 192.097  0.00  0.00    +0.108 C 
ATOM     51  H   UNL     1     148.596 168.152 192.886  0.00  0.00    +0.074 HD
BRANCH  50  52
ATOM     52  C   UNL     1     148.587 166.719 191.311  0.00  0.00    +0.020 C 
ATOM     53  H   UNL     1     149.034 165.782 191.672  0.00  0.00    +0.036 HD
BRANCH  52  54
ATOM     54  C   UNL     1     148.950 166.798 189.820  0.00  0.00    -0.057 C 
ATOM     55  H   UNL     1     150.036 166.794 189.683  0.00  0.00    +0.023 HD
ATOM     56  H   UNL     1     148.555 167.701 189.349  0.00  0.00    +0.023 HD
ATOM     57  H   UNL     1     148.553 165.934 189.279  0.00  0.00    +0.023 HD
ENDBRANCH  52  54
BRANCH  52  58
ATOM     58  C   UNL     1     147.043 166.549 191.475  0.00  0.00    +0.070 C 
ATOM     59  H   UNL     1     146.675 166.101 190.539  0.00  0.00    +0.061 HD
BRANCH  58  60
ATOM     60  C   UNL     1     146.567 165.608 192.629  0.00  0.00    +0.002 C 
ATOM     61  H   UNL     1     146.569 164.572 192.270  0.00  0.00    +0.037 HD
BRANCH  60  62
ATOM     62  C   UNL     1     145.145 165.945 193.096  0.00  0.00    -0.057 C 
ATOM     63  H   UNL     1     144.856 166.959 192.807  0.00  0.00    +0.024 HD
ATOM     64  H   UNL     1     144.411 165.270 192.643  0.00  0.00    +0.024 HD
ATOM     65  H   UNL     1     145.052 165.873 194.185  0.00  0.00    +0.024 HD
ENDBRANCH  60  62
BRANCH  60  66
ATOM     66  C   UNL     1     147.588 165.611 193.768  0.00  0.00    -0.065 C 
ATOM     67  C   UNL     1     147.435 166.121 194.998  0.00  0.00    -0.005 C 
ATOM     68  H   UNL     1     148.519 165.129 193.479  0.00  0.00    +0.059 HD
ATOM     69  H   UNL     1     146.493 166.596 195.264  0.00  0.00    +0.078 HD
BRANCH  67  70
ATOM     70  N   UNL     1     148.369 166.128 196.025  0.00  0.00    -0.284 N 
ATOM     71  C   UNL     1     149.641 165.572 195.961  0.00  0.00    +0.206 C 
ATOM     72  O   UNL     1     150.480 165.573 196.855  0.00  0.00    -0.279 OA
ATOM     73  H   UNL     1     149.875 165.101 194.998  0.00  0.00    +0.126 HD
BRANCH  70  74
ATOM     74  C   UNL     1     147.975 166.772 197.274  0.00  0.00    +0.007 C 
ATOM     75  H   UNL     1     147.403 166.059 197.876  0.00  0.00    +0.043 HD
ATOM     76  H   UNL     1     147.358 167.660 197.105  0.00  0.00    +0.043 HD
ATOM     77  H   UNL     1     148.879 167.070 197.816  0.00  0.00    +0.043 HD
ENDBRANCH  70  74
ENDBRANCH  67  70
ENDBRANCH  60  66
ENDBRANCH  58  60
BRANCH  58  78
ATOM     78  O   UNL     1     146.436 167.839 191.650  0.00  0.00    -0.379 OA
BRANCH  78  79
ATOM     79  C   UNL     1     145.782 168.314 190.479  0.00  0.00    +0.037 C 
ATOM     80  H   UNL     1     144.702 168.394 190.640  0.00  0.00    +0.052 HD
ATOM     81  H   UNL     1     145.986 167.659 189.626  0.00  0.00    +0.052 HD
ATOM     82  H   UNL     1     146.170 169.308 190.251  0.00  0.00    +0.052 HD
ENDBRANCH  78  79
ENDBRANCH  58  78
ENDBRANCH  52  58
ENDBRANCH  50  52
BRANCH  50  83
ATOM     83  O   UNL     1     149.480 169.001 191.227  0.00  0.00    -0.459 OA
BRANCH  83  85
ATOM     84  O   UNL     1     151.044 170.607 191.727  0.00  0.00    -0.248 OA
ATOM     85  C   UNL     1     149.912 170.154 191.827  0.00  0.00    +0.337 C 
BRANCH  85  86
ATOM     86  C   UNL     1     148.756 170.805 192.595  0.00  0.00    +0.155 C 
ATOM     87  O   UNL     1     147.583 170.999 191.786  0.00  0.00    -0.365 OA
ATOM     88  C   UNL     1     147.222 172.385 191.825  0.00  0.00    +0.049 C 
ATOM     89  C   UNL     1     147.838 172.936 193.089  0.00  0.00    -0.027 C 
ATOM     90  C   UNL     1     149.136 172.171 193.152  0.00  0.00    -0.014 C 
ATOM     91  H   UNL     1     148.463 170.118 193.399  0.00  0.00    +0.071 HD
ATOM     92  H   UNL     1     147.634 172.873 190.933  0.00  0.00    +0.056 HD
ATOM     93  H   UNL     1     146.132 172.483 191.808  0.00  0.00    +0.056 HD
ATOM     94  H   UNL     1     147.216 172.676 193.954  0.00  0.00    +0.029 HD
ATOM     95  H   UNL     1     147.969 174.022 193.066  0.00  0.00    +0.029 HD
ATOM     96  H   UNL     1     149.539 172.108 194.168  0.00  0.00    +0.030 HD
ATOM     97  H   UNL     1     149.890 172.660 192.520  0.00  0.00    +0.030 HD
ENDBRANCH  85  86
ENDBRANCH  83  85
ENDBRANCH  50  83
ENDBRANCH   1  50
TORSDOF 31
ENDMDL
MODEL 5
REMARK VINA RESULT:      -5.0      3.018      6.658
REMARK  Name = 2u_conf2
REMARK  31 active torsions:
REMARK  status: ('A' for Active; 'I' for Inactive)
REMARK    1  A    between atoms: C_2  and  C_3
REMARK    2  A    between atoms: C_2  and  O_8
REMARK    3  A    between atoms: O_8  and  C_9
REMARK    4  A    between atoms: C_9  and  C_10
REMARK    5  A    between atoms: C_9  and  C_29
REMARK    6  A    between atoms: C_10  and  C_11
REMARK    7  A    between atoms: C_11  and  C_12
REMARK    8  A    between atoms: C_12  and  C_13
REMARK    9  A    between atoms: C_12  and  C_14
REMARK   10  A    between atoms: C_14  and  O_15
REMARK   11  A    between atoms: C_14  and  C_17
REMARK   12  A    between atoms: O_15  and  C_16
REMARK   13  A    between atoms: C_17  and  C_18
REMARK   14  A    between atoms: C_18  and  O_19
REMARK   15  A    between atoms: C_18  and  C_26
REMARK   16  A    between atoms: O_19  and  C_20
REMARK   17  A    between atoms: C_20  and  C_21
REMARK   18  A    between atoms: C_21  and  C_22
REMARK   19  A    between atoms: C_22  and  C_23
REMARK   20  A    between atoms: C_23  and  N_24
REMARK   21  A    between atoms: C_26  and  C_27
REMARK   22  A    between atoms: C_26  and  C_28
REMARK   23  A    between atoms: C_29  and  C_30
REMARK   24  A    between atoms: C_29  and  C_31
REMARK   25  A    between atoms: C_31  and  O_32
REMARK   26  A    between atoms: C_31  and  C_34
REMARK   27  A    between atoms: O_32  and  C_33
REMARK   28  A    between atoms: C_34  and  C_35
REMARK   29  A    between atoms: C_34  and  C_36
REMARK   30  A    between atoms: C_37  and  N_38
REMARK   31  A    between atoms: N_38  and  C_39
REMARK                            x       y       z     vdW  Elec       q    Type
REMARK                         _______ _______ _______ _____ _____    ______ ____
ROOT
ATOM      1  C   UNL     1     148.651 169.329 192.264  0.00  0.00    -0.015 C 
ATOM      2  H   UNL     1     149.224 170.255 192.268  0.00  0.00    +0.030 HD
ATOM      3  H   UNL     1     148.097 169.322 193.208  0.00  0.00    +0.030 HD
ENDROOT
BRANCH   1   4
ATOM      4  C   UNL     1     149.630 168.144 192.242  0.00  0.00    -0.045 C 
ATOM      5  H   UNL     1     149.458 167.542 191.343  0.00  0.00    +0.027 HD
ATOM      6  H   UNL     1     149.410 167.477 193.085  0.00  0.00    +0.027 HD
BRANCH   4   7
ATOM      7  C   UNL     1     151.124 168.535 192.317  0.00  0.00    -0.017 C 
ATOM      8  H   UNL     1     151.389 168.577 193.385  0.00  0.00    +0.032 HD
BRANCH   7   9
ATOM      9  C   UNL     1     151.326 169.963 191.786  0.00  0.00    -0.060 C 
ATOM     10  H   UNL     1     150.389 170.373 191.397  0.00  0.00    +0.023 HD
ATOM     11  H   UNL     1     152.048 169.978 190.962  0.00  0.00    +0.023 HD
ATOM     12  H   UNL     1     151.689 170.639 192.568  0.00  0.00    +0.023 HD
ENDBRANCH   7   9
BRANCH   7  13
ATOM     13  C   UNL     1     152.096 167.535 191.632  0.00  0.00    +0.064 C 
ATOM     14  H   UNL     1     153.132 167.837 191.824  0.00  0.00    +0.060 HD
BRANCH  13  15
ATOM     15  C   UNL     1     151.850 167.445 190.112  0.00  0.00    +0.011 C 
ATOM     16  H   UNL     1     150.784 167.263 189.942  0.00  0.00    +0.033 HD
ATOM     17  H   UNL     1     152.112 168.404 189.654  0.00  0.00    +0.033 HD
BRANCH  15  18
ATOM     18  C   UNL     1     152.674 166.332 189.438  0.00  0.00    +0.108 C 
ATOM     19  H   UNL     1     152.321 165.358 189.794  0.00  0.00    +0.074 HD
BRANCH  18  20
ATOM     20  C   UNL     1     152.606 166.347 187.888  0.00  0.00    -0.009 C 
ATOM     21  H   UNL     1     152.619 165.301 187.551  0.00  0.00    +0.033 HD
BRANCH  20  22
ATOM     22  C   UNL     1     151.308 166.971 187.372  0.00  0.00    -0.059 C 
ATOM     23  H   UNL     1     150.454 166.328 187.612  0.00  0.00    +0.023 HD
ATOM     24  H   UNL     1     151.320 167.104 186.286  0.00  0.00    +0.023 HD
ATOM     25  H   UNL     1     151.129 167.946 187.836  0.00  0.00    +0.023 HD
ENDBRANCH  20  22
BRANCH  20  26
ATOM     26  C   UNL     1     153.814 167.022 187.235  0.00  0.00    -0.059 C 
ATOM     27  H   UNL     1     153.873 168.074 187.534  0.00  0.00    +0.023 HD
ATOM     28  H   UNL     1     154.755 166.544 187.525  0.00  0.00    +0.023 HD
ATOM     29  H   UNL     1     153.741 166.999 186.144  0.00  0.00    +0.023 HD
ENDBRANCH  20  26
ENDBRANCH  18  20
BRANCH  18  30
ATOM     30  O   UNL     1     154.053 166.534 189.837  0.00  0.00    -0.461 OA
BRANCH  30  31
ATOM     31  C   UNL     1     154.732 165.443 190.291  0.00  0.00    +0.307 C 
ATOM     32  O   UNL     1     154.223 164.401 190.679  0.00  0.00    -0.251 OA
BRANCH  31  33
ATOM     33  C   UNL     1     156.216 165.716 190.203  0.00  0.00    +0.046 C 
ATOM     34  H   UNL     1     156.610 165.759 191.224  0.00  0.00    +0.038 HD
ATOM     35  H   UNL     1     156.347 166.691 189.725  0.00  0.00    +0.038 HD
BRANCH  33  36
ATOM     36  C   UNL     1     156.951 164.641 189.405  0.00  0.00    -0.031 C 
ATOM     37  H   UNL     1     157.973 164.976 189.189  0.00  0.00    +0.028 HD
ATOM     38  H   UNL     1     157.048 163.733 190.017  0.00  0.00    +0.028 HD
BRANCH  36  39
ATOM     39  C   UNL     1     156.241 164.261 188.106  0.00  0.00    -0.006 C 
ATOM     40  H   UNL     1     155.421 164.965 187.932  0.00  0.00    +0.042 HD
ATOM     41  H   UNL     1     156.929 164.347 187.257  0.00  0.00    +0.042 HD
BRANCH  39  42
ATOM     42  N   UNL     1     155.691 162.910 188.150  0.00  0.00    -0.330 NA
ATOM     43  H   UNL     1     155.168 162.773 189.013  0.00  0.00    +0.118 HD
ATOM     44  H   UNL     1     156.462 162.241 188.186  0.00  0.00    +0.118 HD
ENDBRANCH  39  42
ENDBRANCH  36  39
ENDBRANCH  33  36
ENDBRANCH  31  33
ENDBRANCH  30  31
ENDBRANCH  18  30
ENDBRANCH  15  18
ENDBRANCH  13  15
BRANCH  13  45
ATOM     45  O   UNL     1     151.845 166.229 192.180  0.00  0.00    -0.379 OA
BRANCH  45  46
ATOM     46  C   UNL     1     152.507 166.005 193.420  0.00  0.00    +0.037 C 
ATOM     47  H   UNL     1     153.501 165.602 193.209  0.00  0.00    +0.052 HD
ATOM     48  H   UNL     1     151.956 165.282 194.029  0.00  0.00    +0.052 HD
ATOM     49  H   UNL     1     152.619 166.946 193.967  0.00  0.00    +0.052 HD
ENDBRANCH  45  46
ENDBRANCH  13  45
ENDBRANCH   7  13
ENDBRANCH   4   7
ENDBRANCH   1   4
BRANCH   1  50
ATOM     50  C   UNL     1     147.654 169.289 191.082  0.00  0.00    +0.108 C 
ATOM     51  H   UNL     1     146.640 169.475 191.463  0.00  0.00    +0.074 HD
BRANCH  50  52
ATOM     52  C   UNL     1     147.553 167.955 190.283  0.00  0.00    +0.020 C 
ATOM     53  H   UNL     1     148.293 167.281 190.734  0.00  0.00    +0.036 HD
BRANCH  52  54
ATOM     54  C   UNL     1     148.021 168.170 188.836  0.00  0.00    -0.057 C 
ATOM     55  H   UNL     1     147.231 168.633 188.236  0.00  0.00    +0.023 HD
ATOM     56  H   UNL     1     148.305 167.233 188.353  0.00  0.00    +0.023 HD
ATOM     57  H   UNL     1     148.885 168.841 188.805  0.00  0.00    +0.023 HD
ENDBRANCH  52  54
BRANCH  52  58
ATOM     58  C   UNL     1     146.199 167.174 190.295  0.00  0.00    +0.070 C 
ATOM     59  H   UNL     1     145.848 167.137 189.252  0.00  0.00    +0.061 HD
BRANCH  58  60
ATOM     60  C   UNL     1     146.257 165.693 190.792  0.00  0.00    +0.002 C 
ATOM     61  H   UNL     1     147.257 165.289 190.596  0.00  0.00    +0.037 HD
BRANCH  60  62
ATOM     62  C   UNL     1     145.238 164.804 190.067  0.00  0.00    -0.057 C 
ATOM     63  H   UNL     1     144.662 165.370 189.329  0.00  0.00    +0.024 HD
ATOM     64  H   UNL     1     145.737 163.996 189.521  0.00  0.00    +0.024 HD
ATOM     65  H   UNL     1     144.525 164.355 190.768  0.00  0.00    +0.024 HD
ENDBRANCH  60  62
BRANCH  60  66
ATOM     66  C   UNL     1     146.122 165.640 192.314  0.00  0.00    -0.065 C 
ATOM     67  C   UNL     1     147.110 165.572 193.218  0.00  0.00    -0.005 C 
ATOM     68  H   UNL     1     145.082 165.663 192.630  0.00  0.00    +0.059 HD
ATOM     69  H   UNL     1     148.143 165.553 192.877  0.00  0.00    +0.078 HD
BRANCH  67  70
ATOM     70  N   UNL     1     146.980 165.515 194.599  0.00  0.00    -0.284 N 
ATOM     71  C   UNL     1     147.933 165.942 195.516  0.00  0.00    +0.206 C 
ATOM     72  O   UNL     1     147.834 165.903 196.738  0.00  0.00    -0.279 OA
ATOM     73  H   UNL     1     148.844 166.349 195.059  0.00  0.00    +0.126 HD
BRANCH  70  74
ATOM     74  C   UNL     1     145.739 164.956 195.125  0.00  0.00    +0.007 C 
ATOM     75  H   UNL     1     145.640 163.921 194.778  0.00  0.00    +0.043 HD
ATOM     76  H   UNL     1     144.860 165.519 194.797  0.00  0.00    +0.043 HD
ATOM     77  H   UNL     1     145.781 164.973 196.219  0.00  0.00    +0.043 HD
ENDBRANCH  70  74
ENDBRANCH  67  70
ENDBRANCH  60  66
ENDBRANCH  58  60
BRANCH  58  78
ATOM     78  O   UNL     1     145.240 167.891 191.089  0.00  0.00    -0.379 OA
BRANCH  78  79
ATOM     79  C   UNL     1     144.105 168.318 190.346  0.00  0.00    +0.037 C 
ATOM     80  H   UNL     1     144.095 169.407 190.239  0.00  0.00    +0.052 HD
ATOM     81  H   UNL     1     143.179 167.980 190.820  0.00  0.00    +0.052 HD
ATOM     82  H   UNL     1     144.163 167.876 189.349  0.00  0.00    +0.052 HD
ENDBRANCH  78  79
ENDBRANCH  58  78
ENDBRANCH  52  58
ENDBRANCH  50  52
BRANCH  50  83
ATOM     83  O   UNL     1     147.980 170.366 190.173  0.00  0.00    -0.459 OA
BRANCH  83  85
ATOM     84  O   UNL     1     145.965 171.137 189.385  0.00  0.00    -0.248 OA
ATOM     85  C   UNL     1     147.010 171.318 189.994  0.00  0.00    +0.337 C 
BRANCH  85  86
ATOM     86  C   UNL     1     147.413 172.612 190.709  0.00  0.00    +0.155 C 
ATOM     87  O   UNL     1     148.821 172.679 190.998  0.00  0.00    -0.365 OA
ATOM     88  C   UNL     1     148.992 172.891 192.404  0.00  0.00    +0.049 C 
ATOM     89  C   UNL     1     147.699 173.502 192.889  0.00  0.00    -0.027 C 
ATOM     90  C   UNL     1     146.685 172.784 192.036  0.00  0.00    -0.014 C 
ATOM     91  H   UNL     1     147.200 173.447 190.030  0.00  0.00    +0.071 HD
ATOM     92  H   UNL     1     149.177 171.919 192.878  0.00  0.00    +0.056 HD
ATOM     93  H   UNL     1     149.857 173.538 192.577  0.00  0.00    +0.056 HD
ATOM     94  H   UNL     1     147.680 174.575 192.658  0.00  0.00    +0.029 HD
ATOM     95  H   UNL     1     147.539 173.375 193.964  0.00  0.00    +0.029 HD
ATOM     96  H   UNL     1     145.751 173.345 191.928  0.00  0.00    +0.030 HD
ATOM     97  H   UNL     1     146.441 171.810 192.483  0.00  0.00    +0.030 HD
ENDBRANCH  85  86
ENDBRANCH  83  85
ENDBRANCH  50  83
ENDBRANCH   1  50
TORSDOF 31
ENDMDL
MODEL 6
REMARK VINA RESULT:      -5.0      1.691      2.111
REMARK  Name = 2u_conf2
REMARK  31 active torsions:
REMARK  status: ('A' for Active; 'I' for Inactive)
REMARK    1  A    between atoms: C_2  and  C_3
REMARK    2  A    between atoms: C_2  and  O_8
REMARK    3  A    between atoms: O_8  and  C_9
REMARK    4  A    between atoms: C_9  and  C_10
REMARK    5  A    between atoms: C_9  and  C_29
REMARK    6  A    between atoms: C_10  and  C_11
REMARK    7  A    between atoms: C_11  and  C_12
REMARK    8  A    between atoms: C_12  and  C_13
REMARK    9  A    between atoms: C_12  and  C_14
REMARK   10  A    between atoms: C_14  and  O_15
REMARK   11  A    between atoms: C_14  and  C_17
REMARK   12  A    between atoms: O_15  and  C_16
REMARK   13  A    between atoms: C_17  and  C_18
REMARK   14  A    between atoms: C_18  and  O_19
REMARK   15  A    between atoms: C_18  and  C_26
REMARK   16  A    between atoms: O_19  and  C_20
REMARK   17  A    between atoms: C_20  and  C_21
REMARK   18  A    between atoms: C_21  and  C_22
REMARK   19  A    between atoms: C_22  and  C_23
REMARK   20  A    between atoms: C_23  and  N_24
REMARK   21  A    between atoms: C_26  and  C_27
REMARK   22  A    between atoms: C_26  and  C_28
REMARK   23  A    between atoms: C_29  and  C_30
REMARK   24  A    between atoms: C_29  and  C_31
REMARK   25  A    between atoms: C_31  and  O_32
REMARK   26  A    between atoms: C_31  and  C_34
REMARK   27  A    between atoms: O_32  and  C_33
REMARK   28  A    between atoms: C_34  and  C_35
REMARK   29  A    between atoms: C_34  and  C_36
REMARK   30  A    between atoms: C_37  and  N_38
REMARK   31  A    between atoms: N_38  and  C_39
REMARK                            x       y       z     vdW  Elec       q    Type
REMARK                         _______ _______ _______ _____ _____    ______ ____
ROOT
ATOM      1  C   UNL     1     146.526 166.357 191.463  0.00  0.00    -0.015 C 
ATOM      2  H   UNL     1     147.359 165.673 191.619  0.00  0.00    +0.030 HD
ATOM      3  H   UNL     1     146.097 166.081 190.494  0.00  0.00    +0.030 HD
ENDROOT
BRANCH   1   4
ATOM      4  C   UNL     1     147.075 167.791 191.383  0.00  0.00    -0.045 C 
ATOM      5  H   UNL     1     147.948 167.886 192.039  0.00  0.00    +0.027 HD
ATOM      6  H   UNL     1     146.331 168.487 191.788  0.00  0.00    +0.027 HD
BRANCH   4   7
ATOM      7  C   UNL     1     147.451 168.264 189.960  0.00  0.00    -0.017 C 
ATOM      8  H   UNL     1     146.629 167.957 189.295  0.00  0.00    +0.032 HD
BRANCH   7   9
ATOM      9  C   UNL     1     148.691 167.507 189.459  0.00  0.00    -0.060 C 
ATOM     10  H   UNL     1     149.146 168.020 188.604  0.00  0.00    +0.023 HD
ATOM     11  H   UNL     1     148.427 166.498 189.122  0.00  0.00    +0.023 HD
ATOM     12  H   UNL     1     149.454 167.415 190.239  0.00  0.00    +0.023 HD
ENDBRANCH   7   9
BRANCH   7  13
ATOM     13  C   UNL     1     147.629 169.800 189.808  0.00  0.00    +0.064 C 
ATOM     14  H   UNL     1     148.574 170.013 189.295  0.00  0.00    +0.060 HD
BRANCH  13  15
ATOM     15  C   UNL     1     147.603 170.519 191.173  0.00  0.00    +0.011 C 
ATOM     16  H   UNL     1     146.843 171.307 191.136  0.00  0.00    +0.033 HD
ATOM     17  H   UNL     1     147.315 169.801 191.947  0.00  0.00    +0.033 HD
BRANCH  15  18
ATOM     18  C   UNL     1     148.963 171.136 191.549  0.00  0.00    +0.108 C 
ATOM     19  H   UNL     1     149.563 171.264 190.641  0.00  0.00    +0.074 HD
BRANCH  18  20
ATOM     20  C   UNL     1     148.856 172.507 192.269  0.00  0.00    -0.009 C 
ATOM     21  H   UNL     1     149.426 173.232 191.673  0.00  0.00    +0.033 HD
BRANCH  20  22
ATOM     22  C   UNL     1     147.415 173.013 192.339  0.00  0.00    -0.059 C 
ATOM     23  H   UNL     1     147.392 174.052 192.683  0.00  0.00    +0.023 HD
ATOM     24  H   UNL     1     146.808 172.426 193.035  0.00  0.00    +0.023 HD
ATOM     25  H   UNL     1     146.938 172.980 191.355  0.00  0.00    +0.023 HD
ENDBRANCH  20  22
BRANCH  20  26
ATOM     26  C   UNL     1     149.488 172.509 193.663  0.00  0.00    -0.059 C 
ATOM     27  H   UNL     1     148.887 173.111 194.354  0.00  0.00    +0.023 HD
ATOM     28  H   UNL     1     149.557 171.500 194.081  0.00  0.00    +0.023 HD
ATOM     29  H   UNL     1     150.492 172.942 193.645  0.00  0.00    +0.023 HD
ENDBRANCH  20  26
ENDBRANCH  18  20
BRANCH  18  30
ATOM     30  O   UNL     1     149.612 170.198 192.443  0.00  0.00    -0.461 OA
BRANCH  30  31
ATOM     31  C   UNL     1     150.788 169.652 192.019  0.00  0.00    +0.307 C 
ATOM     32  O   UNL     1     151.689 170.257 191.457  0.00  0.00    -0.251 OA
BRANCH  31  33
ATOM     33  C   UNL     1     150.809 168.187 192.387  0.00  0.00    +0.046 C 
ATOM     34  H   UNL     1     149.835 167.760 192.127  0.00  0.00    +0.038 HD
ATOM     35  H   UNL     1     150.955 168.117 193.469  0.00  0.00    +0.038 HD
BRANCH  33  36
ATOM     36  C   UNL     1     151.919 167.429 191.661  0.00  0.00    -0.031 C 
ATOM     37  H   UNL     1     152.108 167.895 190.686  0.00  0.00    +0.028 HD
ATOM     38  H   UNL     1     152.855 167.516 192.231  0.00  0.00    +0.028 HD
BRANCH  36  39
ATOM     39  C   UNL     1     151.616 165.941 191.479  0.00  0.00    -0.006 C 
ATOM     40  H   UNL     1     150.747 165.680 192.091  0.00  0.00    +0.042 HD
ATOM     41  H   UNL     1     151.354 165.732 190.435  0.00  0.00    +0.042 HD
BRANCH  39  42
ATOM     42  N   UNL     1     152.736 165.095 191.877  0.00  0.00    -0.330 NA
ATOM     43  H   UNL     1     152.956 164.434 191.134  0.00  0.00    +0.118 HD
ATOM     44  H   UNL     1     152.453 164.526 192.676  0.00  0.00    +0.118 HD
ENDBRANCH  39  42
ENDBRANCH  36  39
ENDBRANCH  33  36
ENDBRANCH  31  33
ENDBRANCH  30  31
ENDBRANCH  18  30
ENDBRANCH  15  18
ENDBRANCH  13  15
BRANCH  13  45
ATOM     45  O   UNL     1     146.518 170.300 189.044  0.00  0.00    -0.379 OA
BRANCH  45  46
ATOM     46  C   UNL     1     146.274 169.555 187.857  0.00  0.00    +0.037 C 
ATOM     47  H   UNL     1     146.090 168.514 188.139  0.00  0.00    +0.052 HD
ATOM     48  H   UNL     1     147.142 169.589 187.191  0.00  0.00    +0.052 HD
ATOM     49  H   UNL     1     145.391 169.939 187.339  0.00  0.00    +0.052 HD
ENDBRANCH  45  46
ENDBRANCH  13  45
ENDBRANCH   7  13
ENDBRANCH   4   7
ENDBRANCH   1   4
BRANCH   1  50
ATOM     50  C   UNL     1     145.453 166.199 192.565  0.00  0.00    +0.108 C 
ATOM     51  H   UNL     1     145.234 165.131 192.701  0.00  0.00    +0.074 HD
BRANCH  50  52
ATOM     52  C   UNL     1     144.069 166.871 192.311  0.00  0.00    +0.020 C 
ATOM     53  H   UNL     1     144.245 167.952 192.387  0.00  0.00    +0.036 HD
BRANCH  52  54
ATOM     54  C   UNL     1     143.100 166.531 193.454  0.00  0.00    -0.057 C 
ATOM     55  H   UNL     1     142.409 165.737 193.154  0.00  0.00    +0.023 HD
ATOM     56  H   UNL     1     142.507 167.395 193.759  0.00  0.00    +0.023 HD
ATOM     57  H   UNL     1     143.648 166.170 194.329  0.00  0.00    +0.023 HD
ENDBRANCH  52  54
BRANCH  52  58
ATOM     58  C   UNL     1     143.368 166.646 190.932  0.00  0.00    +0.070 C 
ATOM     59  H   UNL     1     142.302 166.476 191.147  0.00  0.00    +0.061 HD
BRANCH  58  60
ATOM     60  C   UNL     1     143.429 167.836 189.921  0.00  0.00    +0.002 C 
ATOM     61  H   UNL     1     144.275 167.686 189.242  0.00  0.00    +0.037 HD
BRANCH  60  62
ATOM     62  C   UNL     1     143.624 169.183 190.631  0.00  0.00    -0.057 C 
ATOM     63  H   UNL     1     142.677 169.582 191.006  0.00  0.00    +0.024 HD
ATOM     64  H   UNL     1     144.285 169.080 191.498  0.00  0.00    +0.024 HD
ATOM     65  H   UNL     1     144.054 169.933 189.958  0.00  0.00    +0.024 HD
ENDBRANCH  60  62
BRANCH  60  66
ATOM     66  C   UNL     1     142.205 167.815 189.005  0.00  0.00    -0.065 C 
ATOM     67  C   UNL     1     141.244 168.744 188.904  0.00  0.00    -0.005 C 
ATOM     68  H   UNL     1     142.172 166.916 188.393  0.00  0.00    +0.059 HD
ATOM     69  H   UNL     1     141.300 169.637 189.525  0.00  0.00    +0.078 HD
BRANCH  67  70
ATOM     70  N   UNL     1     140.131 168.714 188.076  0.00  0.00    -0.284 N 
ATOM     71  C   UNL     1     139.984 167.910 186.952  0.00  0.00    +0.206 C 
ATOM     72  O   UNL     1     139.007 167.866 186.212  0.00  0.00    -0.279 OA
ATOM     73  H   UNL     1     140.849 167.266 186.747  0.00  0.00    +0.126 HD
BRANCH  70  74
ATOM     74  C   UNL     1     139.026 169.604 188.418  0.00  0.00    +0.007 C 
ATOM     75  H   UNL     1     139.231 170.598 188.006  0.00  0.00    +0.043 HD
ATOM     76  H   UNL     1     138.889 169.696 189.500  0.00  0.00    +0.043 HD
ATOM     77  H   UNL     1     138.105 169.208 187.979  0.00  0.00    +0.043 HD
ENDBRANCH  70  74
ENDBRANCH  67  70
ENDBRANCH  60  66
ENDBRANCH  58  60
BRANCH  58  78
ATOM     78  O   UNL     1     143.915 165.476 190.303  0.00  0.00    -0.379 OA
BRANCH  78  79
ATOM     79  C   UNL     1     142.982 164.407 190.202  0.00  0.00    +0.037 C 
ATOM     80  H   UNL     1     141.969 164.788 190.031  0.00  0.00    +0.052 HD
ATOM     81  H   UNL     1     143.000 163.787 191.104  0.00  0.00    +0.052 HD
ATOM     82  H   UNL     1     143.264 163.786 189.350  0.00  0.00    +0.052 HD
ENDBRANCH  78  79
ENDBRANCH  58  78
ENDBRANCH  52  58
ENDBRANCH  50  52
BRANCH  50  83
ATOM     83  O   UNL     1     146.001 166.691 193.810  0.00  0.00    -0.459 OA
BRANCH  83  85
ATOM     84  O   UNL     1     146.207 164.682 194.905  0.00  0.00    -0.248 OA
ATOM     85  C   UNL     1     146.661 165.772 194.583  0.00  0.00    +0.337 C 
BRANCH  85  86
ATOM     86  C   UNL     1     148.057 166.296 194.936  0.00  0.00    +0.155 C 
ATOM     87  O   UNL     1     149.084 165.787 194.067  0.00  0.00    -0.365 OA
ATOM     88  C   UNL     1     150.087 165.150 194.866  0.00  0.00    +0.049 C 
ATOM     89  C   UNL     1     149.955 165.746 196.247  0.00  0.00    -0.027 C 
ATOM     90  C   UNL     1     148.463 165.929 196.358  0.00  0.00    -0.014 C 
ATOM     91  H   UNL     1     148.048 167.384 194.796  0.00  0.00    +0.071 HD
ATOM     92  H   UNL     1     149.885 164.071 194.876  0.00  0.00    +0.056 HD
ATOM     93  H   UNL     1     151.073 165.319 194.424  0.00  0.00    +0.056 HD
ATOM     94  H   UNL     1     150.449 166.726 196.282  0.00  0.00    +0.029 HD
ATOM     95  H   UNL     1     150.380 165.113 197.032  0.00  0.00    +0.029 HD
ATOM     96  H   UNL     1     148.185 166.701 197.082  0.00  0.00    +0.030 HD
ATOM     97  H   UNL     1     147.993 164.988 196.673  0.00  0.00    +0.030 HD
ENDBRANCH  85  86
ENDBRANCH  83  85
ENDBRANCH  50  83
ENDBRANCH   1  50
TORSDOF 31
ENDMDL
MODEL 7
REMARK VINA RESULT:      -5.0      3.270      6.969
REMARK  Name = 2u_conf2
REMARK  31 active torsions:
REMARK  status: ('A' for Active; 'I' for Inactive)
REMARK    1  A    between atoms: C_2  and  C_3
REMARK    2  A    between atoms: C_2  and  O_8
REMARK    3  A    between atoms: O_8  and  C_9
REMARK    4  A    between atoms: C_9  and  C_10
REMARK    5  A    between atoms: C_9  and  C_29
REMARK    6  A    between atoms: C_10  and  C_11
REMARK    7  A    between atoms: C_11  and  C_12
REMARK    8  A    between atoms: C_12  and  C_13
REMARK    9  A    between atoms: C_12  and  C_14
REMARK   10  A    between atoms: C_14  and  O_15
REMARK   11  A    between atoms: C_14  and  C_17
REMARK   12  A    between atoms: O_15  and  C_16
REMARK   13  A    between atoms: C_17  and  C_18
REMARK   14  A    between atoms: C_18  and  O_19
REMARK   15  A    between atoms: C_18  and  C_26
REMARK   16  A    between atoms: O_19  and  C_20
REMARK   17  A    between atoms: C_20  and  C_21
REMARK   18  A    between atoms: C_21  and  C_22
REMARK   19  A    between atoms: C_22  and  C_23
REMARK   20  A    between atoms: C_23  and  N_24
REMARK   21  A    between atoms: C_26  and  C_27
REMARK   22  A    between atoms: C_26  and  C_28
REMARK   23  A    between atoms: C_29  and  C_30
REMARK   24  A    between atoms: C_29  and  C_31
REMARK   25  A    between atoms: C_31  and  O_32
REMARK   26  A    between atoms: C_31  and  C_34
REMARK   27  A    between atoms: O_32  and  C_33
REMARK   28  A    between atoms: C_34  and  C_35
REMARK   29  A    between atoms: C_34  and  C_36
REMARK   30  A    between atoms: C_37  and  N_38
REMARK   31  A    between atoms: N_38  and  C_39
REMARK                            x       y       z     vdW  Elec       q    Type
REMARK                         _______ _______ _______ _____ _____    ______ ____
ROOT
ATOM      1  C   UNL     1     148.943 168.658 192.764  0.00  0.00    -0.015 C 
ATOM      2  H   UNL     1     149.382 169.651 192.675  0.00  0.00    +0.030 HD
ATOM      3  H   UNL     1     148.541 168.606 193.781  0.00  0.00    +0.030 HD
ENDROOT
BRANCH   1   4
ATOM      4  C   UNL     1     150.058 167.611 192.606  0.00  0.00    -0.045 C 
ATOM      5  H   UNL     1     149.787 166.904 191.814  0.00  0.00    +0.027 HD
ATOM      6  H   UNL     1     150.124 167.011 193.522  0.00  0.00    +0.027 HD
BRANCH   4   7
ATOM      7  C   UNL     1     151.459 168.195 192.314  0.00  0.00    -0.017 C 
ATOM      8  H   UNL     1     152.080 167.992 193.199  0.00  0.00    +0.032 HD
BRANCH   7   9
ATOM      9  C   UNL     1     151.385 169.726 192.205  0.00  0.00    -0.060 C 
ATOM     10  H   UNL     1     150.418 170.099 192.560  0.00  0.00    +0.023 HD
ATOM     11  H   UNL     1     151.490 170.053 191.164  0.00  0.00    +0.023 HD
ATOM     12  H   UNL     1     152.168 170.213 192.795  0.00  0.00    +0.023 HD
ENDBRANCH   7   9
BRANCH   7  13
ATOM     13  C   UNL     1     152.180 167.576 191.084  0.00  0.00    +0.064 C 
ATOM     14  H   UNL     1     152.899 168.297 190.677  0.00  0.00    +0.060 HD
BRANCH  13  15
ATOM     15  C   UNL     1     151.183 167.156 189.984  0.00  0.00    +0.011 C 
ATOM     16  H   UNL     1     150.426 166.506 190.433  0.00  0.00    +0.033 HD
ATOM     17  H   UNL     1     150.683 168.050 189.599  0.00  0.00    +0.033 HD
BRANCH  15  18
ATOM     18  C   UNL     1     151.860 166.421 188.813  0.00  0.00    +0.108 C 
ATOM     19  H   UNL     1     152.454 165.588 189.206  0.00  0.00    +0.074 HD
BRANCH  18  20
ATOM     20  C   UNL     1     150.867 165.867 187.757  0.00  0.00    -0.009 C 
ATOM     21  H   UNL     1     149.983 165.506 188.300  0.00  0.00    +0.033 HD
BRANCH  20  22
ATOM     22  C   UNL     1     150.391 166.948 186.786  0.00  0.00    -0.059 C 
ATOM     23  H   UNL     1     149.854 166.495 185.946  0.00  0.00    +0.023 HD
ATOM     24  H   UNL     1     151.225 167.520 186.369  0.00  0.00    +0.023 HD
ATOM     25  H   UNL     1     149.708 167.646 187.278  0.00  0.00    +0.023 HD
ENDBRANCH  20  22
BRANCH  20  26
ATOM     26  C   UNL     1     151.414 164.663 186.985  0.00  0.00    -0.059 C 
ATOM     27  H   UNL     1     152.388 164.904 186.543  0.00  0.00    +0.023 HD
ATOM     28  H   UNL     1     151.552 163.792 187.632  0.00  0.00    +0.023 HD
ATOM     29  H   UNL     1     150.748 164.380 186.166  0.00  0.00    +0.023 HD
ENDBRANCH  20  26
ENDBRANCH  18  20
BRANCH  18  30
ATOM     30  O   UNL     1     152.728 167.383 188.164  0.00  0.00    -0.461 OA
BRANCH  30  31
ATOM     31  C   UNL     1     154.036 167.030 188.008  0.00  0.00    +0.307 C 
ATOM     32  O   UNL     1     154.832 166.839 188.916  0.00  0.00    -0.251 OA
BRANCH  31  33
ATOM     33  C   UNL     1     154.332 166.881 186.534  0.00  0.00    +0.046 C 
ATOM     34  H   UNL     1     154.347 167.882 186.091  0.00  0.00    +0.038 HD
ATOM     35  H   UNL     1     153.518 166.302 186.087  0.00  0.00    +0.038 HD
BRANCH  33  36
ATOM     36  C   UNL     1     155.666 166.180 186.284  0.00  0.00    -0.031 C 
ATOM     37  H   UNL     1     156.099 165.858 187.239  0.00  0.00    +0.028 HD
ATOM     38  H   UNL     1     155.496 165.266 185.699  0.00  0.00    +0.028 HD
BRANCH  36  39
ATOM     39  C   UNL     1     156.671 167.047 185.523  0.00  0.00    -0.006 C 
ATOM     40  H   UNL     1     157.650 166.959 186.006  0.00  0.00    +0.042 HD
ATOM     41  H   UNL     1     156.783 166.685 184.495  0.00  0.00    +0.042 HD
BRANCH  39  42
ATOM     42  N   UNL     1     156.286 168.454 185.503  0.00  0.00    -0.330 NA
ATOM     43  H   UNL     1     155.271 168.539 185.489  0.00  0.00    +0.118 HD
ATOM     44  H   UNL     1     156.609 168.873 184.630  0.00  0.00    +0.118 HD
ENDBRANCH  39  42
ENDBRANCH  36  39
ENDBRANCH  33  36
ENDBRANCH  31  33
ENDBRANCH  30  31
ENDBRANCH  18  30
ENDBRANCH  15  18
ENDBRANCH  13  15
BRANCH  13  45
ATOM     45  O   UNL     1     152.858 166.385 191.521  0.00  0.00    -0.379 OA
BRANCH  45  46
ATOM     46  C   UNL     1     153.606 166.573 192.716  0.00  0.00    +0.037 C 
ATOM     47  H   UNL     1     153.705 167.647 192.892  0.00  0.00    +0.052 HD
ATOM     48  H   UNL     1     154.606 166.139 192.621  0.00  0.00    +0.052 HD
ATOM     49  H   UNL     1     153.084 166.126 193.567  0.00  0.00    +0.052 HD
ENDBRANCH  45  46
ENDBRANCH  13  45
ENDBRANCH   7  13
ENDBRANCH   4   7
ENDBRANCH   1   4
BRANCH   1  50
ATOM     50  C   UNL     1     147.797 168.455 191.746  0.00  0.00    +0.108 C 
ATOM     51  H   UNL     1     146.883 168.921 192.139  0.00  0.00    +0.074 HD
BRANCH  50  52
ATOM     52  C   UNL     1     147.396 166.986 191.412  0.00  0.00    +0.020 C 
ATOM     53  H   UNL     1     148.110 166.352 191.955  0.00  0.00    +0.036 HD
BRANCH  52  54
ATOM     54  C   UNL     1     147.641 166.699 189.923  0.00  0.00    -0.057 C 
ATOM     55  H   UNL     1     148.675 166.383 189.752  0.00  0.00    +0.023 HD
ATOM     56  H   UNL     1     147.449 167.574 189.299  0.00  0.00    +0.023 HD
ATOM     57  H   UNL     1     146.993 165.888 189.575  0.00  0.00    +0.023 HD
ENDBRANCH  52  54
BRANCH  52  58
ATOM     58  C   UNL     1     145.976 166.484 191.826  0.00  0.00    +0.070 C 
ATOM     59  H   UNL     1     145.614 165.849 191.002  0.00  0.00    +0.061 HD
BRANCH  58  60
ATOM     60  C   UNL     1     145.899 165.610 193.119  0.00  0.00    +0.002 C 
ATOM     61  H   UNL     1     146.007 164.554 192.845  0.00  0.00    +0.037 HD
BRANCH  60  62
ATOM     62  C   UNL     1     144.557 165.774 193.846  0.00  0.00    -0.057 C 
ATOM     63  H   UNL     1     144.292 166.828 193.968  0.00  0.00    +0.024 HD
ATOM     64  H   UNL     1     143.742 165.312 193.278  0.00  0.00    +0.024 HD
ATOM     65  H   UNL     1     144.581 165.322 194.843  0.00  0.00    +0.024 HD
ENDBRANCH  60  62
BRANCH  60  66
ATOM     66  C   UNL     1     147.104 165.888 194.019  0.00  0.00    -0.065 C 
ATOM     67  C   UNL     1     147.173 165.765 195.352  0.00  0.00    -0.005 C 
ATOM     68  H   UNL     1     147.968 166.220 193.448  0.00  0.00    +0.059 HD
ATOM     69  H   UNL     1     146.296 165.428 195.901  0.00  0.00    +0.078 HD
BRANCH  67  70
ATOM     70  N   UNL     1     148.268 166.028 196.163  0.00  0.00    -0.284 N 
ATOM     71  C   UNL     1     149.561 165.569 195.944  0.00  0.00    +0.206 C 
ATOM     72  O   UNL     1     150.541 165.795 196.647  0.00  0.00    -0.279 OA
ATOM     73  H   UNL     1     149.671 164.953 195.043  0.00  0.00    +0.126 HD
BRANCH  70  74
ATOM     74  C   UNL     1     148.034 166.853 197.344  0.00  0.00    +0.007 C 
ATOM     75  H   UNL     1     147.171 167.501 197.159  0.00  0.00    +0.043 HD
ATOM     76  H   UNL     1     148.896 167.481 197.587  0.00  0.00    +0.043 HD
ATOM     77  H   UNL     1     147.825 166.197 198.195  0.00  0.00    +0.043 HD
ENDBRANCH  70  74
ENDBRANCH  67  70
ENDBRANCH  60  66
ENDBRANCH  58  60
BRANCH  58  78
ATOM     78  O   UNL     1     145.095 167.609 191.975  0.00  0.00    -0.379 OA
BRANCH  78  79
ATOM     79  C   UNL     1     144.280 167.837 190.832  0.00  0.00    +0.037 C 
ATOM     80  H   UNL     1     144.610 167.222 189.988  0.00  0.00    +0.052 HD
ATOM     81  H   UNL     1     144.289 168.894 190.550  0.00  0.00    +0.052 HD
ATOM     82  H   UNL     1     143.255 167.555 191.081  0.00  0.00    +0.052 HD
ENDBRANCH  78  79
ENDBRANCH  58  78
ENDBRANCH  52  58
ENDBRANCH  50  52
BRANCH  50  83
ATOM     83  O   UNL     1     148.145 169.145 190.523  0.00  0.00    -0.459 OA
BRANCH  83  85
ATOM     84  O   UNL     1     146.882 170.748 189.470  0.00  0.00    -0.248 OA
ATOM     85  C   UNL     1     147.630 170.406 190.375  0.00  0.00    +0.337 C 
BRANCH  85  86
ATOM     86  C   UNL     1     148.092 171.296 191.534  0.00  0.00    +0.155 C 
ATOM     87  O   UNL     1     147.001 171.920 192.232  0.00  0.00    -0.365 OA
ATOM     88  C   UNL     1     147.203 173.338 192.227  0.00  0.00    +0.049 C 
ATOM     89  C   UNL     1     148.684 173.542 192.011  0.00  0.00    -0.027 C 
ATOM     90  C   UNL     1     149.011 172.417 191.064  0.00  0.00    -0.014 C 
ATOM     91  H   UNL     1     148.596 170.653 192.266  0.00  0.00    +0.071 HD
ATOM     92  H   UNL     1     146.617 173.766 191.404  0.00  0.00    +0.056 HD
ATOM     93  H   UNL     1     146.850 173.765 193.170  0.00  0.00    +0.056 HD
ATOM     94  H   UNL     1     149.224 173.398 192.955  0.00  0.00    +0.029 HD
ATOM     95  H   UNL     1     148.929 174.534 191.617  0.00  0.00    +0.029 HD
ATOM     96  H   UNL     1     150.067 172.130 191.098  0.00  0.00    +0.030 HD
ATOM     97  H   UNL     1     148.777 172.714 190.033  0.00  0.00    +0.030 HD
ENDBRANCH  85  86
ENDBRANCH  83  85
ENDBRANCH  50  83
ENDBRANCH   1  50
TORSDOF 31
ENDMDL
MODEL 8
REMARK VINA RESULT:      -4.9      2.593      7.090
REMARK  Name = 2u_conf2
REMARK  31 active torsions:
REMARK  status: ('A' for Active; 'I' for Inactive)
REMARK    1  A    between atoms: C_2  and  C_3
REMARK    2  A    between atoms: C_2  and  O_8
REMARK    3  A    between atoms: O_8  and  C_9
REMARK    4  A    between atoms: C_9  and  C_10
REMARK    5  A    between atoms: C_9  and  C_29
REMARK    6  A    between atoms: C_10  and  C_11
REMARK    7  A    between atoms: C_11  and  C_12
REMARK    8  A    between atoms: C_12  and  C_13
REMARK    9  A    between atoms: C_12  and  C_14
REMARK   10  A    between atoms: C_14  and  O_15
REMARK   11  A    between atoms: C_14  and  C_17
REMARK   12  A    between atoms: O_15  and  C_16
REMARK   13  A    between atoms: C_17  and  C_18
REMARK   14  A    between atoms: C_18  and  O_19
REMARK   15  A    between atoms: C_18  and  C_26
REMARK   16  A    between atoms: O_19  and  C_20
REMARK   17  A    between atoms: C_20  and  C_21
REMARK   18  A    between atoms: C_21  and  C_22
REMARK   19  A    between atoms: C_22  and  C_23
REMARK   20  A    between atoms: C_23  and  N_24
REMARK   21  A    between atoms: C_26  and  C_27
REMARK   22  A    between atoms: C_26  and  C_28
REMARK   23  A    between atoms: C_29  and  C_30
REMARK   24  A    between atoms: C_29  and  C_31
REMARK   25  A    between atoms: C_31  and  O_32
REMARK   26  A    between atoms: C_31  and  C_34
REMARK   27  A    between atoms: O_32  and  C_33
REMARK   28  A    between atoms: C_34  and  C_35
REMARK   29  A    between atoms: C_34  and  C_36
REMARK   30  A    between atoms: C_37  and  N_38
REMARK   31  A    between atoms: N_38  and  C_39
REMARK                            x       y       z     vdW  Elec       q    Type
REMARK                         _______ _______ _______ _____ _____    ______ ____
ROOT
ATOM      1  C   UNL     1     146.364 166.627 192.709  0.00  0.00    -0.015 C 
ATOM      2  H   UNL     1     146.691 167.472 193.314  0.00  0.00    +0.030 HD
ATOM      3  H   UNL     1     145.394 166.329 193.121  0.00  0.00    +0.030 HD
ENDROOT
BRANCH   1   4
ATOM      4  C   UNL     1     147.367 165.475 192.890  0.00  0.00    -0.045 C 
ATOM      5  H   UNL     1     148.027 165.424 192.017  0.00  0.00    +0.027 HD
ATOM      6  H   UNL     1     146.824 164.522 192.899  0.00  0.00    +0.027 HD
BRANCH   4   7
ATOM      7  C   UNL     1     148.222 165.554 194.175  0.00  0.00    -0.017 C 
ATOM      8  H   UNL     1     148.639 164.549 194.342  0.00  0.00    +0.032 HD
BRANCH   7   9
ATOM      9  C   UNL     1     147.326 165.836 195.392  0.00  0.00    -0.060 C 
ATOM     10  H   UNL     1     147.861 165.636 196.327  0.00  0.00    +0.023 HD
ATOM     11  H   UNL     1     146.440 165.192 195.387  0.00  0.00    +0.023 HD
ATOM     12  H   UNL     1     146.990 166.878 195.415  0.00  0.00    +0.023 HD
ENDBRANCH   7   9
BRANCH   7  13
ATOM     13  C   UNL     1     149.412 166.550 194.107  0.00  0.00    +0.064 C 
ATOM     14  H   UNL     1     149.048 167.572 194.269  0.00  0.00    +0.060 HD
BRANCH  13  15
ATOM     15  C   UNL     1     150.152 166.470 192.755  0.00  0.00    +0.011 C 
ATOM     16  H   UNL     1     150.600 165.475 192.664  0.00  0.00    +0.033 HD
ATOM     17  H   UNL     1     149.427 166.596 191.946  0.00  0.00    +0.033 HD
BRANCH  15  18
ATOM     18  C   UNL     1     151.250 167.540 192.611  0.00  0.00    +0.108 C 
ATOM     19  H   UNL     1     151.340 168.093 193.553  0.00  0.00    +0.074 HD
BRANCH  18  20
ATOM     20  C   UNL     1     152.643 166.969 192.238  0.00  0.00    -0.009 C 
ATOM     21  H   UNL     1     153.043 167.590 191.425  0.00  0.00    +0.033 HD
BRANCH  20  22
ATOM     22  C   UNL     1     153.634 167.054 193.400  0.00  0.00    -0.059 C 
ATOM     23  H   UNL     1     153.684 166.097 193.929  0.00  0.00    +0.023 HD
ATOM     24  H   UNL     1     153.344 167.815 194.130  0.00  0.00    +0.023 HD
ATOM     25  H   UNL     1     154.641 167.287 193.042  0.00  0.00    +0.023 HD
ENDBRANCH  20  22
BRANCH  20  26
ATOM     26  C   UNL     1     152.585 165.539 191.695  0.00  0.00    -0.059 C 
ATOM     27  H   UNL     1     153.314 164.904 192.210  0.00  0.00    +0.023 HD
ATOM     28  H   UNL     1     151.598 165.088 191.835  0.00  0.00    +0.023 HD
ATOM     29  H   UNL     1     152.826 165.508 190.628  0.00  0.00    +0.023 HD
ENDBRANCH  20  26
ENDBRANCH  18  20
BRANCH  18  30
ATOM     30  O   UNL     1     150.823 168.434 191.553  0.00  0.00    -0.461 OA
BRANCH  30  31
ATOM     31  C   UNL     1     151.150 169.751 191.686  0.00  0.00    +0.307 C 
ATOM     32  O   UNL     1     152.136 170.289 191.202  0.00  0.00    -0.251 OA
BRANCH  31  33
ATOM     33  C   UNL     1     150.081 170.445 192.497  0.00  0.00    +0.046 C 
ATOM     34  H   UNL     1     150.533 170.773 193.439  0.00  0.00    +0.038 HD
ATOM     35  H   UNL     1     149.297 169.711 192.711  0.00  0.00    +0.038 HD
BRANCH  33  36
ATOM     36  C   UNL     1     149.487 171.642 191.759  0.00  0.00    -0.031 C 
ATOM     37  H   UNL     1     150.233 172.062 191.073  0.00  0.00    +0.028 HD
ATOM     38  H   UNL     1     148.647 171.307 191.133  0.00  0.00    +0.028 HD
BRANCH  36  39
ATOM     39  C   UNL     1     148.968 172.734 192.697  0.00  0.00    -0.006 C 
ATOM     40  H   UNL     1     149.440 173.684 192.427  0.00  0.00    +0.042 HD
ATOM     41  H   UNL     1     147.887 172.860 192.572  0.00  0.00    +0.042 HD
BRANCH  39  42
ATOM     42  N   UNL     1     149.265 172.448 194.096  0.00  0.00    -0.330 NA
ATOM     43  H   UNL     1     150.043 173.024 194.414  0.00  0.00    +0.118 HD
ATOM     44  H   UNL     1     149.588 171.483 194.176  0.00  0.00    +0.118 HD
ENDBRANCH  39  42
ENDBRANCH  36  39
ENDBRANCH  33  36
ENDBRANCH  31  33
ENDBRANCH  30  31
ENDBRANCH  18  30
ENDBRANCH  15  18
ENDBRANCH  13  15
BRANCH  13  45
ATOM     45  O   UNL     1     150.354 166.185 195.130  0.00  0.00    -0.379 OA
BRANCH  45  46
ATOM     46  C   UNL     1     150.776 164.829 195.044  0.00  0.00    +0.037 C 
ATOM     47  H   UNL     1     151.263 164.683 194.076  0.00  0.00    +0.052 HD
ATOM     48  H   UNL     1     149.920 164.151 195.112  0.00  0.00    +0.052 HD
ATOM     49  H   UNL     1     151.496 164.602 195.836  0.00  0.00    +0.052 HD
ENDBRANCH  45  46
ENDBRANCH  13  45
ENDBRANCH   7  13
ENDBRANCH   4   7
ENDBRANCH   1   4
BRANCH   1  50
ATOM     50  C   UNL     1     146.192 167.030 191.226  0.00  0.00    +0.108 C 
ATOM     51  H   UNL     1     145.783 166.176 190.669  0.00  0.00    +0.074 HD
BRANCH  50  52
ATOM     52  C   UNL     1     147.478 167.446 190.450  0.00  0.00    +0.020 C 
ATOM     53  H   UNL     1     148.318 167.201 191.113  0.00  0.00    +0.036 HD
BRANCH  52  54
ATOM     54  C   UNL     1     147.520 168.973 190.279  0.00  0.00    -0.057 C 
ATOM     55  H   UNL     1     146.739 169.452 190.878  0.00  0.00    +0.023 HD
ATOM     56  H   UNL     1     147.379 169.273 189.239  0.00  0.00    +0.023 HD
ATOM     57  H   UNL     1     148.480 169.372 190.619  0.00  0.00    +0.023 HD
ENDBRANCH  52  54
BRANCH  52  58
ATOM     58  C   UNL     1     147.790 166.748 189.087  0.00  0.00    +0.070 C 
ATOM     59  H   UNL     1     146.993 167.051 188.389  0.00  0.00    +0.061 HD
BRANCH  58  60
ATOM     60  C   UNL     1     149.142 167.134 188.404  0.00  0.00    +0.002 C 
ATOM     61  H   UNL     1     149.518 168.060 188.854  0.00  0.00    +0.037 HD
BRANCH  60  62
ATOM     62  C   UNL     1     148.977 167.373 186.897  0.00  0.00    -0.057 C 
ATOM     63  H   UNL     1     148.693 166.457 186.373  0.00  0.00    +0.024 HD
ATOM     64  H   UNL     1     148.186 168.104 186.698  0.00  0.00    +0.024 HD
ATOM     65  H   UNL     1     149.904 167.740 186.444  0.00  0.00    +0.024 HD
ENDBRANCH  60  62
BRANCH  60  66
ATOM     66  C   UNL     1     150.216 166.096 188.731  0.00  0.00    -0.065 C 
ATOM     67  C   UNL     1     151.190 165.649 187.926  0.00  0.00    -0.005 C 
ATOM     68  H   UNL     1     150.119 165.719 189.746  0.00  0.00    +0.059 HD
ATOM     69  H   UNL     1     151.268 166.043 186.915  0.00  0.00    +0.078 HD
BRANCH  67  70
ATOM     70  N   UNL     1     152.156 164.699 188.227  0.00  0.00    -0.284 N 
ATOM     71  C   UNL     1     151.905 163.408 188.676  0.00  0.00    +0.206 C 
ATOM     72  O   UNL     1     152.745 162.555 188.942  0.00  0.00    -0.279 OA
ATOM     73  H   UNL     1     150.839 163.172 188.786  0.00  0.00    +0.126 HD
BRANCH  70  74
ATOM     74  C   UNL     1     153.550 165.096 188.057  0.00  0.00    +0.007 C 
ATOM     75  H   UNL     1     153.948 164.622 187.153  0.00  0.00    +0.043 HD
ATOM     76  H   UNL     1     154.171 164.800 188.908  0.00  0.00    +0.043 HD
ATOM     77  H   UNL     1     153.595 166.185 187.951  0.00  0.00    +0.043 HD
ENDBRANCH  70  74
ENDBRANCH  67  70
ENDBRANCH  60  66
ENDBRANCH  58  60
BRANCH  58  78
ATOM     78  O   UNL     1     147.749 165.323 189.259  0.00  0.00    -0.379 OA
BRANCH  78  79
ATOM     79  C   UNL     1     146.783 164.686 188.431  0.00  0.00    +0.037 C 
ATOM     80  H   UNL     1     147.237 163.870 187.859  0.00  0.00    +0.052 HD
ATOM     81  H   UNL     1     146.317 165.406 187.751  0.00  0.00    +0.052 HD
ATOM     82  H   UNL     1     146.007 164.265 189.073  0.00  0.00    +0.052 HD
ENDBRANCH  78  79
ENDBRANCH  58  78
ENDBRANCH  52  58
ENDBRANCH  50  52
BRANCH  50  83
ATOM     83  O   UNL     1     145.222 168.101 191.153  0.00  0.00    -0.459 OA
BRANCH  83  85
ATOM     84  O   UNL     1     144.100 167.733 189.183  0.00  0.00    -0.248 OA
ATOM     85  C   UNL     1     144.105 167.851 190.401  0.00  0.00    +0.337 C 
BRANCH  85  86
ATOM     86  C   UNL     1     142.885 167.697 191.316  0.00  0.00    +0.155 C 
ATOM     87  O   UNL     1     143.088 168.266 192.622  0.00  0.00    -0.365 OA
ATOM     88  C   UNL     1     142.849 167.254 193.607  0.00  0.00    +0.049 C 
ATOM     89  C   UNL     1     141.969 166.226 192.935  0.00  0.00    -0.027 C 
ATOM     90  C   UNL     1     142.509 166.236 191.528  0.00  0.00    -0.014 C 
ATOM     91  H   UNL     1     142.057 168.256 190.863  0.00  0.00    +0.071 HD
ATOM     92  H   UNL     1     143.815 166.823 193.899  0.00  0.00    +0.056 HD
ATOM     93  H   UNL     1     142.381 167.700 194.488  0.00  0.00    +0.056 HD
ATOM     94  H   UNL     1     140.927 166.568 192.932  0.00  0.00    +0.029 HD
ATOM     95  H   UNL     1     142.012 165.243 193.415  0.00  0.00    +0.029 HD
ATOM     96  H   UNL     1     141.778 165.884 190.793  0.00  0.00    +0.030 HD
ATOM     97  H   UNL     1     143.393 165.586 191.461  0.00  0.00    +0.030 HD
ENDBRANCH  85  86
ENDBRANCH  83  85
ENDBRANCH  50  83
ENDBRANCH   1  50
TORSDOF 31
ENDMDL
MODEL 9
REMARK VINA RESULT:      -4.9      3.481      7.237
REMARK  Name = 2u_conf2
REMARK  31 active torsions:
REMARK  status: ('A' for Active; 'I' for Inactive)
REMARK    1  A    between atoms: C_2  and  C_3
REMARK    2  A    between atoms: C_2  and  O_8
REMARK    3  A    between atoms: O_8  and  C_9
REMARK    4  A    between atoms: C_9  and  C_10
REMARK    5  A    between atoms: C_9  and  C_29
REMARK    6  A    between atoms: C_10  and  C_11
REMARK    7  A    between atoms: C_11  and  C_12
REMARK    8  A    between atoms: C_12  and  C_13
REMARK    9  A    between atoms: C_12  and  C_14
REMARK   10  A    between atoms: C_14  and  O_15
REMARK   11  A    between atoms: C_14  and  C_17
REMARK   12  A    between atoms: O_15  and  C_16
REMARK   13  A    between atoms: C_17  and  C_18
REMARK   14  A    between atoms: C_18  and  O_19
REMARK   15  A    between atoms: C_18  and  C_26
REMARK   16  A    between atoms: O_19  and  C_20
REMARK   17  A    between atoms: C_20  and  C_21
REMARK   18  A    between atoms: C_21  and  C_22
REMARK   19  A    between atoms: C_22  and  C_23
REMARK   20  A    between atoms: C_23  and  N_24
REMARK   21  A    between atoms: C_26  and  C_27
REMARK   22  A    between atoms: C_26  and  C_28
REMARK   23  A    between atoms: C_29  and  C_30
REMARK   24  A    between atoms: C_29  and  C_31
REMARK   25  A    between atoms: C_31  and  O_32
REMARK   26  A    between atoms: C_31  and  C_34
REMARK   27  A    between atoms: O_32  and  C_33
REMARK   28  A    between atoms: C_34  and  C_35
REMARK   29  A    between atoms: C_34  and  C_36
REMARK   30  A    between atoms: C_37  and  N_38
REMARK   31  A    between atoms: N_38  and  C_39
REMARK                            x       y       z     vdW  Elec       q    Type
REMARK                         _______ _______ _______ _____ _____    ______ ____
ROOT
ATOM      1  C   UNL     1     149.559 168.116 193.004  0.00  0.00    -0.015 C 
ATOM      2  H   UNL     1     150.107 169.058 192.969  0.00  0.00    +0.030 HD
ATOM      3  H   UNL     1     149.196 168.026 194.033  0.00  0.00    +0.030 HD
ENDROOT
BRANCH   1   4
ATOM      4  C   UNL     1     150.537 166.967 192.709  0.00  0.00    -0.045 C 
ATOM      5  H   UNL     1     150.104 166.303 191.952  0.00  0.00    +0.027 HD
ATOM      6  H   UNL     1     150.650 166.349 193.607  0.00  0.00    +0.027 HD
BRANCH   4   7
ATOM      7  C   UNL     1     151.944 167.414 192.252  0.00  0.00    -0.017 C 
ATOM      8  H   UNL     1     152.624 167.240 193.100  0.00  0.00    +0.032 HD
BRANCH   7   9
ATOM      9  C   UNL     1     151.968 168.931 192.009  0.00  0.00    -0.060 C 
ATOM     10  H   UNL     1     151.741 169.480 192.930  0.00  0.00    +0.023 HD
ATOM     11  H   UNL     1     151.214 169.223 191.270  0.00  0.00    +0.023 HD
ATOM     12  H   UNL     1     152.945 169.270 191.650  0.00  0.00    +0.023 HD
ENDBRANCH   7   9
BRANCH   7  13
ATOM     13  C   UNL     1     152.511 166.638 191.031  0.00  0.00    +0.064 C 
ATOM     14  H   UNL     1     151.859 165.788 190.798  0.00  0.00    +0.060 HD
BRANCH  13  15
ATOM     15  C   UNL     1     153.949 166.139 191.283  0.00  0.00    +0.011 C 
ATOM     16  H   UNL     1     154.595 167.008 191.444  0.00  0.00    +0.033 HD
ATOM     17  H   UNL     1     153.958 165.531 192.193  0.00  0.00    +0.033 HD
BRANCH  15  18
ATOM     18  C   UNL     1     154.502 165.297 190.119  0.00  0.00    +0.108 C 
ATOM     19  H   UNL     1     154.070 165.657 189.178  0.00  0.00    +0.074 HD
BRANCH  18  20
ATOM     20  C   UNL     1     156.049 165.329 189.997  0.00  0.00    -0.009 C 
ATOM     21  H   UNL     1     156.423 164.359 190.350  0.00  0.00    +0.033 HD
BRANCH  20  22
ATOM     22  C   UNL     1     156.512 165.492 188.548  0.00  0.00    -0.059 C 
ATOM     23  H   UNL     1     156.373 166.526 188.218  0.00  0.00    +0.023 HD
ATOM     24  H   UNL     1     155.948 164.852 187.863  0.00  0.00    +0.023 HD
ATOM     25  H   UNL     1     157.575 165.252 188.446  0.00  0.00    +0.023 HD
ENDBRANCH  20  22
BRANCH  20  26
ATOM     26  C   UNL     1     156.704 166.389 190.885  0.00  0.00    -0.059 C 
ATOM     27  H   UNL     1     156.003 166.729 191.656  0.00  0.00    +0.023 HD
ATOM     28  H   UNL     1     157.592 166.004 191.395  0.00  0.00    +0.023 HD
ATOM     29  H   UNL     1     156.998 167.269 190.304  0.00  0.00    +0.023 HD
ENDBRANCH  20  26
ENDBRANCH  18  20
BRANCH  18  30
ATOM     30  O   UNL     1     154.089 163.929 190.360  0.00  0.00    -0.461 OA
BRANCH  30  31
ATOM     31  C   UNL     1     153.554 163.249 189.307  0.00  0.00    +0.307 C 
ATOM     32  O   UNL     1     152.736 163.697 188.516  0.00  0.00    -0.251 OA
BRANCH  31  33
ATOM     33  C   UNL     1     154.160 161.866 189.255  0.00  0.00    +0.046 C 
ATOM     34  H   UNL     1     153.476 161.220 188.695  0.00  0.00    +0.038 HD
ATOM     35  H   UNL     1     154.241 161.499 190.283  0.00  0.00    +0.038 HD
BRANCH  33  36
ATOM     36  C   UNL     1     155.536 161.867 188.593  0.00  0.00    -0.031 C 
ATOM     37  H   UNL     1     155.422 161.818 187.503  0.00  0.00    +0.028 HD
ATOM     38  H   UNL     1     156.045 162.817 188.806  0.00  0.00    +0.028 HD
BRANCH  36  39
ATOM     39  C   UNL     1     156.439 160.730 189.074  0.00  0.00    -0.006 C 
ATOM     40  H   UNL     1     157.391 160.783 188.534  0.00  0.00    +0.042 HD
ATOM     41  H   UNL     1     156.663 160.848 190.140  0.00  0.00    +0.042 HD
BRANCH  39  42
ATOM     42  N   UNL     1     155.847 159.417 188.844  0.00  0.00    -0.330 NA
ATOM     43  H   UNL     1     155.626 159.301 187.856  0.00  0.00    +0.118 HD
ATOM     44  H   UNL     1     154.952 159.368 189.333  0.00  0.00    +0.118 HD
ENDBRANCH  39  42
ENDBRANCH  36  39
ENDBRANCH  33  36
ENDBRANCH  31  33
ENDBRANCH  30  31
ENDBRANCH  18  30
ENDBRANCH  15  18
ENDBRANCH  13  15
BRANCH  13  45
ATOM     45  O   UNL     1     152.567 167.547 189.917  0.00  0.00    -0.379 OA
BRANCH  45  46
ATOM     46  C   UNL     1     151.794 167.115 188.803  0.00  0.00    +0.037 C 
ATOM     47  H   UNL     1     152.329 167.387 187.890  0.00  0.00    +0.052 HD
ATOM     48  H   UNL     1     150.816 167.606 188.796  0.00  0.00    +0.052 HD
ATOM     49  H   UNL     1     151.667 166.029 188.825  0.00  0.00    +0.052 HD
ENDBRANCH  45  46
ENDBRANCH  13  45
ENDBRANCH   7  13
ENDBRANCH   4   7
ENDBRANCH   1   4
BRANCH   1  50
ATOM     50  C   UNL     1     148.356 168.129 192.032  0.00  0.00    +0.108 C 
ATOM     51  H   UNL     1     147.500 168.606 192.529  0.00  0.00    +0.074 HD
BRANCH  50  52
ATOM     52  C   UNL     1     147.825 166.748 191.542  0.00  0.00    +0.020 C 
ATOM     53  H   UNL     1     148.410 165.994 192.085  0.00  0.00    +0.036 HD
BRANCH  52  54
ATOM     54  C   UNL     1     148.173 166.546 190.058  0.00  0.00    -0.057 C 
ATOM     55  H   UNL     1     149.180 166.915 189.841  0.00  0.00    +0.023 HD
ATOM     56  H   UNL     1     147.475 167.066 189.399  0.00  0.00    +0.023 HD
ATOM     57  H   UNL     1     148.155 165.484 189.799  0.00  0.00    +0.023 HD
ENDBRANCH  52  54
BRANCH  52  58
ATOM     58  C   UNL     1     146.325 166.389 191.791  0.00  0.00    +0.070 C 
ATOM     59  H   UNL     1     145.990 165.812 190.915  0.00  0.00    +0.061 HD
BRANCH  58  60
ATOM     60  C   UNL     1     146.023 165.502 193.042  0.00  0.00    +0.002 C 
ATOM     61  H   UNL     1     145.971 164.452 192.732  0.00  0.00    +0.037 HD
BRANCH  60  62
ATOM     62  C   UNL     1     144.685 165.869 193.698  0.00  0.00    -0.057 C 
ATOM     63  H   UNL     1     143.947 166.188 192.956  0.00  0.00    +0.024 HD
ATOM     64  H   UNL     1     144.252 165.009 194.219  0.00  0.00    +0.024 HD
ATOM     65  H   UNL     1     144.802 166.686 194.419  0.00  0.00    +0.024 HD
ENDBRANCH  60  62
BRANCH  60  66
ATOM     66  C   UNL     1     147.200 165.546 194.018  0.00  0.00    -0.065 C 
ATOM     67  C   UNL     1     147.218 166.074 195.250  0.00  0.00    -0.005 C 
ATOM     68  H   UNL     1     148.089 165.079 193.602  0.00  0.00    +0.059 HD
ATOM     69  H   UNL     1     146.314 166.534 195.646  0.00  0.00    +0.078 HD
BRANCH  67  70
ATOM     70  N   UNL     1     148.293 166.119 196.128  0.00  0.00    -0.284 N 
ATOM     71  C   UNL     1     149.525 165.511 195.923  0.00  0.00    +0.206 C 
ATOM     72  O   UNL     1     150.487 165.543 196.685  0.00  0.00    -0.279 OA
ATOM     73  H   UNL     1     149.603 164.963 194.975  0.00  0.00    +0.126 HD
BRANCH  70  74
ATOM     74  C   UNL     1     148.105 166.865 197.367  0.00  0.00    +0.007 C 
ATOM     75  H   UNL     1     148.907 167.605 197.462  0.00  0.00    +0.043 HD
ATOM     76  H   UNL     1     148.123 166.216 198.248  0.00  0.00    +0.043 HD
ATOM     77  H   UNL     1     147.137 167.376 197.327  0.00  0.00    +0.043 HD
ENDBRANCH  70  74
ENDBRANCH  67  70
ENDBRANCH  60  66
ENDBRANCH  58  60
BRANCH  58  78
ATOM     78  O   UNL     1     145.553 167.597 191.883  0.00  0.00    -0.379 OA
BRANCH  78  79
ATOM     79  C   UNL     1     144.854 167.907 190.683  0.00  0.00    +0.037 C 
ATOM     80  H   UNL     1     144.715 168.988 190.581  0.00  0.00    +0.052 HD
ATOM     81  H   UNL     1     143.884 167.401 190.655  0.00  0.00    +0.052 HD
ATOM     82  H   UNL     1     145.451 167.556 189.839  0.00  0.00    +0.052 HD
ENDBRANCH  78  79
ENDBRANCH  58  78
ENDBRANCH  52  58
ENDBRANCH  50  52
BRANCH  50  83
ATOM     83  O   UNL     1     148.702 168.942 190.887  0.00  0.00    -0.459 OA
BRANCH  83  85
ATOM     84  O   UNL     1     147.322 170.372 189.734  0.00  0.00    -0.248 OA
ATOM     85  C   UNL     1     147.980 170.096 190.728  0.00  0.00    +0.337 C 
BRANCH  85  86
ATOM     86  C   UNL     1     148.086 170.954 191.993  0.00  0.00    +0.155 C 
ATOM     87  O   UNL     1     147.050 171.948 192.085  0.00  0.00    -0.365 OA
ATOM     88  C   UNL     1     147.660 173.236 192.227  0.00  0.00    +0.049 C 
ATOM     89  C   UNL     1     149.044 172.979 192.773  0.00  0.00    -0.027 C 
ATOM     90  C   UNL     1     149.414 171.697 192.072  0.00  0.00    -0.014 C 
ATOM     91  H   UNL     1     147.952 170.291 192.857  0.00  0.00    +0.071 HD
ATOM     92  H   UNL     1     147.702 173.707 191.237  0.00  0.00    +0.056 HD
ATOM     93  H   UNL     1     147.053 173.861 192.889  0.00  0.00    +0.056 HD
ATOM     94  H   UNL     1     148.995 172.805 193.855  0.00  0.00    +0.029 HD
ATOM     95  H   UNL     1     149.742 173.801 192.583  0.00  0.00    +0.029 HD
ATOM     96  H   UNL     1     150.177 171.126 192.610  0.00  0.00    +0.030 HD
ATOM     97  H   UNL     1     149.804 171.917 191.069  0.00  0.00    +0.030 HD
ENDBRANCH  85  86
ENDBRANCH  83  85
ENDBRANCH  50  83
ENDBRANCH   1  50
TORSDOF 31
ENDMDL
MODEL 10
REMARK VINA RESULT:      -4.9      3.700      7.938
REMARK  Name = 2u_conf2
REMARK  31 active torsions:
REMARK  status: ('A' for Active; 'I' for Inactive)
REMARK    1  A    between atoms: C_2  and  C_3
REMARK    2  A    between atoms: C_2  and  O_8
REMARK    3  A    between atoms: O_8  and  C_9
REMARK    4  A    between atoms: C_9  and  C_10
REMARK    5  A    between atoms: C_9  and  C_29
REMARK    6  A    between atoms: C_10  and  C_11
REMARK    7  A    between atoms: C_11  and  C_12
REMARK    8  A    between atoms: C_12  and  C_13
REMARK    9  A    between atoms: C_12  and  C_14
REMARK   10  A    between atoms: C_14  and  O_15
REMARK   11  A    between atoms: C_14  and  C_17
REMARK   12  A    between atoms: O_15  and  C_16
REMARK   13  A    between atoms: C_17  and  C_18
REMARK   14  A    between atoms: C_18  and  O_19
REMARK   15  A    between atoms: C_18  and  C_26
REMARK   16  A    between atoms: O_19  and  C_20
REMARK   17  A    between atoms: C_20  and  C_21
REMARK   18  A    between atoms: C_21  and  C_22
REMARK   19  A    between atoms: C_22  and  C_23
REMARK   20  A    between atoms: C_23  and  N_24
REMARK   21  A    between atoms: C_26  and  C_27
REMARK   22  A    between atoms: C_26  and  C_28
REMARK   23  A    between atoms: C_29  and  C_30
REMARK   24  A    between atoms: C_29  and  C_31
REMARK   25  A    between atoms: C_31  and  O_32
REMARK   26  A    between atoms: C_31  and  C_34
REMARK   27  A    between atoms: O_32  and  C_33
REMARK   28  A    between atoms: C_34  and  C_35
REMARK   29  A    between atoms: C_34  and  C_36
REMARK   30  A    between atoms: C_37  and  N_38
REMARK   31  A    between atoms: N_38  and  C_39
REMARK                            x       y       z     vdW  Elec       q    Type
REMARK                         _______ _______ _______ _____ _____    ______ ____
ROOT
ATOM      1  C   UNL     1     152.082 167.645 190.249  0.00  0.00    -0.015 C 
ATOM      2  H   UNL     1     152.802 167.671 191.066  0.00  0.00    +0.030 HD
ATOM      3  H   UNL     1     152.079 168.657 189.829  0.00  0.00    +0.030 HD
ENDROOT
BRANCH   1   4
ATOM      4  C   UNL     1     150.693 167.332 190.827  0.00  0.00    -0.045 C 
ATOM      5  H   UNL     1     150.757 166.455 191.481  0.00  0.00    +0.027 HD
ATOM      6  H   UNL     1     150.021 167.037 190.012  0.00  0.00    +0.027 HD
BRANCH   4   7
ATOM      7  C   UNL     1     150.031 168.498 191.596  0.00  0.00    -0.017 C 
ATOM      8  H   UNL     1     149.550 169.142 190.845  0.00  0.00    +0.032 HD
BRANCH   7   9
ATOM      9  C   UNL     1     151.106 169.372 192.262  0.00  0.00    -0.060 C 
ATOM     10  H   UNL     1     150.749 170.399 192.395  0.00  0.00    +0.023 HD
ATOM     11  H   UNL     1     152.009 169.425 191.644  0.00  0.00    +0.023 HD
ATOM     12  H   UNL     1     151.390 168.986 193.246  0.00  0.00    +0.023 HD
ENDBRANCH   7   9
BRANCH   7  13
ATOM     13  C   UNL     1     148.940 168.070 192.616  0.00  0.00    +0.064 C 
ATOM     14  H   UNL     1     149.262 168.330 193.631  0.00  0.00    +0.060 HD
BRANCH  13  15
ATOM     15  C   UNL     1     148.636 166.560 192.535  0.00  0.00    +0.011 C 
ATOM     16  H   UNL     1     147.697 166.423 191.990  0.00  0.00    +0.033 HD
ATOM     17  H   UNL     1     149.435 166.068 191.971  0.00  0.00    +0.033 HD
BRANCH  15  18
ATOM     18  C   UNL     1     148.526 165.897 193.920  0.00  0.00    +0.108 C 
ATOM     19  H   UNL     1     148.450 164.811 193.794  0.00  0.00    +0.074 HD
BRANCH  18  20
ATOM     20  C   UNL     1     149.722 166.202 194.862  0.00  0.00    -0.009 C 
ATOM     21  H   UNL     1     149.858 167.292 194.873  0.00  0.00    +0.033 HD
BRANCH  20  22
ATOM     22  C   UNL     1     149.450 165.766 196.302  0.00  0.00    -0.059 C 
ATOM     23  H   UNL     1     148.516 165.197 196.359  0.00  0.00    +0.023 HD
ATOM     24  H   UNL     1     149.353 166.620 196.978  0.00  0.00    +0.023 HD
ATOM     25  H   UNL     1     150.252 165.121 196.676  0.00  0.00    +0.023 HD
ENDBRANCH  20  22
BRANCH  20  26
ATOM     26  C   UNL     1     151.045 165.611 194.370  0.00  0.00    -0.059 C 
ATOM     27  H   UNL     1     151.008 165.437 193.289  0.00  0.00    +0.023 HD
ATOM     28  H   UNL     1     151.889 166.279 194.567  0.00  0.00    +0.023 HD
ATOM     29  H   UNL     1     151.253 164.648 194.846  0.00  0.00    +0.023 HD
ENDBRANCH  20  26
ENDBRANCH  18  20
BRANCH  18  30
ATOM     30  O   UNL     1     147.318 166.411 194.533  0.00  0.00    -0.461 OA
BRANCH  30  31
ATOM     31  C   UNL     1     146.190 165.655 194.406  0.00  0.00    +0.307 C 
ATOM     32  O   UNL     1     146.022 164.545 194.892  0.00  0.00    -0.251 OA
BRANCH  31  33
ATOM     33  C   UNL     1     145.171 166.423 193.598  0.00  0.00    +0.046 C 
ATOM     34  H   UNL     1     145.514 166.445 192.558  0.00  0.00    +0.038 HD
ATOM     35  H   UNL     1     145.140 167.446 193.987  0.00  0.00    +0.038 HD
BRANCH  33  36
ATOM     36  C   UNL     1     143.783 165.793 193.675  0.00  0.00    -0.031 C 
ATOM     37  H   UNL     1     143.825 164.760 193.308  0.00  0.00    +0.028 HD
ATOM     38  H   UNL     1     143.465 165.734 194.726  0.00  0.00    +0.028 HD
BRANCH  36  39
ATOM     39  C   UNL     1     142.719 166.577 192.906  0.00  0.00    -0.006 C 
ATOM     40  H   UNL     1     142.018 167.018 193.622  0.00  0.00    +0.042 HD
ATOM     41  H   UNL     1     143.181 167.403 192.353  0.00  0.00    +0.042 HD
BRANCH  39  42
ATOM     42  N   UNL     1     141.970 165.733 191.981  0.00  0.00    -0.330 NA
ATOM     43  H   UNL     1     142.167 166.007 191.020  0.00  0.00    +0.118 HD
ATOM     44  H   UNL     1     140.972 165.901 192.115  0.00  0.00    +0.118 HD
ENDBRANCH  39  42
ENDBRANCH  36  39
ENDBRANCH  33  36
ENDBRANCH  31  33
ENDBRANCH  30  31
ENDBRANCH  18  30
ENDBRANCH  15  18
ENDBRANCH  13  15
BRANCH  13  45
ATOM     45  O   UNL     1     147.726 168.766 192.282  0.00  0.00    -0.379 OA
BRANCH  45  46
ATOM     46  C   UNL     1     147.200 168.397 191.013  0.00  0.00    +0.037 C 
ATOM     47  H   UNL     1     146.116 168.536 191.038  0.00  0.00    +0.052 HD
ATOM     48  H   UNL     1     147.413 167.346 190.795  0.00  0.00    +0.052 HD
ATOM     49  H   UNL     1     147.617 169.033 190.227  0.00  0.00    +0.052 HD
ENDBRANCH  45  46
ENDBRANCH  13  45
ENDBRANCH   7  13
ENDBRANCH   4   7
ENDBRANCH   1   4
BRANCH   1  50
ATOM     50  C   UNL     1     152.507 166.636 189.157  0.00  0.00    +0.108 C 
ATOM     51  H   UNL     1     152.453 167.127 188.175  0.00  0.00    +0.074 HD
BRANCH  50  52
ATOM     52  C   UNL     1     151.649 165.343 189.013  0.00  0.00    +0.020 C 
ATOM     53  H   UNL     1     150.746 165.517 189.613  0.00  0.00    +0.036 HD
BRANCH  52  54
ATOM     54  C   UNL     1     152.365 164.159 189.683  0.00  0.00    -0.057 C 
ATOM     55  H   UNL     1     152.595 163.379 188.951  0.00  0.00    +0.023 HD
ATOM     56  H   UNL     1     151.762 163.710 190.475  0.00  0.00    +0.023 HD
ATOM     57  H   UNL     1     153.314 164.480 190.122  0.00  0.00    +0.023 HD
ENDBRANCH  52  54
BRANCH  52  58
ATOM     58  C   UNL     1     151.148 164.928 187.593  0.00  0.00    +0.070 C 
ATOM     59  H   UNL     1     151.067 163.830 187.596  0.00  0.00    +0.061 HD
BRANCH  58  60
ATOM     60  C   UNL     1     149.746 165.471 187.167  0.00  0.00    +0.002 C 
ATOM     61  H   UNL     1     149.494 165.072 186.177  0.00  0.00    +0.037 HD
BRANCH  60  62
ATOM     62  C   UNL     1     149.724 167.003 187.080  0.00  0.00    -0.057 C 
ATOM     63  H   UNL     1     148.836 167.421 187.560  0.00  0.00    +0.024 HD
ATOM     64  H   UNL     1     150.590 167.438 187.591  0.00  0.00    +0.024 HD
ATOM     65  H   UNL     1     149.731 167.347 186.040  0.00  0.00    +0.024 HD
ENDBRANCH  60  62
BRANCH  60  66
ATOM     66  C   UNL     1     148.659 164.908 188.084  0.00  0.00    -0.065 C 
ATOM     67  C   UNL     1     147.333 165.068 187.972  0.00  0.00    -0.005 C 
ATOM     68  H   UNL     1     149.080 164.323 188.899  0.00  0.00    +0.059 HD
ATOM     69  H   UNL     1     146.936 165.656 187.146  0.00  0.00    +0.078 HD
BRANCH  67  70
ATOM     70  N   UNL     1     146.353 164.562 188.814  0.00  0.00    -0.284 N 
ATOM     71  C   UNL     1     145.549 165.316 189.659  0.00  0.00    +0.206 C 
ATOM     72  O   UNL     1     144.676 164.886 190.406  0.00  0.00    -0.279 OA
ATOM     73  H   UNL     1     145.746 166.395 189.620  0.00  0.00    +0.126 HD
BRANCH  70  74
ATOM     74  C   UNL     1     146.158 163.115 188.808  0.00  0.00    +0.007 C 
ATOM     75  H   UNL     1     146.790 162.668 189.582  0.00  0.00    +0.043 HD
ATOM     76  H   UNL     1     146.416 162.667 187.844  0.00  0.00    +0.043 HD
ATOM     77  H   UNL     1     145.106 162.901 189.024  0.00  0.00    +0.043 HD
ENDBRANCH  70  74
ENDBRANCH  67  70
ENDBRANCH  60  66
ENDBRANCH  58  60
BRANCH  58  78
ATOM     78  O   UNL     1     152.117 165.325 186.609  0.00  0.00    -0.379 OA
BRANCH  78  79
ATOM     79  C   UNL     1     152.799 164.225 186.019  0.00  0.00    +0.037 C 
ATOM     80  H   UNL     1     152.298 163.904 185.099  0.00  0.00    +0.052 HD
ATOM     81  H   UNL     1     152.868 163.388 186.719  0.00  0.00    +0.052 HD
ATOM     82  H   UNL     1     153.810 164.547 185.764  0.00  0.00    +0.052 HD
ENDBRANCH  78  79
ENDBRANCH  58  78
ENDBRANCH  52  58
ENDBRANCH  50  52
BRANCH  50  83
ATOM     83  O   UNL     1     153.888 166.271 189.384  0.00  0.00    -0.459 OA
BRANCH  83  85
ATOM     84  O   UNL     1     154.512 167.344 187.451  0.00  0.00    -0.248 OA
ATOM     85  C   UNL     1     154.770 166.601 188.388  0.00  0.00    +0.337 C 
BRANCH  85  86
ATOM     86  C   UNL     1     156.127 165.941 188.655  0.00  0.00    +0.155 C 
ATOM     87  O   UNL     1     156.389 164.827 187.783  0.00  0.00    -0.365 OA
ATOM     88  C   UNL     1     156.664 163.671 188.584  0.00  0.00    +0.049 C 
ATOM     89  C   UNL     1     157.111 164.198 189.927  0.00  0.00    -0.027 C 
ATOM     90  C   UNL     1     156.239 165.418 190.081  0.00  0.00    -0.014 C 
ATOM     91  H   UNL     1     156.906 166.685 188.444  0.00  0.00    +0.071 HD
ATOM     92  H   UNL     1     155.740 163.087 188.672  0.00  0.00    +0.056 HD
ATOM     93  H   UNL     1     157.426 163.057 188.096  0.00  0.00    +0.056 HD
ATOM     94  H   UNL     1     158.165 164.503 189.880  0.00  0.00    +0.029 HD
ATOM     95  H   UNL     1     156.995 163.470 190.736  0.00  0.00    +0.029 HD
ATOM     96  H   UNL     1     156.667 166.160 190.763  0.00  0.00    +0.030 HD
ATOM     97  H   UNL     1     155.255 165.128 190.475  0.00  0.00    +0.030 HD
ENDBRANCH  85  86
ENDBRANCH  83  85
ENDBRANCH  50  83
ENDBRANCH   1  50
TORSDOF 31
ENDMDL
